ver_1.2
     RDKit          3D

 14 15  0  0  0  0  0  0  0  0999 V2000
    2.9732   -1.6669   -0.1903 C   0  0  0  0  0  0  0  0  0  0  0  0
    2.1884   -0.4680   -0.0366 N   0  0  0  0  0  0  0  0  0  0  0  0
    2.6654    0.7681    0.1378 C   0  0  0  0  0  0  0  0  0  0  0  0
    1.6508    1.6415    0.2443 N   0  0  0  0  0  0  0  0  0  0  0  0
    0.5120    0.9669    0.1382 C   0  0  0  0  0  0  0  0  0  0  0  0
    0.8503   -0.3648   -0.0391 C   0  0  0  0  0  0  0  0  0  0  0  0
   -0.2003   -1.2601   -0.1743 C   0  0  0  0  0  0  0  0  0  0  0  0
    0.0767   -2.4760   -0.3366 O   0  0  0  0  0  0  0  0  0  0  0  0
   -1.4798   -0.8448   -0.1336 N   0  0  0  0  0  0  0  0  0  0  0  0
   -1.7744    0.4571    0.0402 C   0  0  0  0  0  0  0  0  0  0  0  0
   -2.9569    0.8853    0.0839 O   0  0  0  0  0  0  0  0  0  0  0  0
   -0.7929    1.3668    0.1765 N   0  0  0  0  0  0  0  0  0  0  0  0
   -1.1142    2.7544    0.3616 C   0  0  0  0  0  0  0  0  0  0  0  0
   -2.5981   -1.7594   -0.2721 C   0  0  0  0  0  0  0  0  0  0  0  0
  1  2  1  0
  2  3  1  0
  3  4  2  0
  4  5  1  0
  5  6  2  0
  6  7  1  0
  7  8  2  0
  7  9  1  0
  9 10  1  0
 10 11  2  0
 10 12  1  0
 12 13  1  0
  9 14  1  0
  6  2  1  0
 12  5  1  0
M  END
>  <ref_url>  (1) 
https://github.com/matteoferla/EV-A71-2A-elaborations

>  <submitter_name>  (1) 
Matteo Ferla

>  <submitter_email>  (1) 
matteo.ferla@stats.ox.ac.uk

>  <submitter_institution>  (1) 
University of Oxford

>  <generation_date>  (1) 
2024-03-19

>  <method>  (1) 
A71-Fragmenstein-iter2-hybrid

>  <rationale>  (1) 
rationale

>  <intxn_cluster>  (1) 
intxn_cluster

>  <intxn_cluster_rank>  (1) 
intxn_cluster_rank

>  <N_interactions>  (1) 
N_interactions

>  <∆∆G>  (1) 
∆∆G

>  <$/mg>  (1) 
$/mg

>  <comRMSD>  (1) 
comRMSD

>  <N_rotatable_bonds>  (1) 
N_rotatable_bonds

>  <deep_P1_sidechain>  (1) 
deep_P1_sidechain

>  <farthest_distance_to_substrate>  (1) 
farthest_distance_to_substrate

>  <hbond:SER:7>  (1) 
hbond:SER:7

>  <halogenbond:SER:7>  (1) 
halogenbond:SER:7

>  <hbond:GLY:8>  (1) 
hbond:GLY:8

>  <hydroph_interaction:VAL:18>  (1) 
hydroph_interaction:VAL:18

>  <hbond:ASN:19>  (1) 
hbond:ASN:19

>  <hydroph_interaction:ASN:19>  (1) 
hydroph_interaction:ASN:19

>  <halogenbond:ASN:19>  (1) 
halogenbond:ASN:19

>  <hbond:ARG:20>  (1) 
hbond:ARG:20

>  <hydroph_interaction:ARG:20>  (1) 
hydroph_interaction:ARG:20

>  <saltbridge:ARG:20>  (1) 
saltbridge:ARG:20

>  <halogenbond:ARG:20>  (1) 
halogenbond:ARG:20

>  <pication:ARG:20>  (1) 
pication:ARG:20

>  <hbond:HIS:21>  (1) 
hbond:HIS:21

>  <hydroph_interaction:HIS:21>  (1) 
hydroph_interaction:HIS:21

>  <pistack:HIS:21>  (1) 
pistack:HIS:21

>  <pication:HIS:21>  (1) 
pication:HIS:21

>  <saltbridge:HIS:21>  (1) 
saltbridge:HIS:21

>  <halogenbond:HIS:21>  (1) 
halogenbond:HIS:21

>  <hydroph_interaction:LEU:22>  (1) 
hydroph_interaction:LEU:22

>  <hbond:LEU:22>  (1) 
hbond:LEU:22

>  <hydroph_interaction:TRP:28>  (1) 
hydroph_interaction:TRP:28

>  <hbond:SER:36>  (1) 
hbond:SER:36

>  <halogenbond:SER:36>  (1) 
halogenbond:SER:36

>  <hbond:SER:37>  (1) 
hbond:SER:37

>  <hbond:ARG:38>  (1) 
hbond:ARG:38

>  <halogenbond:ARG:38>  (1) 
halogenbond:ARG:38

>  <saltbridge:ASP:39>  (1) 
saltbridge:ASP:39

>  <halogenbond:ASP:39>  (1) 
halogenbond:ASP:39

>  <hbond:ASP:39>  (1) 
hbond:ASP:39

>  <hydroph_interaction:ASP:39>  (1) 
hydroph_interaction:ASP:39

>  <hydroph_interaction:LEU:40>  (1) 
hydroph_interaction:LEU:40

>  <hydroph_interaction:TYR:63>  (1) 
hydroph_interaction:TYR:63

>  <hbond:TYR:63>  (1) 
hbond:TYR:63

>  <pistack:TYR:63>  (1) 
pistack:TYR:63

>  <pication:TYR:63>  (1) 
pication:TYR:63

>  <halogenbond:TYR:64>  (1) 
halogenbond:TYR:64

>  <hbond:TYR:64>  (1) 
hbond:TYR:64

>  <hydroph_interaction:TYR:64>  (1) 
hydroph_interaction:TYR:64

>  <halogenbond:CYS:65>  (1) 
halogenbond:CYS:65

>  <hbond:CYS:65>  (1) 
hbond:CYS:65

>  <hbond:SER:66>  (1) 
hbond:SER:66

>  <halogenbond:SER:66>  (1) 
halogenbond:SER:66

>  <hbond:SER:67>  (1) 
hbond:SER:67

>  <halogenbond:SER:67>  (1) 
halogenbond:SER:67

>  <hbond:ARG:68>  (1) 
hbond:ARG:68

>  <saltbridge:ARG:68>  (1) 
saltbridge:ARG:68

>  <hydroph_interaction:ARG:68>  (1) 
hydroph_interaction:ARG:68

>  <pication:ARG:68>  (1) 
pication:ARG:68

>  <hydroph_interaction:TYR:72>  (1) 
hydroph_interaction:TYR:72

>  <hydroph_interaction:VAL:74>  (1) 
hydroph_interaction:VAL:74

>  <hydroph_interaction:PHE:76>  (1) 
hydroph_interaction:PHE:76

>  <hbond:SER:77>  (1) 
hbond:SER:77

>  <hbond:SER:80>  (1) 
hbond:SER:80

>  <hbond:LEU:81>  (1) 
hbond:LEU:81

>  <halogenbond:LEU:81>  (1) 
halogenbond:LEU:81

>  <hydroph_interaction:LEU:81>  (1) 
hydroph_interaction:LEU:81

>  <hydroph_interaction:ILE:82>  (1) 
hydroph_interaction:ILE:82

>  <halogenbond:ILE:82>  (1) 
halogenbond:ILE:82

>  <hbond:ILE:82>  (1) 
hbond:ILE:82

>  <hbond:PHE:83>  (1) 
hbond:PHE:83

>  <hydroph_interaction:PHE:83>  (1) 
hydroph_interaction:PHE:83

>  <halogenbond:PHE:83>  (1) 
halogenbond:PHE:83

>  <pistack:PHE:83>  (1) 
pistack:PHE:83

>  <pication:PHE:83>  (1) 
pication:PHE:83

>  <hydroph_interaction:VAL:84>  (1) 
hydroph_interaction:VAL:84

>  <halogenbond:VAL:84>  (1) 
halogenbond:VAL:84

>  <hbond:VAL:84>  (1) 
hbond:VAL:84

>  <hydroph_interaction:GLU:85>  (1) 
hydroph_interaction:GLU:85

>  <hbond:GLU:85>  (1) 
hbond:GLU:85

>  <halogenbond:GLU:85>  (1) 
halogenbond:GLU:85

>  <saltbridge:GLU:85>  (1) 
saltbridge:GLU:85

>  <halogenbond:ALA:86>  (1) 
halogenbond:ALA:86

>  <hbond:ALA:86>  (1) 
hbond:ALA:86

>  <hydroph_interaction:ALA:86>  (1) 
hydroph_interaction:ALA:86

>  <hbond:SER:87>  (1) 
hbond:SER:87

>  <halogenbond:SER:87>  (1) 
halogenbond:SER:87

>  <hbond:GLU:88>  (1) 
hbond:GLU:88

>  <hydroph_interaction:GLU:88>  (1) 
hydroph_interaction:GLU:88

>  <halogenbond:GLU:88>  (1) 
halogenbond:GLU:88

>  <saltbridge:GLU:88>  (1) 
saltbridge:GLU:88

>  <hydroph_interaction:TYR:89>  (1) 
hydroph_interaction:TYR:89

>  <pistack:TYR:89>  (1) 
pistack:TYR:89

>  <hbond:TYR:89>  (1) 
hbond:TYR:89

>  <halogenbond:TYR:89>  (1) 
halogenbond:TYR:89

>  <hydroph_interaction:TYR:90>  (1) 
hydroph_interaction:TYR:90

>  <hbond:TYR:90>  (1) 
hbond:TYR:90

>  <pistack:TYR:90>  (1) 
pistack:TYR:90

>  <halogenbond:TYR:90>  (1) 
halogenbond:TYR:90

>  <pication:TYR:90>  (1) 
pication:TYR:90

>  <hbond:PRO:91>  (1) 
hbond:PRO:91

>  <hydroph_interaction:PRO:91>  (1) 
hydroph_interaction:PRO:91

>  <halogenbond:PRO:91>  (1) 
halogenbond:PRO:91

>  <hbond:ALA:92>  (1) 
hbond:ALA:92

>  <hydroph_interaction:ALA:92>  (1) 
hydroph_interaction:ALA:92

>  <saltbridge:ARG:93>  (1) 
saltbridge:ARG:93

>  <hbond:ARG:93>  (1) 
hbond:ARG:93

>  <hydroph_interaction:ARG:93>  (1) 
hydroph_interaction:ARG:93

>  <halogenbond:ARG:93>  (1) 
halogenbond:ARG:93

>  <pication:ARG:93>  (1) 
pication:ARG:93

>  <hydroph_interaction:TYR:94>  (1) 
hydroph_interaction:TYR:94

>  <pistack:TYR:94>  (1) 
pistack:TYR:94

>  <hbond:TYR:94>  (1) 
hbond:TYR:94

>  <hbond:GLN:95>  (1) 
hbond:GLN:95

>  <hydroph_interaction:GLN:95>  (1) 
hydroph_interaction:GLN:95

>  <halogenbond:GLN:95>  (1) 
halogenbond:GLN:95

>  <hbond:SER:96>  (1) 
hbond:SER:96

>  <halogenbond:HIS:97>  (1) 
halogenbond:HIS:97

>  <hydroph_interaction:LEU:98>  (1) 
hydroph_interaction:LEU:98

>  <hbond:LEU:98>  (1) 
hbond:LEU:98

>  <halogenbond:LEU:98>  (1) 
halogenbond:LEU:98

>  <hbond:MET:99>  (1) 
hbond:MET:99

>  <hydroph_interaction:MET:99>  (1) 
hydroph_interaction:MET:99

>  <halogenbond:MET:99>  (1) 
halogenbond:MET:99

>  <hydroph_interaction:LEU:100>  (1) 
hydroph_interaction:LEU:100

>  <hbond:LEU:100>  (1) 
hbond:LEU:100

>  <hbond:ALA:101>  (1) 
hbond:ALA:101

>  <hydroph_interaction:ALA:101>  (1) 
hydroph_interaction:ALA:101

>  <hydroph_interaction:VAL:102>  (1) 
hydroph_interaction:VAL:102

>  <hbond:VAL:102>  (1) 
hbond:VAL:102

>  <hbond:GLY:103>  (1) 
hbond:GLY:103

>  <halogenbond:GLY:103>  (1) 
halogenbond:GLY:103

>  <hbond:HIS:104>  (1) 
hbond:HIS:104

>  <saltbridge:HIS:104>  (1) 
saltbridge:HIS:104

>  <pication:HIS:104>  (1) 
pication:HIS:104

>  <halogenbond:HIS:104>  (1) 
halogenbond:HIS:104

>  <hydroph_interaction:HIS:104>  (1) 
hydroph_interaction:HIS:104

>  <pistack:HIS:104>  (1) 
pistack:HIS:104

>  <halogenbond:SER:105>  (1) 
halogenbond:SER:105

>  <hbond:SER:105>  (1) 
hbond:SER:105

>  <hbond:GLU:106>  (1) 
hbond:GLU:106

>  <hydroph_interaction:GLU:106>  (1) 
hydroph_interaction:GLU:106

>  <saltbridge:GLU:106>  (1) 
saltbridge:GLU:106

>  <halogenbond:GLU:106>  (1) 
halogenbond:GLU:106

>  <hydroph_interaction:PRO:107>  (1) 
hydroph_interaction:PRO:107

>  <hbond:PRO:107>  (1) 
hbond:PRO:107

>  <halogenbond:PRO:107>  (1) 
halogenbond:PRO:107

>  <hbond:GLY:108>  (1) 
hbond:GLY:108

>  <halogenbond:GLY:108>  (1) 
halogenbond:GLY:108

>  <hbond:ASP:109>  (1) 
hbond:ASP:109

>  <hydroph_interaction:ASP:109>  (1) 
hydroph_interaction:ASP:109

>  <saltbridge:ASP:109>  (1) 
saltbridge:ASP:109

>  <halogenbond:CYS:110>  (1) 
halogenbond:CYS:110

>  <hbond:CYS:110>  (1) 
hbond:CYS:110

>  <hbond:GLY:111>  (1) 
hbond:GLY:111

>  <hbond:GLY:112>  (1) 
hbond:GLY:112

>  <hbond:ILE:113>  (1) 
hbond:ILE:113

>  <hydroph_interaction:LEU:114>  (1) 
hydroph_interaction:LEU:114

>  <hbond:LEU:114>  (1) 
hbond:LEU:114

>  <hydroph_interaction:ILE:123>  (1) 
hydroph_interaction:ILE:123

>  <hbond:ILE:123>  (1) 
hbond:ILE:123

>  <hydroph_interaction:VAL:124>  (1) 
hydroph_interaction:VAL:124

>  <hbond:VAL:124>  (1) 
hbond:VAL:124

>  <halogenbond:VAL:124>  (1) 
halogenbond:VAL:124

>  <hbond:SER:125>  (1) 
hbond:SER:125

>  <halogenbond:SER:125>  (1) 
halogenbond:SER:125

>  <hydroph_interaction:THR:126>  (1) 
hydroph_interaction:THR:126

>  <hbond:THR:126>  (1) 
hbond:THR:126

>  <halogenbond:THR:126>  (1) 
halogenbond:THR:126

>  <hbond:GLY:127>  (1) 
hbond:GLY:127

>  <halogenbond:GLY:127>  (1) 
halogenbond:GLY:127

>  <hydroph_interaction:GLY:127>  (1) 
hydroph_interaction:GLY:127

>  <hbond:GLY:128>  (1) 
hbond:GLY:128

>  <halogenbond:GLY:128>  (1) 
halogenbond:GLY:128

>  <hydroph_interaction:GLY:128>  (1) 
hydroph_interaction:GLY:128

>  <hbond:ASN:129>  (1) 
hbond:ASN:129

>  <hydroph_interaction:ASN:129>  (1) 
hydroph_interaction:ASN:129

>  <halogenbond:ASN:129>  (1) 
halogenbond:ASN:129

>  <hbond:GLY:130>  (1) 
hbond:GLY:130

>  <hbond:LEU:131>  (1) 
hbond:LEU:131

>  <hydroph_interaction:LEU:131>  (1) 
hydroph_interaction:LEU:131

>  <halogenbond:LEU:131>  (1) 
halogenbond:LEU:131

>  <hydroph_interaction:VAL:132>  (1) 
hydroph_interaction:VAL:132

>  <hbond:VAL:132>  (1) 
hbond:VAL:132

>  <hbond:GLY:133>  (1) 
hbond:GLY:133

>  <halogenbond:GLY:133>  (1) 
halogenbond:GLY:133

>  <hydroph_interaction:PHE:134>  (1) 
hydroph_interaction:PHE:134

>  <hbond:PHE:134>  (1) 
hbond:PHE:134

>  <pistack:PHE:134>  (1) 
pistack:PHE:134

>  <pication:PHE:134>  (1) 
pication:PHE:134

>  <halogenbond:PHE:134>  (1) 
halogenbond:PHE:134

>  <hydroph_interaction:ALA:135>  (1) 
hydroph_interaction:ALA:135

>  <hbond:ALA:135>  (1) 
hbond:ALA:135

$$$$
Z4209640018
     RDKit          3D

 33 34  0  0  0  0  0  0  0  0999 V2000
   12.2280   15.0290   21.8860 C   0  0  0  0  0  0  0  0  0  0  0  0
   11.6510   14.1770   22.7530 C   0  0  0  0  0  0  0  0  0  0  0  0
   12.0650   14.1240   24.1770 C   0  0  0  0  0  0  0  0  0  0  0  0
   10.5600   13.2330   22.3450 C   0  0  0  0  0  0  0  0  0  0  0  0
    9.8490   12.2720   23.0810 C   0  0  0  0  0  0  0  0  0  0  0  0
   10.0370   10.8840   22.9210 C   0  0  0  0  0  0  0  0  0  0  0  0
    9.3080    9.9660   23.6640 C   0  0  0  0  0  0  0  0  0  0  0  0
    8.3640   10.3990   24.5900 C   0  0  0  0  0  0  0  0  0  0  0  0
    8.1670   11.7600   24.7600 C   0  0  0  0  0  0  0  0  0  0  0  0
    8.8960   12.6650   24.0220 C   0  0  0  0  0  0  0  0  0  0  0  0
    8.6820   13.9810   24.2010 O   0  0  0  0  0  0  0  0  0  0  0  0
    7.3010   14.3030   24.1620 C   0  0  0  0  0  0  0  0  0  0  0  0
    6.4440   13.5330   25.1560 C   0  0  0  0  0  0  0  0  0  0  0  0
    5.8880   14.5050   26.1360 C   0  0  0  0  0  0  0  0  0  0  0  0
    5.0390   14.2550   26.9670 O   0  0  0  0  0  0  0  0  0  0  0  0
    6.3960   15.7460   26.0320 O   0  0  0  0  0  0  0  0  0  0  0  0
    7.1650   12.3080   25.7320 C   0  0  0  0  0  0  0  0  0  0  0  0
   12.3000   14.6700   20.8620 H   0  0  0  0  0  0  0  0  0  0  0  0
   11.8730   16.0520   21.9160 H   0  0  0  0  0  0  0  0  0  0  0  0
   13.2670   15.0880   22.2220 H   0  0  0  0  0  0  0  0  0  0  0  0
   12.8410   13.3610   24.3030 H   0  0  0  0  0  0  0  0  0  0  0  0
   12.4760   15.0900   24.4910 H   0  0  0  0  0  0  0  0  0  0  0  0
   11.2390   13.8780   24.8510 H   0  0  0  0  0  0  0  0  0  0  0  0
   10.3110   13.3600   21.2950 H   0  0  0  0  0  0  0  0  0  0  0  0
   10.7610   10.5150   22.2040 H   0  0  0  0  0  0  0  0  0  0  0  0
    9.4860    8.9150   23.5100 H   0  0  0  0  0  0  0  0  0  0  0  0
    7.7890    9.6870   25.1700 H   0  0  0  0  0  0  0  0  0  0  0  0
    6.9410   14.1400   23.1380 H   0  0  0  0  0  0  0  0  0  0  0  0
    7.2150   15.3780   24.3470 H   0  0  0  0  0  0  0  0  0  0  0  0
    5.5490   13.1840   24.6610 H   0  0  0  0  0  0  0  0  0  0  0  0
    5.8960   16.1300   25.2730 H   0  0  0  0  0  0  0  0  0  0  0  0
    6.4280   11.5140   25.9190 H   0  0  0  0  0  0  0  0  0  0  0  0
    7.6400   12.5370   26.6900 H   0  0  0  0  0  0  0  0  0  0  0  0
  1  2  1  0
  2  3  1  0
  2  4  2  3
  4  5  1  0
  5  6  2  0
  6  7  1  0
  7  8  2  0
  8  9  1  0
  9 10  2  0
 10 11  1  0
 11 12  1  0
 12 13  1  0
 13 14  1  0
 14 15  2  0
 14 16  1  0
 13 17  1  0
 10  5  1  0
 17  9  1  0
  1 18  1  0
  1 19  1  0
  1 20  1  0
  3 21  1  0
  3 22  1  0
  3 23  1  0
  4 24  1  0
  6 25  1  0
  7 26  1  0
  8 27  1  0
 12 28  1  0
 12 29  1  0
 13 30  1  0
 16 31  1  0
 17 32  1  0
 17 33  1  0
A    1
 C1 
A    2
 C2 
A    3
 C3 
A    4
 C4 
A    5
 C5 
A    6
 C6 
A    7
 C7 
A    8
 C8 
A    9
 C9 
A   10
 C10
A   11
 O1 
A   12
 C11
A   13
 C12
A   14
 C13
A   15
 O2 
A   16
 O3 
A   17
 C14
A   18
 H1 
A   19
 H2 
A   20
 H3 
A   21
 H4 
A   22
 H5 
A   23
 H6 
A   24
 H7 
A   25
 H8 
A   26
 H9 
A   27
 H10
A   28
 H11
A   29
 H12
A   30
 H13
A   31
 H14
A   32
 H15
A   33
 H16
M  END
>  <ref_pdb>  (1) 
x0310_0A

>  <ref_mols>  (1) 
x0554_0A,x0416_0A,x0446_0A

>  <original SMILES>  (1) 
CC(C)=Cc1cccc2c1OCC(C(=O)O)C2

>  <rationale>  (1) 
info halogenbond:G127+E85+Q95+E106+T126+P107+H104+Y64+C65+S87+N129+F83+R93+L131+I82+G128+P91+N19+H21+V84+G133+Y90+Y89+H97+L81+F134+L98+R20+G103+S66+S67+S7+G108+R38+V124+M99+S36; hbond:Q95+G108+G103+G130+L131+N19+H104+R68+V124+R93+P91+F83+S67+S7+S66+G112+G133+V132+R20+Y89+S77+A135+Y63+A92+A101+M99+F134+L100+I82+Y64+S36+L98+V84+L81+Y94+S80+R38+S37+V102+G8+I123+G111+I113+L114+C65+L22+S96; hydroph_interaction:T126+H21+P107+L22+N129+D39+N19+L40+I123+A135+Q95+I82+L100+L98+L131+F83+R93+V132+Y63+F134+H104+R20+A86+V74+P91+A101+F76+M99+L114+A92+Y94+R68+Y72+Y64+V18+V102+W28+G127+G128+L81; pication:R93+Y63+F134+Y90+R68+F83+R20; pistack:H21+Y89+Y90+H104+F134+Y63+F83+Y94; saltbridge:D39+R93+H104+D109+E88+R68+R20; 

>  <intxn_cluster>  (1) 
-1

>  <intxn_cluster_rank>  (1) 
-1

>  <N_interactions>  (1) 
2

>  <∆∆G>  (1) 
-10.054722

>  <$/mg>  (1) 
0.0

>  <comRMSD>  (1) 
0.830465

>  <N_rotatable_bonds>  (1) 
4

>  <deep_P1_sidechain>  (1) 
nan

>  <farthest_distance_to_substrate>  (1) 
2.796654

>  <hbond:SER:7>  (1) 
hbond:SER:7    NaN
hbond:SER:7     -1
Name: 0, dtype: object

>  <halogenbond:SER:7>  (1) 
halogenbond:SER:7    NaN
halogenbond:SER:7     -1
Name: 0, dtype: object

>  <hbond:GLY:8>  (1) 
hbond:GLY:8    NaN
hbond:GLY:8     -1
Name: 0, dtype: object

>  <hydroph_interaction:VAL:18>  (1) 
hydroph_interaction:VAL:18    NaN
hydroph_interaction:VAL:18     -1
Name: 0, dtype: object

>  <hbond:ASN:19>  (1) 
hbond:ASN:19    NaN
hbond:ASN:19     -1
Name: 0, dtype: object

>  <hydroph_interaction:ASN:19>  (1) 
hydroph_interaction:ASN:19    NaN
hydroph_interaction:ASN:19     -1
Name: 0, dtype: object

>  <halogenbond:ASN:19>  (1) 
halogenbond:ASN:19    NaN
halogenbond:ASN:19     -1
Name: 0, dtype: object

>  <hbond:ARG:20>  (1) 
hbond:ARG:20    NaN
hbond:ARG:20     -1
Name: 0, dtype: object

>  <hydroph_interaction:ARG:20>  (1) 
hydroph_interaction:ARG:20    NaN
hydroph_interaction:ARG:20     -1
Name: 0, dtype: object

>  <saltbridge:ARG:20>  (1) 
saltbridge:ARG:20    NaN
saltbridge:ARG:20     -1
Name: 0, dtype: object

>  <halogenbond:ARG:20>  (1) 
halogenbond:ARG:20    NaN
halogenbond:ARG:20     -1
Name: 0, dtype: object

>  <pication:ARG:20>  (1) 
pication:ARG:20    NaN
pication:ARG:20     -1
Name: 0, dtype: object

>  <hbond:HIS:21>  (1) 
hbond:HIS:21    0.0
hbond:HIS:21      0
Name: 0, dtype: object

>  <hydroph_interaction:HIS:21>  (1) 
hydroph_interaction:HIS:21    NaN
hydroph_interaction:HIS:21     -1
Name: 0, dtype: object

>  <pistack:HIS:21>  (1) 
pistack:HIS:21    NaN
pistack:HIS:21     -1
Name: 0, dtype: object

>  <pication:HIS:21>  (1) 
pication:HIS:21    0.0
pication:HIS:21      0
Name: 0, dtype: object

>  <saltbridge:HIS:21>  (1) 
saltbridge:HIS:21    0.0
saltbridge:HIS:21      0
Name: 0, dtype: object

>  <halogenbond:HIS:21>  (1) 
halogenbond:HIS:21    NaN
halogenbond:HIS:21     -1
Name: 0, dtype: object

>  <hydroph_interaction:LEU:22>  (1) 
hydroph_interaction:LEU:22    NaN
hydroph_interaction:LEU:22     -1
Name: 0, dtype: object

>  <hbond:LEU:22>  (1) 
hbond:LEU:22    NaN
hbond:LEU:22     -1
Name: 0, dtype: object

>  <hydroph_interaction:TRP:28>  (1) 
hydroph_interaction:TRP:28    NaN
hydroph_interaction:TRP:28     -1
Name: 0, dtype: object

>  <hbond:SER:36>  (1) 
hbond:SER:36    NaN
hbond:SER:36     -1
Name: 0, dtype: object

>  <halogenbond:SER:36>  (1) 
halogenbond:SER:36    NaN
halogenbond:SER:36     -1
Name: 0, dtype: object

>  <hbond:SER:37>  (1) 
hbond:SER:37    NaN
hbond:SER:37     -1
Name: 0, dtype: object

>  <hbond:ARG:38>  (1) 
hbond:ARG:38    NaN
hbond:ARG:38     -1
Name: 0, dtype: object

>  <halogenbond:ARG:38>  (1) 
halogenbond:ARG:38    NaN
halogenbond:ARG:38     -1
Name: 0, dtype: object

>  <saltbridge:ASP:39>  (1) 
saltbridge:ASP:39    NaN
saltbridge:ASP:39     -1
Name: 0, dtype: object

>  <halogenbond:ASP:39>  (1) 
halogenbond:ASP:39    0.0
halogenbond:ASP:39      0
Name: 0, dtype: object

>  <hbond:ASP:39>  (1) 
hbond:ASP:39    0.0
hbond:ASP:39      0
Name: 0, dtype: object

>  <hydroph_interaction:ASP:39>  (1) 
hydroph_interaction:ASP:39    NaN
hydroph_interaction:ASP:39     -1
Name: 0, dtype: object

>  <hydroph_interaction:LEU:40>  (1) 
hydroph_interaction:LEU:40    NaN
hydroph_interaction:LEU:40     -1
Name: 0, dtype: object

>  <hydroph_interaction:TYR:63>  (1) 
hydroph_interaction:TYR:63    NaN
hydroph_interaction:TYR:63     -1
Name: 0, dtype: object

>  <hbond:TYR:63>  (1) 
hbond:TYR:63    NaN
hbond:TYR:63     -1
Name: 0, dtype: object

>  <pistack:TYR:63>  (1) 
pistack:TYR:63    NaN
pistack:TYR:63     -1
Name: 0, dtype: object

>  <pication:TYR:63>  (1) 
pication:TYR:63    NaN
pication:TYR:63     -1
Name: 0, dtype: object

>  <halogenbond:TYR:64>  (1) 
halogenbond:TYR:64    NaN
halogenbond:TYR:64     -1
Name: 0, dtype: object

>  <hbond:TYR:64>  (1) 
hbond:TYR:64    NaN
hbond:TYR:64     -1
Name: 0, dtype: object

>  <hydroph_interaction:TYR:64>  (1) 
hydroph_interaction:TYR:64    NaN
hydroph_interaction:TYR:64     -1
Name: 0, dtype: object

>  <halogenbond:CYS:65>  (1) 
halogenbond:CYS:65    NaN
halogenbond:CYS:65     -1
Name: 0, dtype: object

>  <hbond:CYS:65>  (1) 
hbond:CYS:65    NaN
hbond:CYS:65     -1
Name: 0, dtype: object

>  <hbond:SER:66>  (1) 
hbond:SER:66    NaN
hbond:SER:66     -1
Name: 0, dtype: object

>  <halogenbond:SER:66>  (1) 
halogenbond:SER:66    NaN
halogenbond:SER:66     -1
Name: 0, dtype: object

>  <hbond:SER:67>  (1) 
hbond:SER:67    NaN
hbond:SER:67     -1
Name: 0, dtype: object

>  <halogenbond:SER:67>  (1) 
halogenbond:SER:67    NaN
halogenbond:SER:67     -1
Name: 0, dtype: object

>  <hbond:ARG:68>  (1) 
hbond:ARG:68    NaN
hbond:ARG:68     -1
Name: 0, dtype: object

>  <saltbridge:ARG:68>  (1) 
saltbridge:ARG:68    NaN
saltbridge:ARG:68     -1
Name: 0, dtype: object

>  <hydroph_interaction:ARG:68>  (1) 
hydroph_interaction:ARG:68    NaN
hydroph_interaction:ARG:68     -1
Name: 0, dtype: object

>  <pication:ARG:68>  (1) 
pication:ARG:68    NaN
pication:ARG:68     -1
Name: 0, dtype: object

>  <hydroph_interaction:TYR:72>  (1) 
hydroph_interaction:TYR:72    NaN
hydroph_interaction:TYR:72     -1
Name: 0, dtype: object

>  <hydroph_interaction:VAL:74>  (1) 
hydroph_interaction:VAL:74    NaN
hydroph_interaction:VAL:74     -1
Name: 0, dtype: object

>  <hydroph_interaction:PHE:76>  (1) 
hydroph_interaction:PHE:76    NaN
hydroph_interaction:PHE:76     -1
Name: 0, dtype: object

>  <hbond:SER:77>  (1) 
hbond:SER:77    NaN
hbond:SER:77     -1
Name: 0, dtype: object

>  <hbond:SER:80>  (1) 
hbond:SER:80    NaN
hbond:SER:80     -1
Name: 0, dtype: object

>  <hbond:LEU:81>  (1) 
hbond:LEU:81    NaN
hbond:LEU:81     -1
Name: 0, dtype: object

>  <halogenbond:LEU:81>  (1) 
halogenbond:LEU:81    NaN
halogenbond:LEU:81     -1
Name: 0, dtype: object

>  <hydroph_interaction:LEU:81>  (1) 
hydroph_interaction:LEU:81    NaN
hydroph_interaction:LEU:81     -1
Name: 0, dtype: object

>  <hydroph_interaction:ILE:82>  (1) 
hydroph_interaction:ILE:82    NaN
hydroph_interaction:ILE:82     -1
Name: 0, dtype: object

>  <halogenbond:ILE:82>  (1) 
halogenbond:ILE:82    NaN
halogenbond:ILE:82     -1
Name: 0, dtype: object

>  <hbond:ILE:82>  (1) 
hbond:ILE:82    NaN
hbond:ILE:82     -1
Name: 0, dtype: object

>  <hbond:PHE:83>  (1) 
hbond:PHE:83    NaN
hbond:PHE:83     -1
Name: 0, dtype: object

>  <hydroph_interaction:PHE:83>  (1) 
hydroph_interaction:PHE:83    NaN
hydroph_interaction:PHE:83     -1
Name: 0, dtype: object

>  <halogenbond:PHE:83>  (1) 
halogenbond:PHE:83    NaN
halogenbond:PHE:83     -1
Name: 0, dtype: object

>  <pistack:PHE:83>  (1) 
pistack:PHE:83    NaN
pistack:PHE:83     -1
Name: 0, dtype: object

>  <pication:PHE:83>  (1) 
pication:PHE:83    NaN
pication:PHE:83     -1
Name: 0, dtype: object

>  <hydroph_interaction:VAL:84>  (1) 
hydroph_interaction:VAL:84    0.0
hydroph_interaction:VAL:84      0
Name: 0, dtype: object

>  <halogenbond:VAL:84>  (1) 
halogenbond:VAL:84    NaN
halogenbond:VAL:84     -1
Name: 0, dtype: object

>  <hbond:VAL:84>  (1) 
hbond:VAL:84    NaN
hbond:VAL:84     -1
Name: 0, dtype: object

>  <hydroph_interaction:GLU:85>  (1) 
hydroph_interaction:GLU:85    0.0
hydroph_interaction:GLU:85      0
Name: 0, dtype: object

>  <hbond:GLU:85>  (1) 
hbond:GLU:85    0.0
hbond:GLU:85      0
Name: 0, dtype: object

>  <halogenbond:GLU:85>  (1) 
halogenbond:GLU:85    NaN
halogenbond:GLU:85     -1
Name: 0, dtype: object

>  <saltbridge:GLU:85>  (1) 
saltbridge:GLU:85    0.0
saltbridge:GLU:85      0
Name: 0, dtype: object

>  <halogenbond:ALA:86>  (1) 
halogenbond:ALA:86    0.0
halogenbond:ALA:86      0
Name: 0, dtype: object

>  <hbond:ALA:86>  (1) 
hbond:ALA:86    0.0
hbond:ALA:86      0
Name: 0, dtype: object

>  <hydroph_interaction:ALA:86>  (1) 
hydroph_interaction:ALA:86    NaN
hydroph_interaction:ALA:86     -1
Name: 0, dtype: object

>  <hbond:SER:87>  (1) 
hbond:SER:87    0
hbond:SER:87    0
Name: 0, dtype: object

>  <halogenbond:SER:87>  (1) 
halogenbond:SER:87    NaN
halogenbond:SER:87     -1
Name: 0, dtype: object

>  <hbond:GLU:88>  (1) 
hbond:GLU:88    0.0
hbond:GLU:88      0
Name: 0, dtype: object

>  <hydroph_interaction:GLU:88>  (1) 
hydroph_interaction:GLU:88    0.0
hydroph_interaction:GLU:88      0
Name: 0, dtype: object

>  <halogenbond:GLU:88>  (1) 
halogenbond:GLU:88    0.0
halogenbond:GLU:88      0
Name: 0, dtype: object

>  <saltbridge:GLU:88>  (1) 
saltbridge:GLU:88    NaN
saltbridge:GLU:88     -1
Name: 0, dtype: object

>  <hydroph_interaction:TYR:89>  (1) 
hydroph_interaction:TYR:89    0.0
hydroph_interaction:TYR:89      0
Name: 0, dtype: object

>  <pistack:TYR:89>  (1) 
pistack:TYR:89    NaN
pistack:TYR:89     -1
Name: 0, dtype: object

>  <hbond:TYR:89>  (1) 
hbond:TYR:89    NaN
hbond:TYR:89     -1
Name: 0, dtype: object

>  <halogenbond:TYR:89>  (1) 
halogenbond:TYR:89    NaN
halogenbond:TYR:89     -1
Name: 0, dtype: object

>  <hydroph_interaction:TYR:90>  (1) 
hydroph_interaction:TYR:90    0.0
hydroph_interaction:TYR:90      0
Name: 0, dtype: object

>  <hbond:TYR:90>  (1) 
hbond:TYR:90    0.0
hbond:TYR:90      0
Name: 0, dtype: object

>  <pistack:TYR:90>  (1) 
pistack:TYR:90    NaN
pistack:TYR:90     -1
Name: 0, dtype: object

>  <halogenbond:TYR:90>  (1) 
halogenbond:TYR:90    NaN
halogenbond:TYR:90     -1
Name: 0, dtype: object

>  <pication:TYR:90>  (1) 
pication:TYR:90    NaN
pication:TYR:90     -1
Name: 0, dtype: object

>  <hbond:PRO:91>  (1) 
hbond:PRO:91    NaN
hbond:PRO:91     -1
Name: 0, dtype: object

>  <hydroph_interaction:PRO:91>  (1) 
hydroph_interaction:PRO:91    NaN
hydroph_interaction:PRO:91     -1
Name: 0, dtype: object

>  <halogenbond:PRO:91>  (1) 
halogenbond:PRO:91    NaN
halogenbond:PRO:91     -1
Name: 0, dtype: object

>  <hbond:ALA:92>  (1) 
hbond:ALA:92    NaN
hbond:ALA:92     -1
Name: 0, dtype: object

>  <hydroph_interaction:ALA:92>  (1) 
hydroph_interaction:ALA:92    NaN
hydroph_interaction:ALA:92     -1
Name: 0, dtype: object

>  <saltbridge:ARG:93>  (1) 
saltbridge:ARG:93    NaN
saltbridge:ARG:93     -1
Name: 0, dtype: object

>  <hbond:ARG:93>  (1) 
hbond:ARG:93    NaN
hbond:ARG:93     -1
Name: 0, dtype: object

>  <hydroph_interaction:ARG:93>  (1) 
hydroph_interaction:ARG:93    NaN
hydroph_interaction:ARG:93     -1
Name: 0, dtype: object

>  <halogenbond:ARG:93>  (1) 
halogenbond:ARG:93    NaN
halogenbond:ARG:93     -1
Name: 0, dtype: object

>  <pication:ARG:93>  (1) 
pication:ARG:93    NaN
pication:ARG:93     -1
Name: 0, dtype: object

>  <hydroph_interaction:TYR:94>  (1) 
hydroph_interaction:TYR:94    NaN
hydroph_interaction:TYR:94     -1
Name: 0, dtype: object

>  <pistack:TYR:94>  (1) 
pistack:TYR:94    NaN
pistack:TYR:94     -1
Name: 0, dtype: object

>  <hbond:TYR:94>  (1) 
hbond:TYR:94    NaN
hbond:TYR:94     -1
Name: 0, dtype: object

>  <hbond:GLN:95>  (1) 
hbond:GLN:95    NaN
hbond:GLN:95     -1
Name: 0, dtype: object

>  <hydroph_interaction:GLN:95>  (1) 
hydroph_interaction:GLN:95    NaN
hydroph_interaction:GLN:95     -1
Name: 0, dtype: object

>  <halogenbond:GLN:95>  (1) 
halogenbond:GLN:95    NaN
halogenbond:GLN:95     -1
Name: 0, dtype: object

>  <hbond:SER:96>  (1) 
hbond:SER:96    NaN
hbond:SER:96     -1
Name: 0, dtype: object

>  <halogenbond:HIS:97>  (1) 
halogenbond:HIS:97    NaN
halogenbond:HIS:97     -1
Name: 0, dtype: object

>  <hydroph_interaction:LEU:98>  (1) 
hydroph_interaction:LEU:98    NaN
hydroph_interaction:LEU:98     -1
Name: 0, dtype: object

>  <hbond:LEU:98>  (1) 
hbond:LEU:98    NaN
hbond:LEU:98     -1
Name: 0, dtype: object

>  <halogenbond:LEU:98>  (1) 
halogenbond:LEU:98    NaN
halogenbond:LEU:98     -1
Name: 0, dtype: object

>  <hbond:MET:99>  (1) 
hbond:MET:99    NaN
hbond:MET:99     -1
Name: 0, dtype: object

>  <hydroph_interaction:MET:99>  (1) 
hydroph_interaction:MET:99    NaN
hydroph_interaction:MET:99     -1
Name: 0, dtype: object

>  <halogenbond:MET:99>  (1) 
halogenbond:MET:99    NaN
halogenbond:MET:99     -1
Name: 0, dtype: object

>  <hydroph_interaction:LEU:100>  (1) 
hydroph_interaction:LEU:100    NaN
hydroph_interaction:LEU:100     -1
Name: 0, dtype: object

>  <hbond:LEU:100>  (1) 
hbond:LEU:100    NaN
hbond:LEU:100     -1
Name: 0, dtype: object

>  <hbond:ALA:101>  (1) 
hbond:ALA:101    NaN
hbond:ALA:101     -1
Name: 0, dtype: object

>  <hydroph_interaction:ALA:101>  (1) 
hydroph_interaction:ALA:101    NaN
hydroph_interaction:ALA:101     -1
Name: 0, dtype: object

>  <hydroph_interaction:VAL:102>  (1) 
hydroph_interaction:VAL:102    NaN
hydroph_interaction:VAL:102     -1
Name: 0, dtype: object

>  <hbond:VAL:102>  (1) 
hbond:VAL:102    NaN
hbond:VAL:102     -1
Name: 0, dtype: object

>  <hbond:GLY:103>  (1) 
hbond:GLY:103    NaN
hbond:GLY:103     -1
Name: 0, dtype: object

>  <halogenbond:GLY:103>  (1) 
halogenbond:GLY:103    NaN
halogenbond:GLY:103     -1
Name: 0, dtype: object

>  <hbond:HIS:104>  (1) 
hbond:HIS:104    NaN
hbond:HIS:104     -1
Name: 0, dtype: object

>  <saltbridge:HIS:104>  (1) 
saltbridge:HIS:104    NaN
saltbridge:HIS:104     -1
Name: 0, dtype: object

>  <pication:HIS:104>  (1) 
pication:HIS:104    0.0
pication:HIS:104      0
Name: 0, dtype: object

>  <halogenbond:HIS:104>  (1) 
halogenbond:HIS:104    NaN
halogenbond:HIS:104     -1
Name: 0, dtype: object

>  <hydroph_interaction:HIS:104>  (1) 
hydroph_interaction:HIS:104    NaN
hydroph_interaction:HIS:104     -1
Name: 0, dtype: object

>  <pistack:HIS:104>  (1) 
pistack:HIS:104    NaN
pistack:HIS:104     -1
Name: 0, dtype: object

>  <halogenbond:SER:105>  (1) 
halogenbond:SER:105    0.0
halogenbond:SER:105      0
Name: 0, dtype: object

>  <hbond:SER:105>  (1) 
hbond:SER:105    0.0
hbond:SER:105      0
Name: 0, dtype: object

>  <hbond:GLU:106>  (1) 
hbond:GLU:106    0.0
hbond:GLU:106      0
Name: 0, dtype: object

>  <hydroph_interaction:GLU:106>  (1) 
hydroph_interaction:GLU:106    0.0
hydroph_interaction:GLU:106      0
Name: 0, dtype: object

>  <saltbridge:GLU:106>  (1) 
saltbridge:GLU:106    0.0
saltbridge:GLU:106      0
Name: 0, dtype: object

>  <halogenbond:GLU:106>  (1) 
halogenbond:GLU:106    NaN
halogenbond:GLU:106     -1
Name: 0, dtype: object

>  <hydroph_interaction:PRO:107>  (1) 
hydroph_interaction:PRO:107    2
hydroph_interaction:PRO:107    2
Name: 0, dtype: object

>  <hbond:PRO:107>  (1) 
hbond:PRO:107    0.0
hbond:PRO:107      0
Name: 0, dtype: object

>  <halogenbond:PRO:107>  (1) 
halogenbond:PRO:107    NaN
halogenbond:PRO:107     -1
Name: 0, dtype: object

>  <hbond:GLY:108>  (1) 
hbond:GLY:108    NaN
hbond:GLY:108     -1
Name: 0, dtype: object

>  <halogenbond:GLY:108>  (1) 
halogenbond:GLY:108    NaN
halogenbond:GLY:108     -1
Name: 0, dtype: object

>  <hbond:ASP:109>  (1) 
hbond:ASP:109    0.0
hbond:ASP:109      0
Name: 0, dtype: object

>  <hydroph_interaction:ASP:109>  (1) 
hydroph_interaction:ASP:109    0.0
hydroph_interaction:ASP:109      0
Name: 0, dtype: object

>  <saltbridge:ASP:109>  (1) 
saltbridge:ASP:109    NaN
saltbridge:ASP:109     -1
Name: 0, dtype: object

>  <halogenbond:CYS:110>  (1) 
halogenbond:CYS:110    0.0
halogenbond:CYS:110      0
Name: 0, dtype: object

>  <hbond:CYS:110>  (1) 
hbond:CYS:110    0.0
hbond:CYS:110      0
Name: 0, dtype: object

>  <hbond:GLY:111>  (1) 
hbond:GLY:111    NaN
hbond:GLY:111     -1
Name: 0, dtype: object

>  <hbond:GLY:112>  (1) 
hbond:GLY:112    NaN
hbond:GLY:112     -1
Name: 0, dtype: object

>  <hbond:ILE:113>  (1) 
hbond:ILE:113    NaN
hbond:ILE:113     -1
Name: 0, dtype: object

>  <hydroph_interaction:LEU:114>  (1) 
hydroph_interaction:LEU:114    NaN
hydroph_interaction:LEU:114     -1
Name: 0, dtype: object

>  <hbond:LEU:114>  (1) 
hbond:LEU:114    NaN
hbond:LEU:114     -1
Name: 0, dtype: object

>  <hydroph_interaction:ILE:123>  (1) 
hydroph_interaction:ILE:123    NaN
hydroph_interaction:ILE:123     -1
Name: 0, dtype: object

>  <hbond:ILE:123>  (1) 
hbond:ILE:123    NaN
hbond:ILE:123     -1
Name: 0, dtype: object

>  <hydroph_interaction:VAL:124>  (1) 
hydroph_interaction:VAL:124    0.0
hydroph_interaction:VAL:124      0
Name: 0, dtype: object

>  <hbond:VAL:124>  (1) 
hbond:VAL:124    NaN
hbond:VAL:124     -1
Name: 0, dtype: object

>  <halogenbond:VAL:124>  (1) 
halogenbond:VAL:124    NaN
halogenbond:VAL:124     -1
Name: 0, dtype: object

>  <hbond:SER:125>  (1) 
hbond:SER:125    0
hbond:SER:125    0
Name: 0, dtype: object

>  <halogenbond:SER:125>  (1) 
halogenbond:SER:125    0.0
halogenbond:SER:125      0
Name: 0, dtype: object

>  <hydroph_interaction:THR:126>  (1) 
hydroph_interaction:THR:126    NaN
hydroph_interaction:THR:126     -1
Name: 0, dtype: object

>  <hbond:THR:126>  (1) 
hbond:THR:126    0.0
hbond:THR:126      0
Name: 0, dtype: object

>  <halogenbond:THR:126>  (1) 
halogenbond:THR:126    NaN
halogenbond:THR:126     -1
Name: 0, dtype: object

>  <hbond:GLY:127>  (1) 
hbond:GLY:127    0
hbond:GLY:127    0
Name: 0, dtype: object

>  <halogenbond:GLY:127>  (1) 
halogenbond:GLY:127    NaN
halogenbond:GLY:127     -1
Name: 0, dtype: object

>  <hydroph_interaction:GLY:127>  (1) 
hydroph_interaction:GLY:127    NaN
hydroph_interaction:GLY:127     -1
Name: 0, dtype: object

>  <hbond:GLY:128>  (1) 
hbond:GLY:128    0.0
hbond:GLY:128      0
Name: 0, dtype: object

>  <halogenbond:GLY:128>  (1) 
halogenbond:GLY:128    NaN
halogenbond:GLY:128     -1
Name: 0, dtype: object

>  <hydroph_interaction:GLY:128>  (1) 
hydroph_interaction:GLY:128    NaN
hydroph_interaction:GLY:128     -1
Name: 0, dtype: object

>  <hbond:ASN:129>  (1) 
hbond:ASN:129    0.0
hbond:ASN:129      0
Name: 0, dtype: object

>  <hydroph_interaction:ASN:129>  (1) 
hydroph_interaction:ASN:129    NaN
hydroph_interaction:ASN:129     -1
Name: 0, dtype: object

>  <halogenbond:ASN:129>  (1) 
halogenbond:ASN:129    NaN
halogenbond:ASN:129     -1
Name: 0, dtype: object

>  <hbond:GLY:130>  (1) 
hbond:GLY:130    NaN
hbond:GLY:130     -1
Name: 0, dtype: object

>  <hbond:LEU:131>  (1) 
hbond:LEU:131    NaN
hbond:LEU:131     -1
Name: 0, dtype: object

>  <hydroph_interaction:LEU:131>  (1) 
hydroph_interaction:LEU:131    NaN
hydroph_interaction:LEU:131     -1
Name: 0, dtype: object

>  <halogenbond:LEU:131>  (1) 
halogenbond:LEU:131    NaN
halogenbond:LEU:131     -1
Name: 0, dtype: object

>  <hydroph_interaction:VAL:132>  (1) 
hydroph_interaction:VAL:132    NaN
hydroph_interaction:VAL:132     -1
Name: 0, dtype: object

>  <hbond:VAL:132>  (1) 
hbond:VAL:132    NaN
hbond:VAL:132     -1
Name: 0, dtype: object

>  <hbond:GLY:133>  (1) 
hbond:GLY:133    NaN
hbond:GLY:133     -1
Name: 0, dtype: object

>  <halogenbond:GLY:133>  (1) 
halogenbond:GLY:133    NaN
halogenbond:GLY:133     -1
Name: 0, dtype: object

>  <hydroph_interaction:PHE:134>  (1) 
hydroph_interaction:PHE:134    NaN
hydroph_interaction:PHE:134     -1
Name: 0, dtype: object

>  <hbond:PHE:134>  (1) 
hbond:PHE:134    NaN
hbond:PHE:134     -1
Name: 0, dtype: object

>  <pistack:PHE:134>  (1) 
pistack:PHE:134    NaN
pistack:PHE:134     -1
Name: 0, dtype: object

>  <pication:PHE:134>  (1) 
pication:PHE:134    NaN
pication:PHE:134     -1
Name: 0, dtype: object

>  <halogenbond:PHE:134>  (1) 
halogenbond:PHE:134    NaN
halogenbond:PHE:134     -1
Name: 0, dtype: object

>  <hydroph_interaction:ALA:135>  (1) 
hydroph_interaction:ALA:135    NaN
hydroph_interaction:ALA:135     -1
Name: 0, dtype: object

>  <hbond:ALA:135>  (1) 
hbond:ALA:135    NaN
hbond:ALA:135     -1
Name: 0, dtype: object

$$$$
Z371574830
     RDKit          3D

 32 32  0  0  0  0  0  0  0  0999 V2000
   13.0120   15.0370   23.3460 C   0  0  0  0  0  0  0  0  0  0  0  0
   12.2540   13.8230   22.8290 C   0  0  0  0  0  0  0  0  0  0  0  0
   10.9380   14.1860   22.3420 N   0  0  0  0  0  0  0  0  0  0  0  0
    9.8660   14.1030   23.3270 C   0  0  0  0  0  0  0  0  0  0  0  0
    9.4380   12.7220   23.6540 C   0  0  0  0  0  0  0  0  0  0  0  0
    8.3700   12.4740   24.6700 C   0  0  0  0  0  0  0  0  0  0  0  0
    8.0070   11.1550   24.9370 C   0  0  0  0  0  0  0  0  0  0  0  0
    8.6320   10.1150   24.2630 C   0  0  0  0  0  0  0  0  0  0  0  0
    9.6270   10.3600   23.3140 C   0  0  0  0  0  0  0  0  0  0  0  0
   10.2910    9.2490   22.5860 C   0  0  0  0  0  0  0  0  0  0  0  0
   10.0220   11.6500   23.0190 C   0  0  0  0  0  0  0  0  0  0  0  0
   10.9380   15.2090   21.4240 C   0  0  0  0  0  0  0  0  0  0  0  0
   10.1470   15.3230   20.5000 O   0  0  0  0  0  0  0  0  0  0  0  0
   11.8950   16.1400   21.6880 O   0  0  0  0  0  0  0  0  0  0  0  0
   12.8260   16.3910   20.6400 C   0  0  0  0  0  0  0  0  0  0  0  0
   13.6530   15.4650   22.5720 H   0  0  0  0  0  0  0  0  0  0  0  0
   13.6600   14.7550   24.1840 H   0  0  0  0  0  0  0  0  0  0  0  0
   12.3310   15.8160   23.7040 H   0  0  0  0  0  0  0  0  0  0  0  0
   12.1780   13.0950   23.6500 H   0  0  0  0  0  0  0  0  0  0  0  0
   12.8210   13.3600   22.0180 H   0  0  0  0  0  0  0  0  0  0  0  0
    9.0100   14.6520   22.9240 H   0  0  0  0  0  0  0  0  0  0  0  0
   10.1410   14.5940   24.2650 H   0  0  0  0  0  0  0  0  0  0  0  0
    7.8830   13.2910   25.1940 H   0  0  0  0  0  0  0  0  0  0  0  0
    7.2330   10.9440   25.6730 H   0  0  0  0  0  0  0  0  0  0  0  0
    8.3360    9.0980   24.4810 H   0  0  0  0  0  0  0  0  0  0  0  0
   10.9390    9.6550   21.8150 H   0  0  0  0  0  0  0  0  0  0  0  0
   10.8820    8.6170   23.2560 H   0  0  0  0  0  0  0  0  0  0  0  0
    9.5480    8.6230   22.0930 H   0  0  0  0  0  0  0  0  0  0  0  0
   10.7990   11.8200   22.2780 H   0  0  0  0  0  0  0  0  0  0  0  0
   13.8240   16.0470   20.9090 H   0  0  0  0  0  0  0  0  0  0  0  0
   12.5050   15.8500   19.7440 H   0  0  0  0  0  0  0  0  0  0  0  0
   12.9040   17.4600   20.4360 H   0  0  0  0  0  0  0  0  0  0  0  0
  1  2  1  0
  2  3  1  0
  3  4  1  0
  4  5  1  0
  5  6  2  0
  6  7  1  0
  7  8  2  0
  8  9  1  0
  9 10  1  0
  9 11  2  0
  3 12  1  0
 12 13  2  0
 12 14  1  0
 14 15  1  0
 11  5  1  0
  1 16  1  0
  1 17  1  0
  1 18  1  0
  2 19  1  0
  2 20  1  0
  4 21  1  0
  4 22  1  0
  6 23  1  0
  7 24  1  0
  8 25  1  0
 10 26  1  0
 10 27  1  0
 10 28  1  0
 11 29  1  0
 15 30  1  0
 15 31  1  0
 15 32  1  0
A    1
 C1 
A    2
 C2 
A    3
 N1 
A    4
 C3 
A    5
 C4 
A    6
 C5 
A    7
 C6 
A    8
 C7 
A    9
 C8 
A   10
 C9 
A   11
 C10
A   12
 C11
A   13
 O1 
A   14
 O2 
A   15
 C12
A   16
 H1 
A   17
 H2 
A   18
 H3 
A   19
 H4 
A   20
 H5 
A   21
 H6 
A   22
 H7 
A   23
 H8 
A   24
 H9 
A   25
 H10
A   26
 H11
A   27
 H12
A   28
 H13
A   29
 H14
A   30
 H15
A   31
 H16
A   32
 H17
M  END
>  <ref_pdb>  (2) 
x0310_0A

>  <ref_mols>  (2) 
x0416_0A,x0528_0A

>  <original SMILES>  (2) 
CCN(Cc1cccc(C)c1)C(=O)OC

>  <rationale>  (2) 
info halogenbond:C110+G127+D39+A86+E85+Q95+E88+T126+P107+H104+Y64+C65+S87+N129+F83+R93+L131+I82+G128+P91+N19+H21+V84+G133+Y90+Y89+H97+L81+F134+L98+R20+G103+S66+S67+S7+G108+R38+V124+M99+S36; hbond:S87+P107+A86+C110+D109+E85+G108+G103+G128+G130+L131+N129+N19+H104+R68+R93+P91+F83+S67+S7+S66+G112+V132+R20+Y89+S77+A135+Y63+A92+A101+M99+F134+L100+I82+Y64+S36+L98+V84+L81+Y94+S80+R38+S37+V102+G8+I123+G111+I113+L114+C65+L22+S96; hydroph_interaction:V124+Y89+P107+L22+E106+N129+L40+I123+A135+Q95+I82+L100+L98+L131+F83+R93+V132+Y63+F134+H104+A86+V74+P91+A101+F76+M99+L114+A92+Y94+R68+Y72+Y64+V18+V102+W28+G127+G128+L81; pication:H104+R93+Y63+F134+Y90+R68+F83+R20; pistack:Y89+Y90+H104+F134+Y63+F83+Y94; saltbridge:R93+H104+E106+D109+E85+R68+R20; 

>  <intxn_cluster>  (2) 
-1

>  <intxn_cluster_rank>  (2) 
-1

>  <N_interactions>  (2) 
4

>  <∆∆G>  (2) 
-12.69098

>  <$/mg>  (2) 
0.0

>  <comRMSD>  (2) 
0.632013

>  <N_rotatable_bonds>  (2) 
6

>  <deep_P1_sidechain>  (2) 
nan

>  <farthest_distance_to_substrate>  (2) 
2.164935

>  <hbond:SER:7>  (2) 
hbond:SER:7    NaN
hbond:SER:7     -1
Name: 1, dtype: object

>  <halogenbond:SER:7>  (2) 
halogenbond:SER:7    NaN
halogenbond:SER:7     -1
Name: 1, dtype: object

>  <hbond:GLY:8>  (2) 
hbond:GLY:8    NaN
hbond:GLY:8     -1
Name: 1, dtype: object

>  <hydroph_interaction:VAL:18>  (2) 
hydroph_interaction:VAL:18    NaN
hydroph_interaction:VAL:18     -1
Name: 1, dtype: object

>  <hbond:ASN:19>  (2) 
hbond:ASN:19    NaN
hbond:ASN:19     -1
Name: 1, dtype: object

>  <hydroph_interaction:ASN:19>  (2) 
hydroph_interaction:ASN:19    0.0
hydroph_interaction:ASN:19      0
Name: 1, dtype: object

>  <halogenbond:ASN:19>  (2) 
halogenbond:ASN:19    NaN
halogenbond:ASN:19     -1
Name: 1, dtype: object

>  <hbond:ARG:20>  (2) 
hbond:ARG:20    NaN
hbond:ARG:20     -1
Name: 1, dtype: object

>  <hydroph_interaction:ARG:20>  (2) 
hydroph_interaction:ARG:20    0.0
hydroph_interaction:ARG:20      0
Name: 1, dtype: object

>  <saltbridge:ARG:20>  (2) 
saltbridge:ARG:20    NaN
saltbridge:ARG:20     -1
Name: 1, dtype: object

>  <halogenbond:ARG:20>  (2) 
halogenbond:ARG:20    NaN
halogenbond:ARG:20     -1
Name: 1, dtype: object

>  <pication:ARG:20>  (2) 
pication:ARG:20    NaN
pication:ARG:20     -1
Name: 1, dtype: object

>  <hbond:HIS:21>  (2) 
hbond:HIS:21    0.0
hbond:HIS:21      0
Name: 1, dtype: object

>  <hydroph_interaction:HIS:21>  (2) 
hydroph_interaction:HIS:21    0.0
hydroph_interaction:HIS:21      0
Name: 1, dtype: object

>  <pistack:HIS:21>  (2) 
pistack:HIS:21    0.0
pistack:HIS:21      0
Name: 1, dtype: object

>  <pication:HIS:21>  (2) 
pication:HIS:21    0.0
pication:HIS:21      0
Name: 1, dtype: object

>  <saltbridge:HIS:21>  (2) 
saltbridge:HIS:21    0.0
saltbridge:HIS:21      0
Name: 1, dtype: object

>  <halogenbond:HIS:21>  (2) 
halogenbond:HIS:21    NaN
halogenbond:HIS:21     -1
Name: 1, dtype: object

>  <hydroph_interaction:LEU:22>  (2) 
hydroph_interaction:LEU:22    NaN
hydroph_interaction:LEU:22     -1
Name: 1, dtype: object

>  <hbond:LEU:22>  (2) 
hbond:LEU:22    NaN
hbond:LEU:22     -1
Name: 1, dtype: object

>  <hydroph_interaction:TRP:28>  (2) 
hydroph_interaction:TRP:28    NaN
hydroph_interaction:TRP:28     -1
Name: 1, dtype: object

>  <hbond:SER:36>  (2) 
hbond:SER:36    NaN
hbond:SER:36     -1
Name: 1, dtype: object

>  <halogenbond:SER:36>  (2) 
halogenbond:SER:36    NaN
halogenbond:SER:36     -1
Name: 1, dtype: object

>  <hbond:SER:37>  (2) 
hbond:SER:37    NaN
hbond:SER:37     -1
Name: 1, dtype: object

>  <hbond:ARG:38>  (2) 
hbond:ARG:38    NaN
hbond:ARG:38     -1
Name: 1, dtype: object

>  <halogenbond:ARG:38>  (2) 
halogenbond:ARG:38    NaN
halogenbond:ARG:38     -1
Name: 1, dtype: object

>  <saltbridge:ASP:39>  (2) 
saltbridge:ASP:39    0.0
saltbridge:ASP:39      0
Name: 1, dtype: object

>  <halogenbond:ASP:39>  (2) 
halogenbond:ASP:39    NaN
halogenbond:ASP:39     -1
Name: 1, dtype: object

>  <hbond:ASP:39>  (2) 
hbond:ASP:39    0.0
hbond:ASP:39      0
Name: 1, dtype: object

>  <hydroph_interaction:ASP:39>  (2) 
hydroph_interaction:ASP:39    0.0
hydroph_interaction:ASP:39      0
Name: 1, dtype: object

>  <hydroph_interaction:LEU:40>  (2) 
hydroph_interaction:LEU:40    NaN
hydroph_interaction:LEU:40     -1
Name: 1, dtype: object

>  <hydroph_interaction:TYR:63>  (2) 
hydroph_interaction:TYR:63    NaN
hydroph_interaction:TYR:63     -1
Name: 1, dtype: object

>  <hbond:TYR:63>  (2) 
hbond:TYR:63    NaN
hbond:TYR:63     -1
Name: 1, dtype: object

>  <pistack:TYR:63>  (2) 
pistack:TYR:63    NaN
pistack:TYR:63     -1
Name: 1, dtype: object

>  <pication:TYR:63>  (2) 
pication:TYR:63    NaN
pication:TYR:63     -1
Name: 1, dtype: object

>  <halogenbond:TYR:64>  (2) 
halogenbond:TYR:64    NaN
halogenbond:TYR:64     -1
Name: 1, dtype: object

>  <hbond:TYR:64>  (2) 
hbond:TYR:64    NaN
hbond:TYR:64     -1
Name: 1, dtype: object

>  <hydroph_interaction:TYR:64>  (2) 
hydroph_interaction:TYR:64    NaN
hydroph_interaction:TYR:64     -1
Name: 1, dtype: object

>  <halogenbond:CYS:65>  (2) 
halogenbond:CYS:65    NaN
halogenbond:CYS:65     -1
Name: 1, dtype: object

>  <hbond:CYS:65>  (2) 
hbond:CYS:65    NaN
hbond:CYS:65     -1
Name: 1, dtype: object

>  <hbond:SER:66>  (2) 
hbond:SER:66    NaN
hbond:SER:66     -1
Name: 1, dtype: object

>  <halogenbond:SER:66>  (2) 
halogenbond:SER:66    NaN
halogenbond:SER:66     -1
Name: 1, dtype: object

>  <hbond:SER:67>  (2) 
hbond:SER:67    NaN
hbond:SER:67     -1
Name: 1, dtype: object

>  <halogenbond:SER:67>  (2) 
halogenbond:SER:67    NaN
halogenbond:SER:67     -1
Name: 1, dtype: object

>  <hbond:ARG:68>  (2) 
hbond:ARG:68    NaN
hbond:ARG:68     -1
Name: 1, dtype: object

>  <saltbridge:ARG:68>  (2) 
saltbridge:ARG:68    NaN
saltbridge:ARG:68     -1
Name: 1, dtype: object

>  <hydroph_interaction:ARG:68>  (2) 
hydroph_interaction:ARG:68    NaN
hydroph_interaction:ARG:68     -1
Name: 1, dtype: object

>  <pication:ARG:68>  (2) 
pication:ARG:68    NaN
pication:ARG:68     -1
Name: 1, dtype: object

>  <hydroph_interaction:TYR:72>  (2) 
hydroph_interaction:TYR:72    NaN
hydroph_interaction:TYR:72     -1
Name: 1, dtype: object

>  <hydroph_interaction:VAL:74>  (2) 
hydroph_interaction:VAL:74    NaN
hydroph_interaction:VAL:74     -1
Name: 1, dtype: object

>  <hydroph_interaction:PHE:76>  (2) 
hydroph_interaction:PHE:76    NaN
hydroph_interaction:PHE:76     -1
Name: 1, dtype: object

>  <hbond:SER:77>  (2) 
hbond:SER:77    NaN
hbond:SER:77     -1
Name: 1, dtype: object

>  <hbond:SER:80>  (2) 
hbond:SER:80    NaN
hbond:SER:80     -1
Name: 1, dtype: object

>  <hbond:LEU:81>  (2) 
hbond:LEU:81    NaN
hbond:LEU:81     -1
Name: 1, dtype: object

>  <halogenbond:LEU:81>  (2) 
halogenbond:LEU:81    NaN
halogenbond:LEU:81     -1
Name: 1, dtype: object

>  <hydroph_interaction:LEU:81>  (2) 
hydroph_interaction:LEU:81    NaN
hydroph_interaction:LEU:81     -1
Name: 1, dtype: object

>  <hydroph_interaction:ILE:82>  (2) 
hydroph_interaction:ILE:82    NaN
hydroph_interaction:ILE:82     -1
Name: 1, dtype: object

>  <halogenbond:ILE:82>  (2) 
halogenbond:ILE:82    NaN
halogenbond:ILE:82     -1
Name: 1, dtype: object

>  <hbond:ILE:82>  (2) 
hbond:ILE:82    NaN
hbond:ILE:82     -1
Name: 1, dtype: object

>  <hbond:PHE:83>  (2) 
hbond:PHE:83    NaN
hbond:PHE:83     -1
Name: 1, dtype: object

>  <hydroph_interaction:PHE:83>  (2) 
hydroph_interaction:PHE:83    NaN
hydroph_interaction:PHE:83     -1
Name: 1, dtype: object

>  <halogenbond:PHE:83>  (2) 
halogenbond:PHE:83    NaN
halogenbond:PHE:83     -1
Name: 1, dtype: object

>  <pistack:PHE:83>  (2) 
pistack:PHE:83    NaN
pistack:PHE:83     -1
Name: 1, dtype: object

>  <pication:PHE:83>  (2) 
pication:PHE:83    NaN
pication:PHE:83     -1
Name: 1, dtype: object

>  <hydroph_interaction:VAL:84>  (2) 
hydroph_interaction:VAL:84    0.0
hydroph_interaction:VAL:84      0
Name: 1, dtype: object

>  <halogenbond:VAL:84>  (2) 
halogenbond:VAL:84    NaN
halogenbond:VAL:84     -1
Name: 1, dtype: object

>  <hbond:VAL:84>  (2) 
hbond:VAL:84    NaN
hbond:VAL:84     -1
Name: 1, dtype: object

>  <hydroph_interaction:GLU:85>  (2) 
hydroph_interaction:GLU:85    0.0
hydroph_interaction:GLU:85      0
Name: 1, dtype: object

>  <hbond:GLU:85>  (2) 
hbond:GLU:85    NaN
hbond:GLU:85     -1
Name: 1, dtype: object

>  <halogenbond:GLU:85>  (2) 
halogenbond:GLU:85    NaN
halogenbond:GLU:85     -1
Name: 1, dtype: object

>  <saltbridge:GLU:85>  (2) 
saltbridge:GLU:85    NaN
saltbridge:GLU:85     -1
Name: 1, dtype: object

>  <halogenbond:ALA:86>  (2) 
halogenbond:ALA:86    NaN
halogenbond:ALA:86     -1
Name: 1, dtype: object

>  <hbond:ALA:86>  (2) 
hbond:ALA:86    NaN
hbond:ALA:86     -1
Name: 1, dtype: object

>  <hydroph_interaction:ALA:86>  (2) 
hydroph_interaction:ALA:86    NaN
hydroph_interaction:ALA:86     -1
Name: 1, dtype: object

>  <hbond:SER:87>  (2) 
hbond:SER:87    1
hbond:SER:87    1
Name: 1, dtype: object

>  <halogenbond:SER:87>  (2) 
halogenbond:SER:87    NaN
halogenbond:SER:87     -1
Name: 1, dtype: object

>  <hbond:GLU:88>  (2) 
hbond:GLU:88    0.0
hbond:GLU:88      0
Name: 1, dtype: object

>  <hydroph_interaction:GLU:88>  (2) 
hydroph_interaction:GLU:88    0.0
hydroph_interaction:GLU:88      0
Name: 1, dtype: object

>  <halogenbond:GLU:88>  (2) 
halogenbond:GLU:88    NaN
halogenbond:GLU:88     -1
Name: 1, dtype: object

>  <saltbridge:GLU:88>  (2) 
saltbridge:GLU:88    0.0
saltbridge:GLU:88      0
Name: 1, dtype: object

>  <hydroph_interaction:TYR:89>  (2) 
hydroph_interaction:TYR:89    1.0
hydroph_interaction:TYR:89      1
Name: 1, dtype: object

>  <pistack:TYR:89>  (2) 
pistack:TYR:89    NaN
pistack:TYR:89     -1
Name: 1, dtype: object

>  <hbond:TYR:89>  (2) 
hbond:TYR:89    NaN
hbond:TYR:89     -1
Name: 1, dtype: object

>  <halogenbond:TYR:89>  (2) 
halogenbond:TYR:89    NaN
halogenbond:TYR:89     -1
Name: 1, dtype: object

>  <hydroph_interaction:TYR:90>  (2) 
hydroph_interaction:TYR:90    0.0
hydroph_interaction:TYR:90      0
Name: 1, dtype: object

>  <hbond:TYR:90>  (2) 
hbond:TYR:90    0.0
hbond:TYR:90      0
Name: 1, dtype: object

>  <pistack:TYR:90>  (2) 
pistack:TYR:90    NaN
pistack:TYR:90     -1
Name: 1, dtype: object

>  <halogenbond:TYR:90>  (2) 
halogenbond:TYR:90    NaN
halogenbond:TYR:90     -1
Name: 1, dtype: object

>  <pication:TYR:90>  (2) 
pication:TYR:90    NaN
pication:TYR:90     -1
Name: 1, dtype: object

>  <hbond:PRO:91>  (2) 
hbond:PRO:91    NaN
hbond:PRO:91     -1
Name: 1, dtype: object

>  <hydroph_interaction:PRO:91>  (2) 
hydroph_interaction:PRO:91    NaN
hydroph_interaction:PRO:91     -1
Name: 1, dtype: object

>  <halogenbond:PRO:91>  (2) 
halogenbond:PRO:91    NaN
halogenbond:PRO:91     -1
Name: 1, dtype: object

>  <hbond:ALA:92>  (2) 
hbond:ALA:92    NaN
hbond:ALA:92     -1
Name: 1, dtype: object

>  <hydroph_interaction:ALA:92>  (2) 
hydroph_interaction:ALA:92    NaN
hydroph_interaction:ALA:92     -1
Name: 1, dtype: object

>  <saltbridge:ARG:93>  (2) 
saltbridge:ARG:93    NaN
saltbridge:ARG:93     -1
Name: 1, dtype: object

>  <hbond:ARG:93>  (2) 
hbond:ARG:93    NaN
hbond:ARG:93     -1
Name: 1, dtype: object

>  <hydroph_interaction:ARG:93>  (2) 
hydroph_interaction:ARG:93    NaN
hydroph_interaction:ARG:93     -1
Name: 1, dtype: object

>  <halogenbond:ARG:93>  (2) 
halogenbond:ARG:93    NaN
halogenbond:ARG:93     -1
Name: 1, dtype: object

>  <pication:ARG:93>  (2) 
pication:ARG:93    NaN
pication:ARG:93     -1
Name: 1, dtype: object

>  <hydroph_interaction:TYR:94>  (2) 
hydroph_interaction:TYR:94    NaN
hydroph_interaction:TYR:94     -1
Name: 1, dtype: object

>  <pistack:TYR:94>  (2) 
pistack:TYR:94    NaN
pistack:TYR:94     -1
Name: 1, dtype: object

>  <hbond:TYR:94>  (2) 
hbond:TYR:94    NaN
hbond:TYR:94     -1
Name: 1, dtype: object

>  <hbond:GLN:95>  (2) 
hbond:GLN:95    0.0
hbond:GLN:95      0
Name: 1, dtype: object

>  <hydroph_interaction:GLN:95>  (2) 
hydroph_interaction:GLN:95    NaN
hydroph_interaction:GLN:95     -1
Name: 1, dtype: object

>  <halogenbond:GLN:95>  (2) 
halogenbond:GLN:95    NaN
halogenbond:GLN:95     -1
Name: 1, dtype: object

>  <hbond:SER:96>  (2) 
hbond:SER:96    NaN
hbond:SER:96     -1
Name: 1, dtype: object

>  <halogenbond:HIS:97>  (2) 
halogenbond:HIS:97    NaN
halogenbond:HIS:97     -1
Name: 1, dtype: object

>  <hydroph_interaction:LEU:98>  (2) 
hydroph_interaction:LEU:98    NaN
hydroph_interaction:LEU:98     -1
Name: 1, dtype: object

>  <hbond:LEU:98>  (2) 
hbond:LEU:98    NaN
hbond:LEU:98     -1
Name: 1, dtype: object

>  <halogenbond:LEU:98>  (2) 
halogenbond:LEU:98    NaN
halogenbond:LEU:98     -1
Name: 1, dtype: object

>  <hbond:MET:99>  (2) 
hbond:MET:99    NaN
hbond:MET:99     -1
Name: 1, dtype: object

>  <hydroph_interaction:MET:99>  (2) 
hydroph_interaction:MET:99    NaN
hydroph_interaction:MET:99     -1
Name: 1, dtype: object

>  <halogenbond:MET:99>  (2) 
halogenbond:MET:99    NaN
halogenbond:MET:99     -1
Name: 1, dtype: object

>  <hydroph_interaction:LEU:100>  (2) 
hydroph_interaction:LEU:100    NaN
hydroph_interaction:LEU:100     -1
Name: 1, dtype: object

>  <hbond:LEU:100>  (2) 
hbond:LEU:100    NaN
hbond:LEU:100     -1
Name: 1, dtype: object

>  <hbond:ALA:101>  (2) 
hbond:ALA:101    NaN
hbond:ALA:101     -1
Name: 1, dtype: object

>  <hydroph_interaction:ALA:101>  (2) 
hydroph_interaction:ALA:101    NaN
hydroph_interaction:ALA:101     -1
Name: 1, dtype: object

>  <hydroph_interaction:VAL:102>  (2) 
hydroph_interaction:VAL:102    NaN
hydroph_interaction:VAL:102     -1
Name: 1, dtype: object

>  <hbond:VAL:102>  (2) 
hbond:VAL:102    NaN
hbond:VAL:102     -1
Name: 1, dtype: object

>  <hbond:GLY:103>  (2) 
hbond:GLY:103    NaN
hbond:GLY:103     -1
Name: 1, dtype: object

>  <halogenbond:GLY:103>  (2) 
halogenbond:GLY:103    NaN
halogenbond:GLY:103     -1
Name: 1, dtype: object

>  <hbond:HIS:104>  (2) 
hbond:HIS:104    NaN
hbond:HIS:104     -1
Name: 1, dtype: object

>  <saltbridge:HIS:104>  (2) 
saltbridge:HIS:104    NaN
saltbridge:HIS:104     -1
Name: 1, dtype: object

>  <pication:HIS:104>  (2) 
pication:HIS:104    NaN
pication:HIS:104     -1
Name: 1, dtype: object

>  <halogenbond:HIS:104>  (2) 
halogenbond:HIS:104    NaN
halogenbond:HIS:104     -1
Name: 1, dtype: object

>  <hydroph_interaction:HIS:104>  (2) 
hydroph_interaction:HIS:104    NaN
hydroph_interaction:HIS:104     -1
Name: 1, dtype: object

>  <pistack:HIS:104>  (2) 
pistack:HIS:104    NaN
pistack:HIS:104     -1
Name: 1, dtype: object

>  <halogenbond:SER:105>  (2) 
halogenbond:SER:105    0.0
halogenbond:SER:105      0
Name: 1, dtype: object

>  <hbond:SER:105>  (2) 
hbond:SER:105    0.0
hbond:SER:105      0
Name: 1, dtype: object

>  <hbond:GLU:106>  (2) 
hbond:GLU:106    0.0
hbond:GLU:106      0
Name: 1, dtype: object

>  <hydroph_interaction:GLU:106>  (2) 
hydroph_interaction:GLU:106    NaN
hydroph_interaction:GLU:106     -1
Name: 1, dtype: object

>  <saltbridge:GLU:106>  (2) 
saltbridge:GLU:106    NaN
saltbridge:GLU:106     -1
Name: 1, dtype: object

>  <halogenbond:GLU:106>  (2) 
halogenbond:GLU:106    0.0
halogenbond:GLU:106      0
Name: 1, dtype: object

>  <hydroph_interaction:PRO:107>  (2) 
hydroph_interaction:PRO:107    1
hydroph_interaction:PRO:107    1
Name: 1, dtype: object

>  <hbond:PRO:107>  (2) 
hbond:PRO:107    NaN
hbond:PRO:107     -1
Name: 1, dtype: object

>  <halogenbond:PRO:107>  (2) 
halogenbond:PRO:107    NaN
halogenbond:PRO:107     -1
Name: 1, dtype: object

>  <hbond:GLY:108>  (2) 
hbond:GLY:108    NaN
hbond:GLY:108     -1
Name: 1, dtype: object

>  <halogenbond:GLY:108>  (2) 
halogenbond:GLY:108    NaN
halogenbond:GLY:108     -1
Name: 1, dtype: object

>  <hbond:ASP:109>  (2) 
hbond:ASP:109    NaN
hbond:ASP:109     -1
Name: 1, dtype: object

>  <hydroph_interaction:ASP:109>  (2) 
hydroph_interaction:ASP:109    0.0
hydroph_interaction:ASP:109      0
Name: 1, dtype: object

>  <saltbridge:ASP:109>  (2) 
saltbridge:ASP:109    NaN
saltbridge:ASP:109     -1
Name: 1, dtype: object

>  <halogenbond:CYS:110>  (2) 
halogenbond:CYS:110    NaN
halogenbond:CYS:110     -1
Name: 1, dtype: object

>  <hbond:CYS:110>  (2) 
hbond:CYS:110    NaN
hbond:CYS:110     -1
Name: 1, dtype: object

>  <hbond:GLY:111>  (2) 
hbond:GLY:111    NaN
hbond:GLY:111     -1
Name: 1, dtype: object

>  <hbond:GLY:112>  (2) 
hbond:GLY:112    NaN
hbond:GLY:112     -1
Name: 1, dtype: object

>  <hbond:ILE:113>  (2) 
hbond:ILE:113    NaN
hbond:ILE:113     -1
Name: 1, dtype: object

>  <hydroph_interaction:LEU:114>  (2) 
hydroph_interaction:LEU:114    NaN
hydroph_interaction:LEU:114     -1
Name: 1, dtype: object

>  <hbond:LEU:114>  (2) 
hbond:LEU:114    NaN
hbond:LEU:114     -1
Name: 1, dtype: object

>  <hydroph_interaction:ILE:123>  (2) 
hydroph_interaction:ILE:123    NaN
hydroph_interaction:ILE:123     -1
Name: 1, dtype: object

>  <hbond:ILE:123>  (2) 
hbond:ILE:123    NaN
hbond:ILE:123     -1
Name: 1, dtype: object

>  <hydroph_interaction:VAL:124>  (2) 
hydroph_interaction:VAL:124    1.0
hydroph_interaction:VAL:124      1
Name: 1, dtype: object

>  <hbond:VAL:124>  (2) 
hbond:VAL:124    0.0
hbond:VAL:124      0
Name: 1, dtype: object

>  <halogenbond:VAL:124>  (2) 
halogenbond:VAL:124    NaN
halogenbond:VAL:124     -1
Name: 1, dtype: object

>  <hbond:SER:125>  (2) 
hbond:SER:125    0
hbond:SER:125    0
Name: 1, dtype: object

>  <halogenbond:SER:125>  (2) 
halogenbond:SER:125    0.0
halogenbond:SER:125      0
Name: 1, dtype: object

>  <hydroph_interaction:THR:126>  (2) 
hydroph_interaction:THR:126    0.0
hydroph_interaction:THR:126      0
Name: 1, dtype: object

>  <hbond:THR:126>  (2) 
hbond:THR:126    0.0
hbond:THR:126      0
Name: 1, dtype: object

>  <halogenbond:THR:126>  (2) 
halogenbond:THR:126    NaN
halogenbond:THR:126     -1
Name: 1, dtype: object

>  <hbond:GLY:127>  (2) 
hbond:GLY:127    0
hbond:GLY:127    0
Name: 1, dtype: object

>  <halogenbond:GLY:127>  (2) 
halogenbond:GLY:127    NaN
halogenbond:GLY:127     -1
Name: 1, dtype: object

>  <hydroph_interaction:GLY:127>  (2) 
hydroph_interaction:GLY:127    NaN
hydroph_interaction:GLY:127     -1
Name: 1, dtype: object

>  <hbond:GLY:128>  (2) 
hbond:GLY:128    NaN
hbond:GLY:128     -1
Name: 1, dtype: object

>  <halogenbond:GLY:128>  (2) 
halogenbond:GLY:128    NaN
halogenbond:GLY:128     -1
Name: 1, dtype: object

>  <hydroph_interaction:GLY:128>  (2) 
hydroph_interaction:GLY:128    NaN
hydroph_interaction:GLY:128     -1
Name: 1, dtype: object

>  <hbond:ASN:129>  (2) 
hbond:ASN:129    NaN
hbond:ASN:129     -1
Name: 1, dtype: object

>  <hydroph_interaction:ASN:129>  (2) 
hydroph_interaction:ASN:129    NaN
hydroph_interaction:ASN:129     -1
Name: 1, dtype: object

>  <halogenbond:ASN:129>  (2) 
halogenbond:ASN:129    NaN
halogenbond:ASN:129     -1
Name: 1, dtype: object

>  <hbond:GLY:130>  (2) 
hbond:GLY:130    NaN
hbond:GLY:130     -1
Name: 1, dtype: object

>  <hbond:LEU:131>  (2) 
hbond:LEU:131    NaN
hbond:LEU:131     -1
Name: 1, dtype: object

>  <hydroph_interaction:LEU:131>  (2) 
hydroph_interaction:LEU:131    NaN
hydroph_interaction:LEU:131     -1
Name: 1, dtype: object

>  <halogenbond:LEU:131>  (2) 
halogenbond:LEU:131    NaN
halogenbond:LEU:131     -1
Name: 1, dtype: object

>  <hydroph_interaction:VAL:132>  (2) 
hydroph_interaction:VAL:132    NaN
hydroph_interaction:VAL:132     -1
Name: 1, dtype: object

>  <hbond:VAL:132>  (2) 
hbond:VAL:132    NaN
hbond:VAL:132     -1
Name: 1, dtype: object

>  <hbond:GLY:133>  (2) 
hbond:GLY:133    0.0
hbond:GLY:133      0
Name: 1, dtype: object

>  <halogenbond:GLY:133>  (2) 
halogenbond:GLY:133    NaN
halogenbond:GLY:133     -1
Name: 1, dtype: object

>  <hydroph_interaction:PHE:134>  (2) 
hydroph_interaction:PHE:134    NaN
hydroph_interaction:PHE:134     -1
Name: 1, dtype: object

>  <hbond:PHE:134>  (2) 
hbond:PHE:134    NaN
hbond:PHE:134     -1
Name: 1, dtype: object

>  <pistack:PHE:134>  (2) 
pistack:PHE:134    NaN
pistack:PHE:134     -1
Name: 1, dtype: object

>  <pication:PHE:134>  (2) 
pication:PHE:134    NaN
pication:PHE:134     -1
Name: 1, dtype: object

>  <halogenbond:PHE:134>  (2) 
halogenbond:PHE:134    NaN
halogenbond:PHE:134     -1
Name: 1, dtype: object

>  <hydroph_interaction:ALA:135>  (2) 
hydroph_interaction:ALA:135    NaN
hydroph_interaction:ALA:135     -1
Name: 1, dtype: object

>  <hbond:ALA:135>  (2) 
hbond:ALA:135    NaN
hbond:ALA:135     -1
Name: 1, dtype: object

$$$$
Z1518323573
     RDKit          3D

 31 32  0  0  0  0  0  0  0  0999 V2000
    6.6740   11.5840   25.6930 C   0  0  0  0  0  0  0  0  0  0  0  0
    7.9220   12.0290   25.0080 C   0  0  0  0  0  0  0  0  0  0  0  0
    8.4000   13.2960   25.2210 C   0  0  0  0  0  0  0  0  0  0  0  0
    9.5770   13.7160   24.6150 C   0  0  0  0  0  0  0  0  0  0  0  0
   10.2980   12.9040   23.7650 C   0  0  0  0  0  0  0  0  0  0  0  0
   11.5030   13.2920   23.1340 N   0  0  0  0  0  0  0  0  0  0  0  0
   12.4140   14.2690   23.5160 C   0  0  0  0  0  0  0  0  0  0  0  0
   12.2340   15.4620   23.6720 O   0  0  0  0  0  0  0  0  0  0  0  0
   13.7860   13.6600   23.7510 C   0  0  1  0  0  0  0  0  0  0  0  0
   14.7450   13.9950   22.6360 C   0  0  0  0  0  0  0  0  0  0  0  0
   16.0500   13.6010   23.2730 C   0  0  0  0  0  0  0  0  0  0  0  0
   15.7550   13.5700   24.7640 C   0  0  0  0  0  0  0  0  0  0  0  0
   14.4460   14.1140   24.9270 O   0  0  0  0  0  0  0  0  0  0  0  0
    9.8010   11.6230   23.5370 C   0  0  0  0  0  0  0  0  0  0  0  0
   10.4590   10.7550   22.7140 O   0  0  0  0  0  0  0  0  0  0  0  0
    8.6320   11.1800   24.1540 C   0  0  0  0  0  0  0  0  0  0  0  0
    6.7850   11.6940   26.7760 H   0  0  0  0  0  0  0  0  0  0  0  0
    5.8120   12.1720   25.3670 H   0  0  0  0  0  0  0  0  0  0  0  0
    6.4610   10.5320   25.4700 H   0  0  0  0  0  0  0  0  0  0  0  0
    7.8800   13.9880   25.8760 H   0  0  0  0  0  0  0  0  0  0  0  0
    9.8910   14.6910   24.8540 H   0  0  0  0  0  0  0  0  0  0  0  0
   11.8590   12.6690   22.4060 H   0  0  0  0  0  0  0  0  0  0  0  0
   13.6600   12.5890   23.8810 H   0  0  0  0  0  0  0  0  0  0  0  0
   14.5330   13.4590   21.7100 H   0  0  0  0  0  0  0  0  0  0  0  0
   14.7410   15.0670   22.4110 H   0  0  0  0  0  0  0  0  0  0  0  0
   16.8770   14.2690   23.0200 H   0  0  0  0  0  0  0  0  0  0  0  0
   16.3040   12.5920   22.9270 H   0  0  0  0  0  0  0  0  0  0  0  0
   15.7790   12.5550   25.1740 H   0  0  0  0  0  0  0  0  0  0  0  0
   16.4580   14.1890   25.3250 H   0  0  0  0  0  0  0  0  0  0  0  0
   10.6720   11.2320   21.8710 H   0  0  0  0  0  0  0  0  0  0  0  0
    8.2840   10.1690   23.9630 H   0  0  0  0  0  0  0  0  0  0  0  0
  1  2  1  0
  2  3  2  0
  3  4  1  0
  4  5  2  0
  5  6  1  0
  6  7  1  0
  7  8  2  0
  7  9  1  0
  9 10  1  0
 10 11  1  0
 11 12  1  0
 12 13  1  0
  5 14  1  0
 14 15  1  0
 14 16  2  0
 16  2  1  0
 13  9  1  0
  1 17  1  0
  1 18  1  0
  1 19  1  0
  3 20  1  0
  4 21  1  0
  6 22  1  0
  9 23  1  1
 10 24  1  0
 10 25  1  0
 11 26  1  0
 11 27  1  0
 12 28  1  0
 12 29  1  0
 15 30  1  0
 16 31  1  0
A    1
 C1 
A    2
 C2 
A    3
 C3 
A    4
 C4 
A    5
 C5 
A    6
 N1 
A    7
 C6 
A    8
 O1 
A    9
 C7 
A   10
 C8 
A   11
 C9 
A   12
 C10
A   13
 O2 
A   14
 C11
A   15
 O3 
A   16
 C12
A   17
 H1 
A   18
 H2 
A   19
 H3 
A   20
 H4 
A   21
 H5 
A   22
 H6 
A   23
 H7 
A   24
 H8 
A   25
 H9 
A   26
 H10
A   27
 H11
A   28
 H12
A   29
 H13
A   30
 H14
A   31
 H15
M  END
>  <ref_pdb>  (3) 
x0310_0A

>  <ref_mols>  (3) 
x0310_0A,x1019_0A

>  <original SMILES>  (3) 
Cc1ccc(NC(=O)[C@H]2CCCO2)c(O)c1

>  <rationale>  (3) 
info halogenbond:G127+D39+A86+E85+Q95+E106+H104+Y64+C65+S87+N129+R93+L131+I82+G128+P91+H21+V84+G133+Y90+Y89+H97+L81+F134+L98+R20+G103+S66+S67+S7+G108+R38+V124+M99+S36; hbond:S87+S125+E88+Q95+G108+G103+L131+H104+R68+V124+P91+F83+S7+S66+G112+R20+Y89+S77+A135+Y63+A92+A101+M99+F134+L100+I82+Y64+S36+L98+V84+L81+Y94+S80+R38+S37+V102+G8+I123+G111+I113+L114+C65+L22+S96; hydroph_interaction:Y89+H21+P107+L22+L40+I123+A135+I82+L98+F83+R93+F134+H104+R20+A86+V74+P91+A101+F76+M99+L114+A92+Y94+R68+Y72+Y64+V18+V102+W28+G127+G128+L81; pication:H104+R93+Y63+F134+Y90+R68+F83+R20; pistack:H104+F134+Y63+F83+Y94; saltbridge:R93+H104+E106+D109+E88+R68+R20; 

>  <intxn_cluster>  (3) 
-1

>  <intxn_cluster_rank>  (3) 
-1

>  <N_interactions>  (3) 
8

>  <∆∆G>  (3) 
-6.463937

>  <$/mg>  (3) 
163.0

>  <comRMSD>  (3) 
0.812932

>  <N_rotatable_bonds>  (3) 
4

>  <deep_P1_sidechain>  (3) 
nan

>  <farthest_distance_to_substrate>  (3) 
2.226083

>  <hbond:SER:7>  (3) 
hbond:SER:7    NaN
hbond:SER:7     -1
Name: 2, dtype: object

>  <halogenbond:SER:7>  (3) 
halogenbond:SER:7    NaN
halogenbond:SER:7     -1
Name: 2, dtype: object

>  <hbond:GLY:8>  (3) 
hbond:GLY:8    NaN
hbond:GLY:8     -1
Name: 2, dtype: object

>  <hydroph_interaction:VAL:18>  (3) 
hydroph_interaction:VAL:18    NaN
hydroph_interaction:VAL:18     -1
Name: 2, dtype: object

>  <hbond:ASN:19>  (3) 
hbond:ASN:19    0.0
hbond:ASN:19      0
Name: 2, dtype: object

>  <hydroph_interaction:ASN:19>  (3) 
hydroph_interaction:ASN:19    0.0
hydroph_interaction:ASN:19      0
Name: 2, dtype: object

>  <halogenbond:ASN:19>  (3) 
halogenbond:ASN:19    0.0
halogenbond:ASN:19      0
Name: 2, dtype: object

>  <hbond:ARG:20>  (3) 
hbond:ARG:20    NaN
hbond:ARG:20     -1
Name: 2, dtype: object

>  <hydroph_interaction:ARG:20>  (3) 
hydroph_interaction:ARG:20    NaN
hydroph_interaction:ARG:20     -1
Name: 2, dtype: object

>  <saltbridge:ARG:20>  (3) 
saltbridge:ARG:20    NaN
saltbridge:ARG:20     -1
Name: 2, dtype: object

>  <halogenbond:ARG:20>  (3) 
halogenbond:ARG:20    NaN
halogenbond:ARG:20     -1
Name: 2, dtype: object

>  <pication:ARG:20>  (3) 
pication:ARG:20    NaN
pication:ARG:20     -1
Name: 2, dtype: object

>  <hbond:HIS:21>  (3) 
hbond:HIS:21    0.0
hbond:HIS:21      0
Name: 2, dtype: object

>  <hydroph_interaction:HIS:21>  (3) 
hydroph_interaction:HIS:21    1.0
hydroph_interaction:HIS:21      1
Name: 2, dtype: object

>  <pistack:HIS:21>  (3) 
pistack:HIS:21    0.0
pistack:HIS:21      0
Name: 2, dtype: object

>  <pication:HIS:21>  (3) 
pication:HIS:21    0.0
pication:HIS:21      0
Name: 2, dtype: object

>  <saltbridge:HIS:21>  (3) 
saltbridge:HIS:21    0.0
saltbridge:HIS:21      0
Name: 2, dtype: object

>  <halogenbond:HIS:21>  (3) 
halogenbond:HIS:21    NaN
halogenbond:HIS:21     -1
Name: 2, dtype: object

>  <hydroph_interaction:LEU:22>  (3) 
hydroph_interaction:LEU:22    1.0
hydroph_interaction:LEU:22      1
Name: 2, dtype: object

>  <hbond:LEU:22>  (3) 
hbond:LEU:22    NaN
hbond:LEU:22     -1
Name: 2, dtype: object

>  <hydroph_interaction:TRP:28>  (3) 
hydroph_interaction:TRP:28    NaN
hydroph_interaction:TRP:28     -1
Name: 2, dtype: object

>  <hbond:SER:36>  (3) 
hbond:SER:36    NaN
hbond:SER:36     -1
Name: 2, dtype: object

>  <halogenbond:SER:36>  (3) 
halogenbond:SER:36    NaN
halogenbond:SER:36     -1
Name: 2, dtype: object

>  <hbond:SER:37>  (3) 
hbond:SER:37    NaN
hbond:SER:37     -1
Name: 2, dtype: object

>  <hbond:ARG:38>  (3) 
hbond:ARG:38    NaN
hbond:ARG:38     -1
Name: 2, dtype: object

>  <halogenbond:ARG:38>  (3) 
halogenbond:ARG:38    NaN
halogenbond:ARG:38     -1
Name: 2, dtype: object

>  <saltbridge:ASP:39>  (3) 
saltbridge:ASP:39    0.0
saltbridge:ASP:39      0
Name: 2, dtype: object

>  <halogenbond:ASP:39>  (3) 
halogenbond:ASP:39    NaN
halogenbond:ASP:39     -1
Name: 2, dtype: object

>  <hbond:ASP:39>  (3) 
hbond:ASP:39    0.0
hbond:ASP:39      0
Name: 2, dtype: object

>  <hydroph_interaction:ASP:39>  (3) 
hydroph_interaction:ASP:39    0.0
hydroph_interaction:ASP:39      0
Name: 2, dtype: object

>  <hydroph_interaction:LEU:40>  (3) 
hydroph_interaction:LEU:40    NaN
hydroph_interaction:LEU:40     -1
Name: 2, dtype: object

>  <hydroph_interaction:TYR:63>  (3) 
hydroph_interaction:TYR:63    0.0
hydroph_interaction:TYR:63      0
Name: 2, dtype: object

>  <hbond:TYR:63>  (3) 
hbond:TYR:63    NaN
hbond:TYR:63     -1
Name: 2, dtype: object

>  <pistack:TYR:63>  (3) 
pistack:TYR:63    NaN
pistack:TYR:63     -1
Name: 2, dtype: object

>  <pication:TYR:63>  (3) 
pication:TYR:63    NaN
pication:TYR:63     -1
Name: 2, dtype: object

>  <halogenbond:TYR:64>  (3) 
halogenbond:TYR:64    NaN
halogenbond:TYR:64     -1
Name: 2, dtype: object

>  <hbond:TYR:64>  (3) 
hbond:TYR:64    NaN
hbond:TYR:64     -1
Name: 2, dtype: object

>  <hydroph_interaction:TYR:64>  (3) 
hydroph_interaction:TYR:64    NaN
hydroph_interaction:TYR:64     -1
Name: 2, dtype: object

>  <halogenbond:CYS:65>  (3) 
halogenbond:CYS:65    NaN
halogenbond:CYS:65     -1
Name: 2, dtype: object

>  <hbond:CYS:65>  (3) 
hbond:CYS:65    NaN
hbond:CYS:65     -1
Name: 2, dtype: object

>  <hbond:SER:66>  (3) 
hbond:SER:66    NaN
hbond:SER:66     -1
Name: 2, dtype: object

>  <halogenbond:SER:66>  (3) 
halogenbond:SER:66    NaN
halogenbond:SER:66     -1
Name: 2, dtype: object

>  <hbond:SER:67>  (3) 
hbond:SER:67    0.0
hbond:SER:67      0
Name: 2, dtype: object

>  <halogenbond:SER:67>  (3) 
halogenbond:SER:67    NaN
halogenbond:SER:67     -1
Name: 2, dtype: object

>  <hbond:ARG:68>  (3) 
hbond:ARG:68    NaN
hbond:ARG:68     -1
Name: 2, dtype: object

>  <saltbridge:ARG:68>  (3) 
saltbridge:ARG:68    NaN
saltbridge:ARG:68     -1
Name: 2, dtype: object

>  <hydroph_interaction:ARG:68>  (3) 
hydroph_interaction:ARG:68    NaN
hydroph_interaction:ARG:68     -1
Name: 2, dtype: object

>  <pication:ARG:68>  (3) 
pication:ARG:68    NaN
pication:ARG:68     -1
Name: 2, dtype: object

>  <hydroph_interaction:TYR:72>  (3) 
hydroph_interaction:TYR:72    NaN
hydroph_interaction:TYR:72     -1
Name: 2, dtype: object

>  <hydroph_interaction:VAL:74>  (3) 
hydroph_interaction:VAL:74    NaN
hydroph_interaction:VAL:74     -1
Name: 2, dtype: object

>  <hydroph_interaction:PHE:76>  (3) 
hydroph_interaction:PHE:76    NaN
hydroph_interaction:PHE:76     -1
Name: 2, dtype: object

>  <hbond:SER:77>  (3) 
hbond:SER:77    NaN
hbond:SER:77     -1
Name: 2, dtype: object

>  <hbond:SER:80>  (3) 
hbond:SER:80    NaN
hbond:SER:80     -1
Name: 2, dtype: object

>  <hbond:LEU:81>  (3) 
hbond:LEU:81    NaN
hbond:LEU:81     -1
Name: 2, dtype: object

>  <halogenbond:LEU:81>  (3) 
halogenbond:LEU:81    NaN
halogenbond:LEU:81     -1
Name: 2, dtype: object

>  <hydroph_interaction:LEU:81>  (3) 
hydroph_interaction:LEU:81    NaN
hydroph_interaction:LEU:81     -1
Name: 2, dtype: object

>  <hydroph_interaction:ILE:82>  (3) 
hydroph_interaction:ILE:82    NaN
hydroph_interaction:ILE:82     -1
Name: 2, dtype: object

>  <halogenbond:ILE:82>  (3) 
halogenbond:ILE:82    NaN
halogenbond:ILE:82     -1
Name: 2, dtype: object

>  <hbond:ILE:82>  (3) 
hbond:ILE:82    NaN
hbond:ILE:82     -1
Name: 2, dtype: object

>  <hbond:PHE:83>  (3) 
hbond:PHE:83    NaN
hbond:PHE:83     -1
Name: 2, dtype: object

>  <hydroph_interaction:PHE:83>  (3) 
hydroph_interaction:PHE:83    NaN
hydroph_interaction:PHE:83     -1
Name: 2, dtype: object

>  <halogenbond:PHE:83>  (3) 
halogenbond:PHE:83    0.0
halogenbond:PHE:83      0
Name: 2, dtype: object

>  <pistack:PHE:83>  (3) 
pistack:PHE:83    NaN
pistack:PHE:83     -1
Name: 2, dtype: object

>  <pication:PHE:83>  (3) 
pication:PHE:83    NaN
pication:PHE:83     -1
Name: 2, dtype: object

>  <hydroph_interaction:VAL:84>  (3) 
hydroph_interaction:VAL:84    0.0
hydroph_interaction:VAL:84      0
Name: 2, dtype: object

>  <halogenbond:VAL:84>  (3) 
halogenbond:VAL:84    NaN
halogenbond:VAL:84     -1
Name: 2, dtype: object

>  <hbond:VAL:84>  (3) 
hbond:VAL:84    NaN
hbond:VAL:84     -1
Name: 2, dtype: object

>  <hydroph_interaction:GLU:85>  (3) 
hydroph_interaction:GLU:85    0.0
hydroph_interaction:GLU:85      0
Name: 2, dtype: object

>  <hbond:GLU:85>  (3) 
hbond:GLU:85    0.0
hbond:GLU:85      0
Name: 2, dtype: object

>  <halogenbond:GLU:85>  (3) 
halogenbond:GLU:85    NaN
halogenbond:GLU:85     -1
Name: 2, dtype: object

>  <saltbridge:GLU:85>  (3) 
saltbridge:GLU:85    0.0
saltbridge:GLU:85      0
Name: 2, dtype: object

>  <halogenbond:ALA:86>  (3) 
halogenbond:ALA:86    NaN
halogenbond:ALA:86     -1
Name: 2, dtype: object

>  <hbond:ALA:86>  (3) 
hbond:ALA:86    0.0
hbond:ALA:86      0
Name: 2, dtype: object

>  <hydroph_interaction:ALA:86>  (3) 
hydroph_interaction:ALA:86    NaN
hydroph_interaction:ALA:86     -1
Name: 2, dtype: object

>  <hbond:SER:87>  (3) 
hbond:SER:87    1
hbond:SER:87    1
Name: 2, dtype: object

>  <halogenbond:SER:87>  (3) 
halogenbond:SER:87    NaN
halogenbond:SER:87     -1
Name: 2, dtype: object

>  <hbond:GLU:88>  (3) 
hbond:GLU:88    1.0
hbond:GLU:88      1
Name: 2, dtype: object

>  <hydroph_interaction:GLU:88>  (3) 
hydroph_interaction:GLU:88    0.0
hydroph_interaction:GLU:88      0
Name: 2, dtype: object

>  <halogenbond:GLU:88>  (3) 
halogenbond:GLU:88    0.0
halogenbond:GLU:88      0
Name: 2, dtype: object

>  <saltbridge:GLU:88>  (3) 
saltbridge:GLU:88    NaN
saltbridge:GLU:88     -1
Name: 2, dtype: object

>  <hydroph_interaction:TYR:89>  (3) 
hydroph_interaction:TYR:89    1.0
hydroph_interaction:TYR:89      1
Name: 2, dtype: object

>  <pistack:TYR:89>  (3) 
pistack:TYR:89    0.0
pistack:TYR:89      0
Name: 2, dtype: object

>  <hbond:TYR:89>  (3) 
hbond:TYR:89    NaN
hbond:TYR:89     -1
Name: 2, dtype: object

>  <halogenbond:TYR:89>  (3) 
halogenbond:TYR:89    NaN
halogenbond:TYR:89     -1
Name: 2, dtype: object

>  <hydroph_interaction:TYR:90>  (3) 
hydroph_interaction:TYR:90    0.0
hydroph_interaction:TYR:90      0
Name: 2, dtype: object

>  <hbond:TYR:90>  (3) 
hbond:TYR:90    0.0
hbond:TYR:90      0
Name: 2, dtype: object

>  <pistack:TYR:90>  (3) 
pistack:TYR:90    0.0
pistack:TYR:90      0
Name: 2, dtype: object

>  <halogenbond:TYR:90>  (3) 
halogenbond:TYR:90    NaN
halogenbond:TYR:90     -1
Name: 2, dtype: object

>  <pication:TYR:90>  (3) 
pication:TYR:90    NaN
pication:TYR:90     -1
Name: 2, dtype: object

>  <hbond:PRO:91>  (3) 
hbond:PRO:91    NaN
hbond:PRO:91     -1
Name: 2, dtype: object

>  <hydroph_interaction:PRO:91>  (3) 
hydroph_interaction:PRO:91    NaN
hydroph_interaction:PRO:91     -1
Name: 2, dtype: object

>  <halogenbond:PRO:91>  (3) 
halogenbond:PRO:91    NaN
halogenbond:PRO:91     -1
Name: 2, dtype: object

>  <hbond:ALA:92>  (3) 
hbond:ALA:92    NaN
hbond:ALA:92     -1
Name: 2, dtype: object

>  <hydroph_interaction:ALA:92>  (3) 
hydroph_interaction:ALA:92    NaN
hydroph_interaction:ALA:92     -1
Name: 2, dtype: object

>  <saltbridge:ARG:93>  (3) 
saltbridge:ARG:93    NaN
saltbridge:ARG:93     -1
Name: 2, dtype: object

>  <hbond:ARG:93>  (3) 
hbond:ARG:93    0.0
hbond:ARG:93      0
Name: 2, dtype: object

>  <hydroph_interaction:ARG:93>  (3) 
hydroph_interaction:ARG:93    NaN
hydroph_interaction:ARG:93     -1
Name: 2, dtype: object

>  <halogenbond:ARG:93>  (3) 
halogenbond:ARG:93    NaN
halogenbond:ARG:93     -1
Name: 2, dtype: object

>  <pication:ARG:93>  (3) 
pication:ARG:93    NaN
pication:ARG:93     -1
Name: 2, dtype: object

>  <hydroph_interaction:TYR:94>  (3) 
hydroph_interaction:TYR:94    NaN
hydroph_interaction:TYR:94     -1
Name: 2, dtype: object

>  <pistack:TYR:94>  (3) 
pistack:TYR:94    NaN
pistack:TYR:94     -1
Name: 2, dtype: object

>  <hbond:TYR:94>  (3) 
hbond:TYR:94    NaN
hbond:TYR:94     -1
Name: 2, dtype: object

>  <hbond:GLN:95>  (3) 
hbond:GLN:95    NaN
hbond:GLN:95     -1
Name: 2, dtype: object

>  <hydroph_interaction:GLN:95>  (3) 
hydroph_interaction:GLN:95    0.0
hydroph_interaction:GLN:95      0
Name: 2, dtype: object

>  <halogenbond:GLN:95>  (3) 
halogenbond:GLN:95    NaN
halogenbond:GLN:95     -1
Name: 2, dtype: object

>  <hbond:SER:96>  (3) 
hbond:SER:96    NaN
hbond:SER:96     -1
Name: 2, dtype: object

>  <halogenbond:HIS:97>  (3) 
halogenbond:HIS:97    NaN
halogenbond:HIS:97     -1
Name: 2, dtype: object

>  <hydroph_interaction:LEU:98>  (3) 
hydroph_interaction:LEU:98    NaN
hydroph_interaction:LEU:98     -1
Name: 2, dtype: object

>  <hbond:LEU:98>  (3) 
hbond:LEU:98    NaN
hbond:LEU:98     -1
Name: 2, dtype: object

>  <halogenbond:LEU:98>  (3) 
halogenbond:LEU:98    NaN
halogenbond:LEU:98     -1
Name: 2, dtype: object

>  <hbond:MET:99>  (3) 
hbond:MET:99    NaN
hbond:MET:99     -1
Name: 2, dtype: object

>  <hydroph_interaction:MET:99>  (3) 
hydroph_interaction:MET:99    NaN
hydroph_interaction:MET:99     -1
Name: 2, dtype: object

>  <halogenbond:MET:99>  (3) 
halogenbond:MET:99    NaN
halogenbond:MET:99     -1
Name: 2, dtype: object

>  <hydroph_interaction:LEU:100>  (3) 
hydroph_interaction:LEU:100    0.0
hydroph_interaction:LEU:100      0
Name: 2, dtype: object

>  <hbond:LEU:100>  (3) 
hbond:LEU:100    NaN
hbond:LEU:100     -1
Name: 2, dtype: object

>  <hbond:ALA:101>  (3) 
hbond:ALA:101    NaN
hbond:ALA:101     -1
Name: 2, dtype: object

>  <hydroph_interaction:ALA:101>  (3) 
hydroph_interaction:ALA:101    NaN
hydroph_interaction:ALA:101     -1
Name: 2, dtype: object

>  <hydroph_interaction:VAL:102>  (3) 
hydroph_interaction:VAL:102    NaN
hydroph_interaction:VAL:102     -1
Name: 2, dtype: object

>  <hbond:VAL:102>  (3) 
hbond:VAL:102    NaN
hbond:VAL:102     -1
Name: 2, dtype: object

>  <hbond:GLY:103>  (3) 
hbond:GLY:103    NaN
hbond:GLY:103     -1
Name: 2, dtype: object

>  <halogenbond:GLY:103>  (3) 
halogenbond:GLY:103    NaN
halogenbond:GLY:103     -1
Name: 2, dtype: object

>  <hbond:HIS:104>  (3) 
hbond:HIS:104    NaN
hbond:HIS:104     -1
Name: 2, dtype: object

>  <saltbridge:HIS:104>  (3) 
saltbridge:HIS:104    NaN
saltbridge:HIS:104     -1
Name: 2, dtype: object

>  <pication:HIS:104>  (3) 
pication:HIS:104    NaN
pication:HIS:104     -1
Name: 2, dtype: object

>  <halogenbond:HIS:104>  (3) 
halogenbond:HIS:104    NaN
halogenbond:HIS:104     -1
Name: 2, dtype: object

>  <hydroph_interaction:HIS:104>  (3) 
hydroph_interaction:HIS:104    NaN
hydroph_interaction:HIS:104     -1
Name: 2, dtype: object

>  <pistack:HIS:104>  (3) 
pistack:HIS:104    NaN
pistack:HIS:104     -1
Name: 2, dtype: object

>  <halogenbond:SER:105>  (3) 
halogenbond:SER:105    0.0
halogenbond:SER:105      0
Name: 2, dtype: object

>  <hbond:SER:105>  (3) 
hbond:SER:105    0.0
hbond:SER:105      0
Name: 2, dtype: object

>  <hbond:GLU:106>  (3) 
hbond:GLU:106    0.0
hbond:GLU:106      0
Name: 2, dtype: object

>  <hydroph_interaction:GLU:106>  (3) 
hydroph_interaction:GLU:106    0.0
hydroph_interaction:GLU:106      0
Name: 2, dtype: object

>  <saltbridge:GLU:106>  (3) 
saltbridge:GLU:106    NaN
saltbridge:GLU:106     -1
Name: 2, dtype: object

>  <halogenbond:GLU:106>  (3) 
halogenbond:GLU:106    NaN
halogenbond:GLU:106     -1
Name: 2, dtype: object

>  <hydroph_interaction:PRO:107>  (3) 
hydroph_interaction:PRO:107    1
hydroph_interaction:PRO:107    1
Name: 2, dtype: object

>  <hbond:PRO:107>  (3) 
hbond:PRO:107    0.0
hbond:PRO:107      0
Name: 2, dtype: object

>  <halogenbond:PRO:107>  (3) 
halogenbond:PRO:107    0.0
halogenbond:PRO:107      0
Name: 2, dtype: object

>  <hbond:GLY:108>  (3) 
hbond:GLY:108    NaN
hbond:GLY:108     -1
Name: 2, dtype: object

>  <halogenbond:GLY:108>  (3) 
halogenbond:GLY:108    NaN
halogenbond:GLY:108     -1
Name: 2, dtype: object

>  <hbond:ASP:109>  (3) 
hbond:ASP:109    0.0
hbond:ASP:109      0
Name: 2, dtype: object

>  <hydroph_interaction:ASP:109>  (3) 
hydroph_interaction:ASP:109    0.0
hydroph_interaction:ASP:109      0
Name: 2, dtype: object

>  <saltbridge:ASP:109>  (3) 
saltbridge:ASP:109    NaN
saltbridge:ASP:109     -1
Name: 2, dtype: object

>  <halogenbond:CYS:110>  (3) 
halogenbond:CYS:110    0.0
halogenbond:CYS:110      0
Name: 2, dtype: object

>  <hbond:CYS:110>  (3) 
hbond:CYS:110    0.0
hbond:CYS:110      0
Name: 2, dtype: object

>  <hbond:GLY:111>  (3) 
hbond:GLY:111    NaN
hbond:GLY:111     -1
Name: 2, dtype: object

>  <hbond:GLY:112>  (3) 
hbond:GLY:112    NaN
hbond:GLY:112     -1
Name: 2, dtype: object

>  <hbond:ILE:113>  (3) 
hbond:ILE:113    NaN
hbond:ILE:113     -1
Name: 2, dtype: object

>  <hydroph_interaction:LEU:114>  (3) 
hydroph_interaction:LEU:114    NaN
hydroph_interaction:LEU:114     -1
Name: 2, dtype: object

>  <hbond:LEU:114>  (3) 
hbond:LEU:114    NaN
hbond:LEU:114     -1
Name: 2, dtype: object

>  <hydroph_interaction:ILE:123>  (3) 
hydroph_interaction:ILE:123    NaN
hydroph_interaction:ILE:123     -1
Name: 2, dtype: object

>  <hbond:ILE:123>  (3) 
hbond:ILE:123    NaN
hbond:ILE:123     -1
Name: 2, dtype: object

>  <hydroph_interaction:VAL:124>  (3) 
hydroph_interaction:VAL:124    0.0
hydroph_interaction:VAL:124      0
Name: 2, dtype: object

>  <hbond:VAL:124>  (3) 
hbond:VAL:124    NaN
hbond:VAL:124     -1
Name: 2, dtype: object

>  <halogenbond:VAL:124>  (3) 
halogenbond:VAL:124    NaN
halogenbond:VAL:124     -1
Name: 2, dtype: object

>  <hbond:SER:125>  (3) 
hbond:SER:125    2
hbond:SER:125    2
Name: 2, dtype: object

>  <halogenbond:SER:125>  (3) 
halogenbond:SER:125    0.0
halogenbond:SER:125      0
Name: 2, dtype: object

>  <hydroph_interaction:THR:126>  (3) 
hydroph_interaction:THR:126    0.0
hydroph_interaction:THR:126      0
Name: 2, dtype: object

>  <hbond:THR:126>  (3) 
hbond:THR:126    0.0
hbond:THR:126      0
Name: 2, dtype: object

>  <halogenbond:THR:126>  (3) 
halogenbond:THR:126    0.0
halogenbond:THR:126      0
Name: 2, dtype: object

>  <hbond:GLY:127>  (3) 
hbond:GLY:127    0
hbond:GLY:127    0
Name: 2, dtype: object

>  <halogenbond:GLY:127>  (3) 
halogenbond:GLY:127    NaN
halogenbond:GLY:127     -1
Name: 2, dtype: object

>  <hydroph_interaction:GLY:127>  (3) 
hydroph_interaction:GLY:127    NaN
hydroph_interaction:GLY:127     -1
Name: 2, dtype: object

>  <hbond:GLY:128>  (3) 
hbond:GLY:128    0.0
hbond:GLY:128      0
Name: 2, dtype: object

>  <halogenbond:GLY:128>  (3) 
halogenbond:GLY:128    NaN
halogenbond:GLY:128     -1
Name: 2, dtype: object

>  <hydroph_interaction:GLY:128>  (3) 
hydroph_interaction:GLY:128    NaN
hydroph_interaction:GLY:128     -1
Name: 2, dtype: object

>  <hbond:ASN:129>  (3) 
hbond:ASN:129    0.0
hbond:ASN:129      0
Name: 2, dtype: object

>  <hydroph_interaction:ASN:129>  (3) 
hydroph_interaction:ASN:129    0.0
hydroph_interaction:ASN:129      0
Name: 2, dtype: object

>  <halogenbond:ASN:129>  (3) 
halogenbond:ASN:129    NaN
halogenbond:ASN:129     -1
Name: 2, dtype: object

>  <hbond:GLY:130>  (3) 
hbond:GLY:130    0.0
hbond:GLY:130      0
Name: 2, dtype: object

>  <hbond:LEU:131>  (3) 
hbond:LEU:131    NaN
hbond:LEU:131     -1
Name: 2, dtype: object

>  <hydroph_interaction:LEU:131>  (3) 
hydroph_interaction:LEU:131    0.0
hydroph_interaction:LEU:131      0
Name: 2, dtype: object

>  <halogenbond:LEU:131>  (3) 
halogenbond:LEU:131    NaN
halogenbond:LEU:131     -1
Name: 2, dtype: object

>  <hydroph_interaction:VAL:132>  (3) 
hydroph_interaction:VAL:132    0.0
hydroph_interaction:VAL:132      0
Name: 2, dtype: object

>  <hbond:VAL:132>  (3) 
hbond:VAL:132    0.0
hbond:VAL:132      0
Name: 2, dtype: object

>  <hbond:GLY:133>  (3) 
hbond:GLY:133    0.0
hbond:GLY:133      0
Name: 2, dtype: object

>  <halogenbond:GLY:133>  (3) 
halogenbond:GLY:133    NaN
halogenbond:GLY:133     -1
Name: 2, dtype: object

>  <hydroph_interaction:PHE:134>  (3) 
hydroph_interaction:PHE:134    NaN
hydroph_interaction:PHE:134     -1
Name: 2, dtype: object

>  <hbond:PHE:134>  (3) 
hbond:PHE:134    NaN
hbond:PHE:134     -1
Name: 2, dtype: object

>  <pistack:PHE:134>  (3) 
pistack:PHE:134    NaN
pistack:PHE:134     -1
Name: 2, dtype: object

>  <pication:PHE:134>  (3) 
pication:PHE:134    NaN
pication:PHE:134     -1
Name: 2, dtype: object

>  <halogenbond:PHE:134>  (3) 
halogenbond:PHE:134    NaN
halogenbond:PHE:134     -1
Name: 2, dtype: object

>  <hydroph_interaction:ALA:135>  (3) 
hydroph_interaction:ALA:135    NaN
hydroph_interaction:ALA:135     -1
Name: 2, dtype: object

>  <hbond:ALA:135>  (3) 
hbond:ALA:135    NaN
hbond:ALA:135     -1
Name: 2, dtype: object

$$$$
Z1587360007
     RDKit          3D

 30 30  0  0  0  0  0  0  0  0999 V2000
   10.4000    9.1750   22.6270 C   0  0  0  0  0  0  0  0  0  0  0  0
    9.5240   10.1640   23.3070 C   0  0  0  0  0  0  0  0  0  0  0  0
    8.7300    9.7570   24.3290 C   0  0  0  0  0  0  0  0  0  0  0  0
    7.8830   10.6050   25.0250 C   0  0  0  0  0  0  0  0  0  0  0  0
    7.8110   11.9210   24.6630 C   0  0  0  0  0  0  0  0  0  0  0  0
    6.9590   12.7790   25.3500 C   0  0  0  0  0  0  0  0  0  0  0  0
    8.6000   12.3640   23.5880 C   0  0  0  0  0  0  0  0  0  0  0  0
    8.4910   13.7760   23.1190 C   0  0  1  0  0  0  0  0  0  0  0  0
    9.5240   14.1150   22.0280 C   0  0  0  0  0  0  0  0  0  0  0  0
    7.1970   13.9970   22.6640 N   0  0  0  0  0  0  0  0  0  0  0  0
    6.4780   14.9840   23.2310 C   0  0  0  0  0  0  0  0  0  0  0  0
    5.4650   15.3850   22.4370 N   0  0  0  0  0  0  0  0  0  0  0  0
    6.6850   15.4650   24.3320 O   0  0  0  0  0  0  0  0  0  0  0  0
    9.4670   11.4800   22.9350 C   0  0  0  0  0  0  0  0  0  0  0  0
   11.2200    8.8520   23.2760 H   0  0  0  0  0  0  0  0  0  0  0  0
   10.8110    9.6110   21.7200 H   0  0  0  0  0  0  0  0  0  0  0  0
    9.8270    8.2880   22.3570 H   0  0  0  0  0  0  0  0  0  0  0  0
    8.7780    8.7310   24.5940 H   0  0  0  0  0  0  0  0  0  0  0  0
    7.2750   10.2360   25.8440 H   0  0  0  0  0  0  0  0  0  0  0  0
    6.3150   12.2030   26.0240 H   0  0  0  0  0  0  0  0  0  0  0  0
    6.3070   13.3330   24.6680 H   0  0  0  0  0  0  0  0  0  0  0  0
    7.5300   13.5160   25.9220 H   0  0  0  0  0  0  0  0  0  0  0  0
    8.6890   14.4610   23.9510 H   0  0  0  0  0  0  0  0  0  0  0  0
   10.1090   13.2440   21.7580 H   0  0  0  0  0  0  0  0  0  0  0  0
   10.2240   14.8920   22.3380 H   0  0  0  0  0  0  0  0  0  0  0  0
    9.0250   14.4810   21.1230 H   0  0  0  0  0  0  0  0  0  0  0  0
    6.6220   13.1660   22.5300 H   0  0  0  0  0  0  0  0  0  0  0  0
    4.5410   15.1110   22.7410 H   0  0  0  0  0  0  0  0  0  0  0  0
    5.5600   16.3510   22.1030 H   0  0  0  0  0  0  0  0  0  0  0  0
   10.0950   11.8090   22.1150 H   0  0  0  0  0  0  0  0  0  0  0  0
  1  2  1  0
  2  3  2  0
  3  4  1  0
  4  5  2  0
  5  6  1  0
  5  7  1  0
  7  8  1  0
  8  9  1  0
  8 10  1  0
 10 11  1  0
 11 12  1  0
 11 13  2  0
  7 14  2  0
 14  2  1  0
  1 15  1  0
  1 16  1  0
  1 17  1  0
  3 18  1  0
  4 19  1  0
  6 20  1  0
  6 21  1  0
  6 22  1  0
  8 23  1  6
  9 24  1  0
  9 25  1  0
  9 26  1  0
 10 27  1  0
 12 28  1  0
 12 29  1  0
 14 30  1  0
A    1
 C1 
A    2
 C2 
A    3
 C3 
A    4
 C4 
A    5
 C5 
A    6
 C6 
A    7
 C7 
A    8
 C8 
A    9
 C9 
A   10
 N1 
A   11
 C10
A   12
 N2 
A   13
 O1 
A   14
 C11
A   15
 H1 
A   16
 H2 
A   17
 H3 
A   18
 H4 
A   19
 H5 
A   20
 H6 
A   21
 H7 
A   22
 H8 
A   23
 H9 
A   24
 H10
A   25
 H11
A   26
 H12
A   27
 H13
A   28
 H14
A   29
 H15
A   30
 H16
M  END
>  <ref_pdb>  (4) 
x0310_0A

>  <ref_mols>  (4) 
x0416_0A,x1080_0A,x0451_0A

>  <original SMILES>  (4) 
Cc1ccc(C)c([C@H](C)NC(N)=O)c1

>  <rationale>  (4) 
info halogenbond:G127+D39+A86+Q95+E106+T126+H104+Y64+C65+N129+F83+R93+L131+I82+G128+P91+N19+H21+V84+G133+Y90+Y89+H97+L81+F134+L98+R20+G103+S66+S67+S7+G108+R38+V124+M99+S36; hbond:G127+Q95+D39+A86+D109+G108+G103+G128+G130+L131+N129+N19+H104+R68+V124+R93+P91+F83+S67+S7+S66+G112+G133+V132+R20+Y89+S77+A135+Y63+A92+A101+M99+F134+L100+I82+Y64+S36+L98+V84+L81+Y94+S80+R38+S37+V102+G8+I123+G111+I113+L114+C65+L22+S96; hydroph_interaction:V124+H21+L22+E106+D109+N129+D39+N19+L40+I123+A135+Q95+I82+L100+L98+L131+F83+R93+V132+Y63+F134+H104+R20+A86+V74+P91+A101+F76+M99+L114+A92+Y94+R68+Y72+Y64+V18+V102+W28+G127+G128+L81; pication:H104+R93+Y63+F134+Y90+R68+F83+R20; pistack:Y89+Y90+H104+F134+Y63+F83+Y94; saltbridge:R93+H104+E106+D109+E85+E88+R68+R20; 

>  <intxn_cluster>  (4) 
-1

>  <intxn_cluster_rank>  (4) 
-1

>  <N_interactions>  (4) 
4

>  <∆∆G>  (4) 
-9.539207

>  <$/mg>  (4) 
0.0

>  <comRMSD>  (4) 
0.784945

>  <N_rotatable_bonds>  (4) 
5

>  <deep_P1_sidechain>  (4) 
nan

>  <farthest_distance_to_substrate>  (4) 
2.600884

>  <hbond:SER:7>  (4) 
hbond:SER:7    NaN
hbond:SER:7     -1
Name: 3, dtype: object

>  <halogenbond:SER:7>  (4) 
halogenbond:SER:7    NaN
halogenbond:SER:7     -1
Name: 3, dtype: object

>  <hbond:GLY:8>  (4) 
hbond:GLY:8    NaN
hbond:GLY:8     -1
Name: 3, dtype: object

>  <hydroph_interaction:VAL:18>  (4) 
hydroph_interaction:VAL:18    NaN
hydroph_interaction:VAL:18     -1
Name: 3, dtype: object

>  <hbond:ASN:19>  (4) 
hbond:ASN:19    NaN
hbond:ASN:19     -1
Name: 3, dtype: object

>  <hydroph_interaction:ASN:19>  (4) 
hydroph_interaction:ASN:19    NaN
hydroph_interaction:ASN:19     -1
Name: 3, dtype: object

>  <halogenbond:ASN:19>  (4) 
halogenbond:ASN:19    NaN
halogenbond:ASN:19     -1
Name: 3, dtype: object

>  <hbond:ARG:20>  (4) 
hbond:ARG:20    NaN
hbond:ARG:20     -1
Name: 3, dtype: object

>  <hydroph_interaction:ARG:20>  (4) 
hydroph_interaction:ARG:20    NaN
hydroph_interaction:ARG:20     -1
Name: 3, dtype: object

>  <saltbridge:ARG:20>  (4) 
saltbridge:ARG:20    NaN
saltbridge:ARG:20     -1
Name: 3, dtype: object

>  <halogenbond:ARG:20>  (4) 
halogenbond:ARG:20    NaN
halogenbond:ARG:20     -1
Name: 3, dtype: object

>  <pication:ARG:20>  (4) 
pication:ARG:20    NaN
pication:ARG:20     -1
Name: 3, dtype: object

>  <hbond:HIS:21>  (4) 
hbond:HIS:21    0.0
hbond:HIS:21      0
Name: 3, dtype: object

>  <hydroph_interaction:HIS:21>  (4) 
hydroph_interaction:HIS:21    NaN
hydroph_interaction:HIS:21     -1
Name: 3, dtype: object

>  <pistack:HIS:21>  (4) 
pistack:HIS:21    0.0
pistack:HIS:21      0
Name: 3, dtype: object

>  <pication:HIS:21>  (4) 
pication:HIS:21    0.0
pication:HIS:21      0
Name: 3, dtype: object

>  <saltbridge:HIS:21>  (4) 
saltbridge:HIS:21    0.0
saltbridge:HIS:21      0
Name: 3, dtype: object

>  <halogenbond:HIS:21>  (4) 
halogenbond:HIS:21    NaN
halogenbond:HIS:21     -1
Name: 3, dtype: object

>  <hydroph_interaction:LEU:22>  (4) 
hydroph_interaction:LEU:22    NaN
hydroph_interaction:LEU:22     -1
Name: 3, dtype: object

>  <hbond:LEU:22>  (4) 
hbond:LEU:22    NaN
hbond:LEU:22     -1
Name: 3, dtype: object

>  <hydroph_interaction:TRP:28>  (4) 
hydroph_interaction:TRP:28    NaN
hydroph_interaction:TRP:28     -1
Name: 3, dtype: object

>  <hbond:SER:36>  (4) 
hbond:SER:36    NaN
hbond:SER:36     -1
Name: 3, dtype: object

>  <halogenbond:SER:36>  (4) 
halogenbond:SER:36    NaN
halogenbond:SER:36     -1
Name: 3, dtype: object

>  <hbond:SER:37>  (4) 
hbond:SER:37    NaN
hbond:SER:37     -1
Name: 3, dtype: object

>  <hbond:ARG:38>  (4) 
hbond:ARG:38    NaN
hbond:ARG:38     -1
Name: 3, dtype: object

>  <halogenbond:ARG:38>  (4) 
halogenbond:ARG:38    NaN
halogenbond:ARG:38     -1
Name: 3, dtype: object

>  <saltbridge:ASP:39>  (4) 
saltbridge:ASP:39    0.0
saltbridge:ASP:39      0
Name: 3, dtype: object

>  <halogenbond:ASP:39>  (4) 
halogenbond:ASP:39    NaN
halogenbond:ASP:39     -1
Name: 3, dtype: object

>  <hbond:ASP:39>  (4) 
hbond:ASP:39    NaN
hbond:ASP:39     -1
Name: 3, dtype: object

>  <hydroph_interaction:ASP:39>  (4) 
hydroph_interaction:ASP:39    NaN
hydroph_interaction:ASP:39     -1
Name: 3, dtype: object

>  <hydroph_interaction:LEU:40>  (4) 
hydroph_interaction:LEU:40    NaN
hydroph_interaction:LEU:40     -1
Name: 3, dtype: object

>  <hydroph_interaction:TYR:63>  (4) 
hydroph_interaction:TYR:63    NaN
hydroph_interaction:TYR:63     -1
Name: 3, dtype: object

>  <hbond:TYR:63>  (4) 
hbond:TYR:63    NaN
hbond:TYR:63     -1
Name: 3, dtype: object

>  <pistack:TYR:63>  (4) 
pistack:TYR:63    NaN
pistack:TYR:63     -1
Name: 3, dtype: object

>  <pication:TYR:63>  (4) 
pication:TYR:63    NaN
pication:TYR:63     -1
Name: 3, dtype: object

>  <halogenbond:TYR:64>  (4) 
halogenbond:TYR:64    NaN
halogenbond:TYR:64     -1
Name: 3, dtype: object

>  <hbond:TYR:64>  (4) 
hbond:TYR:64    NaN
hbond:TYR:64     -1
Name: 3, dtype: object

>  <hydroph_interaction:TYR:64>  (4) 
hydroph_interaction:TYR:64    NaN
hydroph_interaction:TYR:64     -1
Name: 3, dtype: object

>  <halogenbond:CYS:65>  (4) 
halogenbond:CYS:65    NaN
halogenbond:CYS:65     -1
Name: 3, dtype: object

>  <hbond:CYS:65>  (4) 
hbond:CYS:65    NaN
hbond:CYS:65     -1
Name: 3, dtype: object

>  <hbond:SER:66>  (4) 
hbond:SER:66    NaN
hbond:SER:66     -1
Name: 3, dtype: object

>  <halogenbond:SER:66>  (4) 
halogenbond:SER:66    NaN
halogenbond:SER:66     -1
Name: 3, dtype: object

>  <hbond:SER:67>  (4) 
hbond:SER:67    NaN
hbond:SER:67     -1
Name: 3, dtype: object

>  <halogenbond:SER:67>  (4) 
halogenbond:SER:67    NaN
halogenbond:SER:67     -1
Name: 3, dtype: object

>  <hbond:ARG:68>  (4) 
hbond:ARG:68    NaN
hbond:ARG:68     -1
Name: 3, dtype: object

>  <saltbridge:ARG:68>  (4) 
saltbridge:ARG:68    NaN
saltbridge:ARG:68     -1
Name: 3, dtype: object

>  <hydroph_interaction:ARG:68>  (4) 
hydroph_interaction:ARG:68    NaN
hydroph_interaction:ARG:68     -1
Name: 3, dtype: object

>  <pication:ARG:68>  (4) 
pication:ARG:68    NaN
pication:ARG:68     -1
Name: 3, dtype: object

>  <hydroph_interaction:TYR:72>  (4) 
hydroph_interaction:TYR:72    NaN
hydroph_interaction:TYR:72     -1
Name: 3, dtype: object

>  <hydroph_interaction:VAL:74>  (4) 
hydroph_interaction:VAL:74    NaN
hydroph_interaction:VAL:74     -1
Name: 3, dtype: object

>  <hydroph_interaction:PHE:76>  (4) 
hydroph_interaction:PHE:76    NaN
hydroph_interaction:PHE:76     -1
Name: 3, dtype: object

>  <hbond:SER:77>  (4) 
hbond:SER:77    NaN
hbond:SER:77     -1
Name: 3, dtype: object

>  <hbond:SER:80>  (4) 
hbond:SER:80    NaN
hbond:SER:80     -1
Name: 3, dtype: object

>  <hbond:LEU:81>  (4) 
hbond:LEU:81    NaN
hbond:LEU:81     -1
Name: 3, dtype: object

>  <halogenbond:LEU:81>  (4) 
halogenbond:LEU:81    NaN
halogenbond:LEU:81     -1
Name: 3, dtype: object

>  <hydroph_interaction:LEU:81>  (4) 
hydroph_interaction:LEU:81    NaN
hydroph_interaction:LEU:81     -1
Name: 3, dtype: object

>  <hydroph_interaction:ILE:82>  (4) 
hydroph_interaction:ILE:82    NaN
hydroph_interaction:ILE:82     -1
Name: 3, dtype: object

>  <halogenbond:ILE:82>  (4) 
halogenbond:ILE:82    NaN
halogenbond:ILE:82     -1
Name: 3, dtype: object

>  <hbond:ILE:82>  (4) 
hbond:ILE:82    NaN
hbond:ILE:82     -1
Name: 3, dtype: object

>  <hbond:PHE:83>  (4) 
hbond:PHE:83    NaN
hbond:PHE:83     -1
Name: 3, dtype: object

>  <hydroph_interaction:PHE:83>  (4) 
hydroph_interaction:PHE:83    NaN
hydroph_interaction:PHE:83     -1
Name: 3, dtype: object

>  <halogenbond:PHE:83>  (4) 
halogenbond:PHE:83    NaN
halogenbond:PHE:83     -1
Name: 3, dtype: object

>  <pistack:PHE:83>  (4) 
pistack:PHE:83    NaN
pistack:PHE:83     -1
Name: 3, dtype: object

>  <pication:PHE:83>  (4) 
pication:PHE:83    NaN
pication:PHE:83     -1
Name: 3, dtype: object

>  <hydroph_interaction:VAL:84>  (4) 
hydroph_interaction:VAL:84    0.0
hydroph_interaction:VAL:84      0
Name: 3, dtype: object

>  <halogenbond:VAL:84>  (4) 
halogenbond:VAL:84    NaN
halogenbond:VAL:84     -1
Name: 3, dtype: object

>  <hbond:VAL:84>  (4) 
hbond:VAL:84    NaN
hbond:VAL:84     -1
Name: 3, dtype: object

>  <hydroph_interaction:GLU:85>  (4) 
hydroph_interaction:GLU:85    0.0
hydroph_interaction:GLU:85      0
Name: 3, dtype: object

>  <hbond:GLU:85>  (4) 
hbond:GLU:85    0.0
hbond:GLU:85      0
Name: 3, dtype: object

>  <halogenbond:GLU:85>  (4) 
halogenbond:GLU:85    0.0
halogenbond:GLU:85      0
Name: 3, dtype: object

>  <saltbridge:GLU:85>  (4) 
saltbridge:GLU:85    NaN
saltbridge:GLU:85     -1
Name: 3, dtype: object

>  <halogenbond:ALA:86>  (4) 
halogenbond:ALA:86    NaN
halogenbond:ALA:86     -1
Name: 3, dtype: object

>  <hbond:ALA:86>  (4) 
hbond:ALA:86    1.0
hbond:ALA:86      1
Name: 3, dtype: object

>  <hydroph_interaction:ALA:86>  (4) 
hydroph_interaction:ALA:86    NaN
hydroph_interaction:ALA:86     -1
Name: 3, dtype: object

>  <hbond:SER:87>  (4) 
hbond:SER:87    0
hbond:SER:87    0
Name: 3, dtype: object

>  <halogenbond:SER:87>  (4) 
halogenbond:SER:87    0.0
halogenbond:SER:87      0
Name: 3, dtype: object

>  <hbond:GLU:88>  (4) 
hbond:GLU:88    0.0
hbond:GLU:88      0
Name: 3, dtype: object

>  <hydroph_interaction:GLU:88>  (4) 
hydroph_interaction:GLU:88    0.0
hydroph_interaction:GLU:88      0
Name: 3, dtype: object

>  <halogenbond:GLU:88>  (4) 
halogenbond:GLU:88    0.0
halogenbond:GLU:88      0
Name: 3, dtype: object

>  <saltbridge:GLU:88>  (4) 
saltbridge:GLU:88    NaN
saltbridge:GLU:88     -1
Name: 3, dtype: object

>  <hydroph_interaction:TYR:89>  (4) 
hydroph_interaction:TYR:89    0.0
hydroph_interaction:TYR:89      0
Name: 3, dtype: object

>  <pistack:TYR:89>  (4) 
pistack:TYR:89    NaN
pistack:TYR:89     -1
Name: 3, dtype: object

>  <hbond:TYR:89>  (4) 
hbond:TYR:89    NaN
hbond:TYR:89     -1
Name: 3, dtype: object

>  <halogenbond:TYR:89>  (4) 
halogenbond:TYR:89    NaN
halogenbond:TYR:89     -1
Name: 3, dtype: object

>  <hydroph_interaction:TYR:90>  (4) 
hydroph_interaction:TYR:90    0.0
hydroph_interaction:TYR:90      0
Name: 3, dtype: object

>  <hbond:TYR:90>  (4) 
hbond:TYR:90    0.0
hbond:TYR:90      0
Name: 3, dtype: object

>  <pistack:TYR:90>  (4) 
pistack:TYR:90    NaN
pistack:TYR:90     -1
Name: 3, dtype: object

>  <halogenbond:TYR:90>  (4) 
halogenbond:TYR:90    NaN
halogenbond:TYR:90     -1
Name: 3, dtype: object

>  <pication:TYR:90>  (4) 
pication:TYR:90    NaN
pication:TYR:90     -1
Name: 3, dtype: object

>  <hbond:PRO:91>  (4) 
hbond:PRO:91    NaN
hbond:PRO:91     -1
Name: 3, dtype: object

>  <hydroph_interaction:PRO:91>  (4) 
hydroph_interaction:PRO:91    NaN
hydroph_interaction:PRO:91     -1
Name: 3, dtype: object

>  <halogenbond:PRO:91>  (4) 
halogenbond:PRO:91    NaN
halogenbond:PRO:91     -1
Name: 3, dtype: object

>  <hbond:ALA:92>  (4) 
hbond:ALA:92    NaN
hbond:ALA:92     -1
Name: 3, dtype: object

>  <hydroph_interaction:ALA:92>  (4) 
hydroph_interaction:ALA:92    NaN
hydroph_interaction:ALA:92     -1
Name: 3, dtype: object

>  <saltbridge:ARG:93>  (4) 
saltbridge:ARG:93    NaN
saltbridge:ARG:93     -1
Name: 3, dtype: object

>  <hbond:ARG:93>  (4) 
hbond:ARG:93    NaN
hbond:ARG:93     -1
Name: 3, dtype: object

>  <hydroph_interaction:ARG:93>  (4) 
hydroph_interaction:ARG:93    NaN
hydroph_interaction:ARG:93     -1
Name: 3, dtype: object

>  <halogenbond:ARG:93>  (4) 
halogenbond:ARG:93    NaN
halogenbond:ARG:93     -1
Name: 3, dtype: object

>  <pication:ARG:93>  (4) 
pication:ARG:93    NaN
pication:ARG:93     -1
Name: 3, dtype: object

>  <hydroph_interaction:TYR:94>  (4) 
hydroph_interaction:TYR:94    NaN
hydroph_interaction:TYR:94     -1
Name: 3, dtype: object

>  <pistack:TYR:94>  (4) 
pistack:TYR:94    NaN
pistack:TYR:94     -1
Name: 3, dtype: object

>  <hbond:TYR:94>  (4) 
hbond:TYR:94    NaN
hbond:TYR:94     -1
Name: 3, dtype: object

>  <hbond:GLN:95>  (4) 
hbond:GLN:95    NaN
hbond:GLN:95     -1
Name: 3, dtype: object

>  <hydroph_interaction:GLN:95>  (4) 
hydroph_interaction:GLN:95    NaN
hydroph_interaction:GLN:95     -1
Name: 3, dtype: object

>  <halogenbond:GLN:95>  (4) 
halogenbond:GLN:95    NaN
halogenbond:GLN:95     -1
Name: 3, dtype: object

>  <hbond:SER:96>  (4) 
hbond:SER:96    NaN
hbond:SER:96     -1
Name: 3, dtype: object

>  <halogenbond:HIS:97>  (4) 
halogenbond:HIS:97    NaN
halogenbond:HIS:97     -1
Name: 3, dtype: object

>  <hydroph_interaction:LEU:98>  (4) 
hydroph_interaction:LEU:98    NaN
hydroph_interaction:LEU:98     -1
Name: 3, dtype: object

>  <hbond:LEU:98>  (4) 
hbond:LEU:98    NaN
hbond:LEU:98     -1
Name: 3, dtype: object

>  <halogenbond:LEU:98>  (4) 
halogenbond:LEU:98    NaN
halogenbond:LEU:98     -1
Name: 3, dtype: object

>  <hbond:MET:99>  (4) 
hbond:MET:99    NaN
hbond:MET:99     -1
Name: 3, dtype: object

>  <hydroph_interaction:MET:99>  (4) 
hydroph_interaction:MET:99    NaN
hydroph_interaction:MET:99     -1
Name: 3, dtype: object

>  <halogenbond:MET:99>  (4) 
halogenbond:MET:99    NaN
halogenbond:MET:99     -1
Name: 3, dtype: object

>  <hydroph_interaction:LEU:100>  (4) 
hydroph_interaction:LEU:100    NaN
hydroph_interaction:LEU:100     -1
Name: 3, dtype: object

>  <hbond:LEU:100>  (4) 
hbond:LEU:100    NaN
hbond:LEU:100     -1
Name: 3, dtype: object

>  <hbond:ALA:101>  (4) 
hbond:ALA:101    NaN
hbond:ALA:101     -1
Name: 3, dtype: object

>  <hydroph_interaction:ALA:101>  (4) 
hydroph_interaction:ALA:101    NaN
hydroph_interaction:ALA:101     -1
Name: 3, dtype: object

>  <hydroph_interaction:VAL:102>  (4) 
hydroph_interaction:VAL:102    NaN
hydroph_interaction:VAL:102     -1
Name: 3, dtype: object

>  <hbond:VAL:102>  (4) 
hbond:VAL:102    NaN
hbond:VAL:102     -1
Name: 3, dtype: object

>  <hbond:GLY:103>  (4) 
hbond:GLY:103    NaN
hbond:GLY:103     -1
Name: 3, dtype: object

>  <halogenbond:GLY:103>  (4) 
halogenbond:GLY:103    NaN
halogenbond:GLY:103     -1
Name: 3, dtype: object

>  <hbond:HIS:104>  (4) 
hbond:HIS:104    NaN
hbond:HIS:104     -1
Name: 3, dtype: object

>  <saltbridge:HIS:104>  (4) 
saltbridge:HIS:104    NaN
saltbridge:HIS:104     -1
Name: 3, dtype: object

>  <pication:HIS:104>  (4) 
pication:HIS:104    NaN
pication:HIS:104     -1
Name: 3, dtype: object

>  <halogenbond:HIS:104>  (4) 
halogenbond:HIS:104    NaN
halogenbond:HIS:104     -1
Name: 3, dtype: object

>  <hydroph_interaction:HIS:104>  (4) 
hydroph_interaction:HIS:104    NaN
hydroph_interaction:HIS:104     -1
Name: 3, dtype: object

>  <pistack:HIS:104>  (4) 
pistack:HIS:104    NaN
pistack:HIS:104     -1
Name: 3, dtype: object

>  <halogenbond:SER:105>  (4) 
halogenbond:SER:105    0.0
halogenbond:SER:105      0
Name: 3, dtype: object

>  <hbond:SER:105>  (4) 
hbond:SER:105    0.0
hbond:SER:105      0
Name: 3, dtype: object

>  <hbond:GLU:106>  (4) 
hbond:GLU:106    0.0
hbond:GLU:106      0
Name: 3, dtype: object

>  <hydroph_interaction:GLU:106>  (4) 
hydroph_interaction:GLU:106    NaN
hydroph_interaction:GLU:106     -1
Name: 3, dtype: object

>  <saltbridge:GLU:106>  (4) 
saltbridge:GLU:106    NaN
saltbridge:GLU:106     -1
Name: 3, dtype: object

>  <halogenbond:GLU:106>  (4) 
halogenbond:GLU:106    NaN
halogenbond:GLU:106     -1
Name: 3, dtype: object

>  <hydroph_interaction:PRO:107>  (4) 
hydroph_interaction:PRO:107    0
hydroph_interaction:PRO:107    0
Name: 3, dtype: object

>  <hbond:PRO:107>  (4) 
hbond:PRO:107    0.0
hbond:PRO:107      0
Name: 3, dtype: object

>  <halogenbond:PRO:107>  (4) 
halogenbond:PRO:107    0.0
halogenbond:PRO:107      0
Name: 3, dtype: object

>  <hbond:GLY:108>  (4) 
hbond:GLY:108    NaN
hbond:GLY:108     -1
Name: 3, dtype: object

>  <halogenbond:GLY:108>  (4) 
halogenbond:GLY:108    NaN
halogenbond:GLY:108     -1
Name: 3, dtype: object

>  <hbond:ASP:109>  (4) 
hbond:ASP:109    NaN
hbond:ASP:109     -1
Name: 3, dtype: object

>  <hydroph_interaction:ASP:109>  (4) 
hydroph_interaction:ASP:109    NaN
hydroph_interaction:ASP:109     -1
Name: 3, dtype: object

>  <saltbridge:ASP:109>  (4) 
saltbridge:ASP:109    NaN
saltbridge:ASP:109     -1
Name: 3, dtype: object

>  <halogenbond:CYS:110>  (4) 
halogenbond:CYS:110    0.0
halogenbond:CYS:110      0
Name: 3, dtype: object

>  <hbond:CYS:110>  (4) 
hbond:CYS:110    0.0
hbond:CYS:110      0
Name: 3, dtype: object

>  <hbond:GLY:111>  (4) 
hbond:GLY:111    NaN
hbond:GLY:111     -1
Name: 3, dtype: object

>  <hbond:GLY:112>  (4) 
hbond:GLY:112    NaN
hbond:GLY:112     -1
Name: 3, dtype: object

>  <hbond:ILE:113>  (4) 
hbond:ILE:113    NaN
hbond:ILE:113     -1
Name: 3, dtype: object

>  <hydroph_interaction:LEU:114>  (4) 
hydroph_interaction:LEU:114    NaN
hydroph_interaction:LEU:114     -1
Name: 3, dtype: object

>  <hbond:LEU:114>  (4) 
hbond:LEU:114    NaN
hbond:LEU:114     -1
Name: 3, dtype: object

>  <hydroph_interaction:ILE:123>  (4) 
hydroph_interaction:ILE:123    NaN
hydroph_interaction:ILE:123     -1
Name: 3, dtype: object

>  <hbond:ILE:123>  (4) 
hbond:ILE:123    NaN
hbond:ILE:123     -1
Name: 3, dtype: object

>  <hydroph_interaction:VAL:124>  (4) 
hydroph_interaction:VAL:124    1.0
hydroph_interaction:VAL:124      1
Name: 3, dtype: object

>  <hbond:VAL:124>  (4) 
hbond:VAL:124    NaN
hbond:VAL:124     -1
Name: 3, dtype: object

>  <halogenbond:VAL:124>  (4) 
halogenbond:VAL:124    NaN
halogenbond:VAL:124     -1
Name: 3, dtype: object

>  <hbond:SER:125>  (4) 
hbond:SER:125    0
hbond:SER:125    0
Name: 3, dtype: object

>  <halogenbond:SER:125>  (4) 
halogenbond:SER:125    0.0
halogenbond:SER:125      0
Name: 3, dtype: object

>  <hydroph_interaction:THR:126>  (4) 
hydroph_interaction:THR:126    0.0
hydroph_interaction:THR:126      0
Name: 3, dtype: object

>  <hbond:THR:126>  (4) 
hbond:THR:126    0.0
hbond:THR:126      0
Name: 3, dtype: object

>  <halogenbond:THR:126>  (4) 
halogenbond:THR:126    NaN
halogenbond:THR:126     -1
Name: 3, dtype: object

>  <hbond:GLY:127>  (4) 
hbond:GLY:127    2
hbond:GLY:127    2
Name: 3, dtype: object

>  <halogenbond:GLY:127>  (4) 
halogenbond:GLY:127    NaN
halogenbond:GLY:127     -1
Name: 3, dtype: object

>  <hydroph_interaction:GLY:127>  (4) 
hydroph_interaction:GLY:127    NaN
hydroph_interaction:GLY:127     -1
Name: 3, dtype: object

>  <hbond:GLY:128>  (4) 
hbond:GLY:128    NaN
hbond:GLY:128     -1
Name: 3, dtype: object

>  <halogenbond:GLY:128>  (4) 
halogenbond:GLY:128    NaN
halogenbond:GLY:128     -1
Name: 3, dtype: object

>  <hydroph_interaction:GLY:128>  (4) 
hydroph_interaction:GLY:128    NaN
hydroph_interaction:GLY:128     -1
Name: 3, dtype: object

>  <hbond:ASN:129>  (4) 
hbond:ASN:129    NaN
hbond:ASN:129     -1
Name: 3, dtype: object

>  <hydroph_interaction:ASN:129>  (4) 
hydroph_interaction:ASN:129    NaN
hydroph_interaction:ASN:129     -1
Name: 3, dtype: object

>  <halogenbond:ASN:129>  (4) 
halogenbond:ASN:129    NaN
halogenbond:ASN:129     -1
Name: 3, dtype: object

>  <hbond:GLY:130>  (4) 
hbond:GLY:130    NaN
hbond:GLY:130     -1
Name: 3, dtype: object

>  <hbond:LEU:131>  (4) 
hbond:LEU:131    NaN
hbond:LEU:131     -1
Name: 3, dtype: object

>  <hydroph_interaction:LEU:131>  (4) 
hydroph_interaction:LEU:131    NaN
hydroph_interaction:LEU:131     -1
Name: 3, dtype: object

>  <halogenbond:LEU:131>  (4) 
halogenbond:LEU:131    NaN
halogenbond:LEU:131     -1
Name: 3, dtype: object

>  <hydroph_interaction:VAL:132>  (4) 
hydroph_interaction:VAL:132    NaN
hydroph_interaction:VAL:132     -1
Name: 3, dtype: object

>  <hbond:VAL:132>  (4) 
hbond:VAL:132    NaN
hbond:VAL:132     -1
Name: 3, dtype: object

>  <hbond:GLY:133>  (4) 
hbond:GLY:133    NaN
hbond:GLY:133     -1
Name: 3, dtype: object

>  <halogenbond:GLY:133>  (4) 
halogenbond:GLY:133    NaN
halogenbond:GLY:133     -1
Name: 3, dtype: object

>  <hydroph_interaction:PHE:134>  (4) 
hydroph_interaction:PHE:134    NaN
hydroph_interaction:PHE:134     -1
Name: 3, dtype: object

>  <hbond:PHE:134>  (4) 
hbond:PHE:134    NaN
hbond:PHE:134     -1
Name: 3, dtype: object

>  <pistack:PHE:134>  (4) 
pistack:PHE:134    NaN
pistack:PHE:134     -1
Name: 3, dtype: object

>  <pication:PHE:134>  (4) 
pication:PHE:134    NaN
pication:PHE:134     -1
Name: 3, dtype: object

>  <halogenbond:PHE:134>  (4) 
halogenbond:PHE:134    NaN
halogenbond:PHE:134     -1
Name: 3, dtype: object

>  <hydroph_interaction:ALA:135>  (4) 
hydroph_interaction:ALA:135    NaN
hydroph_interaction:ALA:135     -1
Name: 3, dtype: object

>  <hbond:ALA:135>  (4) 
hbond:ALA:135    NaN
hbond:ALA:135     -1
Name: 3, dtype: object

$$$$
Z2724541022
     RDKit          3D

 27 27  0  0  0  0  0  0  0  0999 V2000
    7.3020   13.6190   24.5670 C   0  0  0  0  0  0  0  0  0  0  0  0
    8.5970   13.4960   23.9700 O   0  0  0  0  0  0  0  0  0  0  0  0
    9.0250   12.2000   23.9630 C   0  0  0  0  0  0  0  0  0  0  0  0
    8.6200   11.3390   24.7350 O   0  0  0  0  0  0  0  0  0  0  0  0
    9.9400   11.9670   22.9970 N   0  0  0  0  0  0  0  0  0  0  0  0
   10.8950   12.9330   22.5700 N   0  0  0  0  0  0  0  0  0  0  0  0
   11.4610   13.7880   23.5290 C   0  0  0  0  0  0  0  0  0  0  0  0
   10.8730   13.9790   24.5820 O   0  0  0  0  0  0  0  0  0  0  0  0
   12.8010   14.5140   23.3070 C   0  0  0  0  0  0  0  0  0  0  0  0
   13.7100   13.9120   22.3630 N   0  0  0  0  0  0  0  0  0  0  0  0
   13.2250   13.6690   21.1000 N   0  0  0  0  0  0  0  0  0  0  0  0
   14.2610   13.1150   20.4610 C   0  0  0  0  0  0  0  0  0  0  0  0
   15.4530   13.0070   21.3290 C   0  0  0  0  0  0  0  0  0  0  0  0
   15.0300   13.5140   22.4960 C   0  0  0  0  0  0  0  0  0  0  0  0
   15.7410   13.6460   23.7100 C   0  0  0  0  0  0  0  0  0  0  0  0
    6.5720   14.0010   23.8470 H   0  0  0  0  0  0  0  0  0  0  0  0
    6.9480   12.6550   24.9510 H   0  0  0  0  0  0  0  0  0  0  0  0
    7.3680   14.3260   25.4010 H   0  0  0  0  0  0  0  0  0  0  0  0
   10.1260   11.0010   22.7450 H   0  0  0  0  0  0  0  0  0  0  0  0
   11.2900   12.7910   21.6250 H   0  0  0  0  0  0  0  0  0  0  0  0
   12.6160   15.5480   23.0160 H   0  0  0  0  0  0  0  0  0  0  0  0
   13.3260   14.5550   24.2660 H   0  0  0  0  0  0  0  0  0  0  0  0
   14.2820   12.7710   19.4520 H   0  0  0  0  0  0  0  0  0  0  0  0
   16.4350   12.5990   21.0770 H   0  0  0  0  0  0  0  0  0  0  0  0
   15.9800   12.6240   24.0220 H   0  0  0  0  0  0  0  0  0  0  0  0
   15.3240   14.1390   24.5810 H   0  0  0  0  0  0  0  0  0  0  0  0
   16.6890   14.1440   23.4940 H   0  0  0  0  0  0  0  0  0  0  0  0
  1  2  1  0
  2  3  1  0
  3  4  2  0
  3  5  1  0
  5  6  1  0
  6  7  1  0
  7  8  2  0
  7  9  1  0
  9 10  1  0
 10 11  1  0
 11 12  2  0
 12 13  1  0
 13 14  2  0
 14 15  1  0
 14 10  1  0
  1 16  1  0
  1 17  1  0
  1 18  1  0
  5 19  1  0
  6 20  1  0
  9 21  1  0
  9 22  1  0
 12 23  1  0
 13 24  1  0
 15 25  1  0
 15 26  1  0
 15 27  1  0
A    1
 C1 
A    2
 O1 
A    3
 C2 
A    4
 O2 
A    5
 N1 
A    6
 N2 
A    7
 C3 
A    8
 O3 
A    9
 C4 
A   10
 N3 
A   11
 N4 
A   12
 C5 
A   13
 C6 
A   14
 C7 
A   15
 C8 
A   16
 H1 
A   17
 H2 
A   18
 H3 
A   19
 H4 
A   20
 H5 
A   21
 H6 
A   22
 H7 
A   23
 H8 
A   24
 H9 
A   25
 H10
A   26
 H11
A   27
 H12
M  END
>  <ref_pdb>  (5) 
x0310_0A

>  <ref_mols>  (5) 
x0451_0A,x0554_0A

>  <original SMILES>  (5) 
COC(=O)NNC(=O)Cn1nccc1C

>  <rationale>  (5) 
info halogenbond:C110+A86+S125+E85+E106+E88+T126+H104+Y64+C65+S87+N129+F83+R93+L131+I82+G128+P91+N19+H21+V84+G133+Y90+Y89+H97+L81+F134+L98+R20+G103+S66+S67+S7+G108+R38+V124+M99+S36; hbond:S87+S125+Q95+D39+E85+G108+G103+N129+N19+H104+R68+V124+R93+P91+F83+S67+S7+S66+G112+G133+V132+R20+Y89+S77+A135+Y63+A92+A101+M99+F134+L100+I82+Y64+S36+L98+V84+L81+Y94+S80+R38+S37+V102+G8+I123+G111+I113+L114+C65+L22+S96; hydroph_interaction:Y89+H21+L22+D39+N19+L40+I123+A135+Q95+I82+L98+F83+R93+H104+R20+A86+V74+P91+A101+F76+M99+L114+A92+Y94+R68+Y72+Y64+V18+V102+W28+G127+G128+L81; pication:H104+R93+Y63+F134+Y90+R68+F83+R20; pistack:H21+Y89+Y90+H104+F134+F83+Y94; saltbridge:D39+R93+H104+E106+D109+E85+E88+R68+R20; 

>  <intxn_cluster>  (5) 
-1

>  <intxn_cluster_rank>  (5) 
-1

>  <N_interactions>  (5) 
8

>  <∆∆G>  (5) 
-6.398748

>  <$/mg>  (5) 
163.0

>  <comRMSD>  (5) 
0.752237

>  <N_rotatable_bonds>  (5) 
4

>  <deep_P1_sidechain>  (5) 
nan

>  <farthest_distance_to_substrate>  (5) 
3.17853

>  <hbond:SER:7>  (5) 
hbond:SER:7    NaN
hbond:SER:7     -1
Name: 4, dtype: object

>  <halogenbond:SER:7>  (5) 
halogenbond:SER:7    NaN
halogenbond:SER:7     -1
Name: 4, dtype: object

>  <hbond:GLY:8>  (5) 
hbond:GLY:8    NaN
hbond:GLY:8     -1
Name: 4, dtype: object

>  <hydroph_interaction:VAL:18>  (5) 
hydroph_interaction:VAL:18    NaN
hydroph_interaction:VAL:18     -1
Name: 4, dtype: object

>  <hbond:ASN:19>  (5) 
hbond:ASN:19    NaN
hbond:ASN:19     -1
Name: 4, dtype: object

>  <hydroph_interaction:ASN:19>  (5) 
hydroph_interaction:ASN:19    1.0
hydroph_interaction:ASN:19      1
Name: 4, dtype: object

>  <halogenbond:ASN:19>  (5) 
halogenbond:ASN:19    NaN
halogenbond:ASN:19     -1
Name: 4, dtype: object

>  <hbond:ARG:20>  (5) 
hbond:ARG:20    NaN
hbond:ARG:20     -1
Name: 4, dtype: object

>  <hydroph_interaction:ARG:20>  (5) 
hydroph_interaction:ARG:20    NaN
hydroph_interaction:ARG:20     -1
Name: 4, dtype: object

>  <saltbridge:ARG:20>  (5) 
saltbridge:ARG:20    NaN
saltbridge:ARG:20     -1
Name: 4, dtype: object

>  <halogenbond:ARG:20>  (5) 
halogenbond:ARG:20    NaN
halogenbond:ARG:20     -1
Name: 4, dtype: object

>  <pication:ARG:20>  (5) 
pication:ARG:20    NaN
pication:ARG:20     -1
Name: 4, dtype: object

>  <hbond:HIS:21>  (5) 
hbond:HIS:21    0.0
hbond:HIS:21      0
Name: 4, dtype: object

>  <hydroph_interaction:HIS:21>  (5) 
hydroph_interaction:HIS:21    1.0
hydroph_interaction:HIS:21      1
Name: 4, dtype: object

>  <pistack:HIS:21>  (5) 
pistack:HIS:21    1.0
pistack:HIS:21      1
Name: 4, dtype: object

>  <pication:HIS:21>  (5) 
pication:HIS:21    0.0
pication:HIS:21      0
Name: 4, dtype: object

>  <saltbridge:HIS:21>  (5) 
saltbridge:HIS:21    0.0
saltbridge:HIS:21      0
Name: 4, dtype: object

>  <halogenbond:HIS:21>  (5) 
halogenbond:HIS:21    NaN
halogenbond:HIS:21     -1
Name: 4, dtype: object

>  <hydroph_interaction:LEU:22>  (5) 
hydroph_interaction:LEU:22    1.0
hydroph_interaction:LEU:22      1
Name: 4, dtype: object

>  <hbond:LEU:22>  (5) 
hbond:LEU:22    NaN
hbond:LEU:22     -1
Name: 4, dtype: object

>  <hydroph_interaction:TRP:28>  (5) 
hydroph_interaction:TRP:28    NaN
hydroph_interaction:TRP:28     -1
Name: 4, dtype: object

>  <hbond:SER:36>  (5) 
hbond:SER:36    NaN
hbond:SER:36     -1
Name: 4, dtype: object

>  <halogenbond:SER:36>  (5) 
halogenbond:SER:36    NaN
halogenbond:SER:36     -1
Name: 4, dtype: object

>  <hbond:SER:37>  (5) 
hbond:SER:37    NaN
hbond:SER:37     -1
Name: 4, dtype: object

>  <hbond:ARG:38>  (5) 
hbond:ARG:38    NaN
hbond:ARG:38     -1
Name: 4, dtype: object

>  <halogenbond:ARG:38>  (5) 
halogenbond:ARG:38    NaN
halogenbond:ARG:38     -1
Name: 4, dtype: object

>  <saltbridge:ASP:39>  (5) 
saltbridge:ASP:39    NaN
saltbridge:ASP:39     -1
Name: 4, dtype: object

>  <halogenbond:ASP:39>  (5) 
halogenbond:ASP:39    0.0
halogenbond:ASP:39      0
Name: 4, dtype: object

>  <hbond:ASP:39>  (5) 
hbond:ASP:39    NaN
hbond:ASP:39     -1
Name: 4, dtype: object

>  <hydroph_interaction:ASP:39>  (5) 
hydroph_interaction:ASP:39    NaN
hydroph_interaction:ASP:39     -1
Name: 4, dtype: object

>  <hydroph_interaction:LEU:40>  (5) 
hydroph_interaction:LEU:40    NaN
hydroph_interaction:LEU:40     -1
Name: 4, dtype: object

>  <hydroph_interaction:TYR:63>  (5) 
hydroph_interaction:TYR:63    0.0
hydroph_interaction:TYR:63      0
Name: 4, dtype: object

>  <hbond:TYR:63>  (5) 
hbond:TYR:63    NaN
hbond:TYR:63     -1
Name: 4, dtype: object

>  <pistack:TYR:63>  (5) 
pistack:TYR:63    0.0
pistack:TYR:63      0
Name: 4, dtype: object

>  <pication:TYR:63>  (5) 
pication:TYR:63    NaN
pication:TYR:63     -1
Name: 4, dtype: object

>  <halogenbond:TYR:64>  (5) 
halogenbond:TYR:64    NaN
halogenbond:TYR:64     -1
Name: 4, dtype: object

>  <hbond:TYR:64>  (5) 
hbond:TYR:64    NaN
hbond:TYR:64     -1
Name: 4, dtype: object

>  <hydroph_interaction:TYR:64>  (5) 
hydroph_interaction:TYR:64    NaN
hydroph_interaction:TYR:64     -1
Name: 4, dtype: object

>  <halogenbond:CYS:65>  (5) 
halogenbond:CYS:65    NaN
halogenbond:CYS:65     -1
Name: 4, dtype: object

>  <hbond:CYS:65>  (5) 
hbond:CYS:65    NaN
hbond:CYS:65     -1
Name: 4, dtype: object

>  <hbond:SER:66>  (5) 
hbond:SER:66    NaN
hbond:SER:66     -1
Name: 4, dtype: object

>  <halogenbond:SER:66>  (5) 
halogenbond:SER:66    NaN
halogenbond:SER:66     -1
Name: 4, dtype: object

>  <hbond:SER:67>  (5) 
hbond:SER:67    NaN
hbond:SER:67     -1
Name: 4, dtype: object

>  <halogenbond:SER:67>  (5) 
halogenbond:SER:67    NaN
halogenbond:SER:67     -1
Name: 4, dtype: object

>  <hbond:ARG:68>  (5) 
hbond:ARG:68    NaN
hbond:ARG:68     -1
Name: 4, dtype: object

>  <saltbridge:ARG:68>  (5) 
saltbridge:ARG:68    NaN
saltbridge:ARG:68     -1
Name: 4, dtype: object

>  <hydroph_interaction:ARG:68>  (5) 
hydroph_interaction:ARG:68    NaN
hydroph_interaction:ARG:68     -1
Name: 4, dtype: object

>  <pication:ARG:68>  (5) 
pication:ARG:68    NaN
pication:ARG:68     -1
Name: 4, dtype: object

>  <hydroph_interaction:TYR:72>  (5) 
hydroph_interaction:TYR:72    NaN
hydroph_interaction:TYR:72     -1
Name: 4, dtype: object

>  <hydroph_interaction:VAL:74>  (5) 
hydroph_interaction:VAL:74    NaN
hydroph_interaction:VAL:74     -1
Name: 4, dtype: object

>  <hydroph_interaction:PHE:76>  (5) 
hydroph_interaction:PHE:76    NaN
hydroph_interaction:PHE:76     -1
Name: 4, dtype: object

>  <hbond:SER:77>  (5) 
hbond:SER:77    NaN
hbond:SER:77     -1
Name: 4, dtype: object

>  <hbond:SER:80>  (5) 
hbond:SER:80    NaN
hbond:SER:80     -1
Name: 4, dtype: object

>  <hbond:LEU:81>  (5) 
hbond:LEU:81    NaN
hbond:LEU:81     -1
Name: 4, dtype: object

>  <halogenbond:LEU:81>  (5) 
halogenbond:LEU:81    NaN
halogenbond:LEU:81     -1
Name: 4, dtype: object

>  <hydroph_interaction:LEU:81>  (5) 
hydroph_interaction:LEU:81    NaN
hydroph_interaction:LEU:81     -1
Name: 4, dtype: object

>  <hydroph_interaction:ILE:82>  (5) 
hydroph_interaction:ILE:82    NaN
hydroph_interaction:ILE:82     -1
Name: 4, dtype: object

>  <halogenbond:ILE:82>  (5) 
halogenbond:ILE:82    NaN
halogenbond:ILE:82     -1
Name: 4, dtype: object

>  <hbond:ILE:82>  (5) 
hbond:ILE:82    NaN
hbond:ILE:82     -1
Name: 4, dtype: object

>  <hbond:PHE:83>  (5) 
hbond:PHE:83    NaN
hbond:PHE:83     -1
Name: 4, dtype: object

>  <hydroph_interaction:PHE:83>  (5) 
hydroph_interaction:PHE:83    NaN
hydroph_interaction:PHE:83     -1
Name: 4, dtype: object

>  <halogenbond:PHE:83>  (5) 
halogenbond:PHE:83    NaN
halogenbond:PHE:83     -1
Name: 4, dtype: object

>  <pistack:PHE:83>  (5) 
pistack:PHE:83    NaN
pistack:PHE:83     -1
Name: 4, dtype: object

>  <pication:PHE:83>  (5) 
pication:PHE:83    NaN
pication:PHE:83     -1
Name: 4, dtype: object

>  <hydroph_interaction:VAL:84>  (5) 
hydroph_interaction:VAL:84    0.0
hydroph_interaction:VAL:84      0
Name: 4, dtype: object

>  <halogenbond:VAL:84>  (5) 
halogenbond:VAL:84    NaN
halogenbond:VAL:84     -1
Name: 4, dtype: object

>  <hbond:VAL:84>  (5) 
hbond:VAL:84    NaN
hbond:VAL:84     -1
Name: 4, dtype: object

>  <hydroph_interaction:GLU:85>  (5) 
hydroph_interaction:GLU:85    0.0
hydroph_interaction:GLU:85      0
Name: 4, dtype: object

>  <hbond:GLU:85>  (5) 
hbond:GLU:85    NaN
hbond:GLU:85     -1
Name: 4, dtype: object

>  <halogenbond:GLU:85>  (5) 
halogenbond:GLU:85    NaN
halogenbond:GLU:85     -1
Name: 4, dtype: object

>  <saltbridge:GLU:85>  (5) 
saltbridge:GLU:85    NaN
saltbridge:GLU:85     -1
Name: 4, dtype: object

>  <halogenbond:ALA:86>  (5) 
halogenbond:ALA:86    NaN
halogenbond:ALA:86     -1
Name: 4, dtype: object

>  <hbond:ALA:86>  (5) 
hbond:ALA:86    0.0
hbond:ALA:86      0
Name: 4, dtype: object

>  <hydroph_interaction:ALA:86>  (5) 
hydroph_interaction:ALA:86    NaN
hydroph_interaction:ALA:86     -1
Name: 4, dtype: object

>  <hbond:SER:87>  (5) 
hbond:SER:87    1
hbond:SER:87    1
Name: 4, dtype: object

>  <halogenbond:SER:87>  (5) 
halogenbond:SER:87    NaN
halogenbond:SER:87     -1
Name: 4, dtype: object

>  <hbond:GLU:88>  (5) 
hbond:GLU:88    0.0
hbond:GLU:88      0
Name: 4, dtype: object

>  <hydroph_interaction:GLU:88>  (5) 
hydroph_interaction:GLU:88    0.0
hydroph_interaction:GLU:88      0
Name: 4, dtype: object

>  <halogenbond:GLU:88>  (5) 
halogenbond:GLU:88    NaN
halogenbond:GLU:88     -1
Name: 4, dtype: object

>  <saltbridge:GLU:88>  (5) 
saltbridge:GLU:88    NaN
saltbridge:GLU:88     -1
Name: 4, dtype: object

>  <hydroph_interaction:TYR:89>  (5) 
hydroph_interaction:TYR:89    1.0
hydroph_interaction:TYR:89      1
Name: 4, dtype: object

>  <pistack:TYR:89>  (5) 
pistack:TYR:89    NaN
pistack:TYR:89     -1
Name: 4, dtype: object

>  <hbond:TYR:89>  (5) 
hbond:TYR:89    NaN
hbond:TYR:89     -1
Name: 4, dtype: object

>  <halogenbond:TYR:89>  (5) 
halogenbond:TYR:89    NaN
halogenbond:TYR:89     -1
Name: 4, dtype: object

>  <hydroph_interaction:TYR:90>  (5) 
hydroph_interaction:TYR:90    0.0
hydroph_interaction:TYR:90      0
Name: 4, dtype: object

>  <hbond:TYR:90>  (5) 
hbond:TYR:90    0.0
hbond:TYR:90      0
Name: 4, dtype: object

>  <pistack:TYR:90>  (5) 
pistack:TYR:90    NaN
pistack:TYR:90     -1
Name: 4, dtype: object

>  <halogenbond:TYR:90>  (5) 
halogenbond:TYR:90    NaN
halogenbond:TYR:90     -1
Name: 4, dtype: object

>  <pication:TYR:90>  (5) 
pication:TYR:90    NaN
pication:TYR:90     -1
Name: 4, dtype: object

>  <hbond:PRO:91>  (5) 
hbond:PRO:91    NaN
hbond:PRO:91     -1
Name: 4, dtype: object

>  <hydroph_interaction:PRO:91>  (5) 
hydroph_interaction:PRO:91    NaN
hydroph_interaction:PRO:91     -1
Name: 4, dtype: object

>  <halogenbond:PRO:91>  (5) 
halogenbond:PRO:91    NaN
halogenbond:PRO:91     -1
Name: 4, dtype: object

>  <hbond:ALA:92>  (5) 
hbond:ALA:92    NaN
hbond:ALA:92     -1
Name: 4, dtype: object

>  <hydroph_interaction:ALA:92>  (5) 
hydroph_interaction:ALA:92    NaN
hydroph_interaction:ALA:92     -1
Name: 4, dtype: object

>  <saltbridge:ARG:93>  (5) 
saltbridge:ARG:93    NaN
saltbridge:ARG:93     -1
Name: 4, dtype: object

>  <hbond:ARG:93>  (5) 
hbond:ARG:93    NaN
hbond:ARG:93     -1
Name: 4, dtype: object

>  <hydroph_interaction:ARG:93>  (5) 
hydroph_interaction:ARG:93    NaN
hydroph_interaction:ARG:93     -1
Name: 4, dtype: object

>  <halogenbond:ARG:93>  (5) 
halogenbond:ARG:93    NaN
halogenbond:ARG:93     -1
Name: 4, dtype: object

>  <pication:ARG:93>  (5) 
pication:ARG:93    NaN
pication:ARG:93     -1
Name: 4, dtype: object

>  <hydroph_interaction:TYR:94>  (5) 
hydroph_interaction:TYR:94    NaN
hydroph_interaction:TYR:94     -1
Name: 4, dtype: object

>  <pistack:TYR:94>  (5) 
pistack:TYR:94    NaN
pistack:TYR:94     -1
Name: 4, dtype: object

>  <hbond:TYR:94>  (5) 
hbond:TYR:94    NaN
hbond:TYR:94     -1
Name: 4, dtype: object

>  <hbond:GLN:95>  (5) 
hbond:GLN:95    NaN
hbond:GLN:95     -1
Name: 4, dtype: object

>  <hydroph_interaction:GLN:95>  (5) 
hydroph_interaction:GLN:95    NaN
hydroph_interaction:GLN:95     -1
Name: 4, dtype: object

>  <halogenbond:GLN:95>  (5) 
halogenbond:GLN:95    0.0
halogenbond:GLN:95      0
Name: 4, dtype: object

>  <hbond:SER:96>  (5) 
hbond:SER:96    NaN
hbond:SER:96     -1
Name: 4, dtype: object

>  <halogenbond:HIS:97>  (5) 
halogenbond:HIS:97    NaN
halogenbond:HIS:97     -1
Name: 4, dtype: object

>  <hydroph_interaction:LEU:98>  (5) 
hydroph_interaction:LEU:98    NaN
hydroph_interaction:LEU:98     -1
Name: 4, dtype: object

>  <hbond:LEU:98>  (5) 
hbond:LEU:98    NaN
hbond:LEU:98     -1
Name: 4, dtype: object

>  <halogenbond:LEU:98>  (5) 
halogenbond:LEU:98    NaN
halogenbond:LEU:98     -1
Name: 4, dtype: object

>  <hbond:MET:99>  (5) 
hbond:MET:99    NaN
hbond:MET:99     -1
Name: 4, dtype: object

>  <hydroph_interaction:MET:99>  (5) 
hydroph_interaction:MET:99    NaN
hydroph_interaction:MET:99     -1
Name: 4, dtype: object

>  <halogenbond:MET:99>  (5) 
halogenbond:MET:99    NaN
halogenbond:MET:99     -1
Name: 4, dtype: object

>  <hydroph_interaction:LEU:100>  (5) 
hydroph_interaction:LEU:100    0.0
hydroph_interaction:LEU:100      0
Name: 4, dtype: object

>  <hbond:LEU:100>  (5) 
hbond:LEU:100    NaN
hbond:LEU:100     -1
Name: 4, dtype: object

>  <hbond:ALA:101>  (5) 
hbond:ALA:101    NaN
hbond:ALA:101     -1
Name: 4, dtype: object

>  <hydroph_interaction:ALA:101>  (5) 
hydroph_interaction:ALA:101    NaN
hydroph_interaction:ALA:101     -1
Name: 4, dtype: object

>  <hydroph_interaction:VAL:102>  (5) 
hydroph_interaction:VAL:102    NaN
hydroph_interaction:VAL:102     -1
Name: 4, dtype: object

>  <hbond:VAL:102>  (5) 
hbond:VAL:102    NaN
hbond:VAL:102     -1
Name: 4, dtype: object

>  <hbond:GLY:103>  (5) 
hbond:GLY:103    NaN
hbond:GLY:103     -1
Name: 4, dtype: object

>  <halogenbond:GLY:103>  (5) 
halogenbond:GLY:103    NaN
halogenbond:GLY:103     -1
Name: 4, dtype: object

>  <hbond:HIS:104>  (5) 
hbond:HIS:104    NaN
hbond:HIS:104     -1
Name: 4, dtype: object

>  <saltbridge:HIS:104>  (5) 
saltbridge:HIS:104    NaN
saltbridge:HIS:104     -1
Name: 4, dtype: object

>  <pication:HIS:104>  (5) 
pication:HIS:104    NaN
pication:HIS:104     -1
Name: 4, dtype: object

>  <halogenbond:HIS:104>  (5) 
halogenbond:HIS:104    NaN
halogenbond:HIS:104     -1
Name: 4, dtype: object

>  <hydroph_interaction:HIS:104>  (5) 
hydroph_interaction:HIS:104    NaN
hydroph_interaction:HIS:104     -1
Name: 4, dtype: object

>  <pistack:HIS:104>  (5) 
pistack:HIS:104    NaN
pistack:HIS:104     -1
Name: 4, dtype: object

>  <halogenbond:SER:105>  (5) 
halogenbond:SER:105    0.0
halogenbond:SER:105      0
Name: 4, dtype: object

>  <hbond:SER:105>  (5) 
hbond:SER:105    0.0
hbond:SER:105      0
Name: 4, dtype: object

>  <hbond:GLU:106>  (5) 
hbond:GLU:106    0.0
hbond:GLU:106      0
Name: 4, dtype: object

>  <hydroph_interaction:GLU:106>  (5) 
hydroph_interaction:GLU:106    0.0
hydroph_interaction:GLU:106      0
Name: 4, dtype: object

>  <saltbridge:GLU:106>  (5) 
saltbridge:GLU:106    NaN
saltbridge:GLU:106     -1
Name: 4, dtype: object

>  <halogenbond:GLU:106>  (5) 
halogenbond:GLU:106    NaN
halogenbond:GLU:106     -1
Name: 4, dtype: object

>  <hydroph_interaction:PRO:107>  (5) 
hydroph_interaction:PRO:107    0
hydroph_interaction:PRO:107    0
Name: 4, dtype: object

>  <hbond:PRO:107>  (5) 
hbond:PRO:107    0.0
hbond:PRO:107      0
Name: 4, dtype: object

>  <halogenbond:PRO:107>  (5) 
halogenbond:PRO:107    0.0
halogenbond:PRO:107      0
Name: 4, dtype: object

>  <hbond:GLY:108>  (5) 
hbond:GLY:108    NaN
hbond:GLY:108     -1
Name: 4, dtype: object

>  <halogenbond:GLY:108>  (5) 
halogenbond:GLY:108    NaN
halogenbond:GLY:108     -1
Name: 4, dtype: object

>  <hbond:ASP:109>  (5) 
hbond:ASP:109    0.0
hbond:ASP:109      0
Name: 4, dtype: object

>  <hydroph_interaction:ASP:109>  (5) 
hydroph_interaction:ASP:109    0.0
hydroph_interaction:ASP:109      0
Name: 4, dtype: object

>  <saltbridge:ASP:109>  (5) 
saltbridge:ASP:109    NaN
saltbridge:ASP:109     -1
Name: 4, dtype: object

>  <halogenbond:CYS:110>  (5) 
halogenbond:CYS:110    NaN
halogenbond:CYS:110     -1
Name: 4, dtype: object

>  <hbond:CYS:110>  (5) 
hbond:CYS:110    0.0
hbond:CYS:110      0
Name: 4, dtype: object

>  <hbond:GLY:111>  (5) 
hbond:GLY:111    NaN
hbond:GLY:111     -1
Name: 4, dtype: object

>  <hbond:GLY:112>  (5) 
hbond:GLY:112    NaN
hbond:GLY:112     -1
Name: 4, dtype: object

>  <hbond:ILE:113>  (5) 
hbond:ILE:113    NaN
hbond:ILE:113     -1
Name: 4, dtype: object

>  <hydroph_interaction:LEU:114>  (5) 
hydroph_interaction:LEU:114    NaN
hydroph_interaction:LEU:114     -1
Name: 4, dtype: object

>  <hbond:LEU:114>  (5) 
hbond:LEU:114    NaN
hbond:LEU:114     -1
Name: 4, dtype: object

>  <hydroph_interaction:ILE:123>  (5) 
hydroph_interaction:ILE:123    NaN
hydroph_interaction:ILE:123     -1
Name: 4, dtype: object

>  <hbond:ILE:123>  (5) 
hbond:ILE:123    NaN
hbond:ILE:123     -1
Name: 4, dtype: object

>  <hydroph_interaction:VAL:124>  (5) 
hydroph_interaction:VAL:124    0.0
hydroph_interaction:VAL:124      0
Name: 4, dtype: object

>  <hbond:VAL:124>  (5) 
hbond:VAL:124    NaN
hbond:VAL:124     -1
Name: 4, dtype: object

>  <halogenbond:VAL:124>  (5) 
halogenbond:VAL:124    NaN
halogenbond:VAL:124     -1
Name: 4, dtype: object

>  <hbond:SER:125>  (5) 
hbond:SER:125    2
hbond:SER:125    2
Name: 4, dtype: object

>  <halogenbond:SER:125>  (5) 
halogenbond:SER:125    NaN
halogenbond:SER:125     -1
Name: 4, dtype: object

>  <hydroph_interaction:THR:126>  (5) 
hydroph_interaction:THR:126    0.0
hydroph_interaction:THR:126      0
Name: 4, dtype: object

>  <hbond:THR:126>  (5) 
hbond:THR:126    0.0
hbond:THR:126      0
Name: 4, dtype: object

>  <halogenbond:THR:126>  (5) 
halogenbond:THR:126    NaN
halogenbond:THR:126     -1
Name: 4, dtype: object

>  <hbond:GLY:127>  (5) 
hbond:GLY:127    0
hbond:GLY:127    0
Name: 4, dtype: object

>  <halogenbond:GLY:127>  (5) 
halogenbond:GLY:127    0.0
halogenbond:GLY:127      0
Name: 4, dtype: object

>  <hydroph_interaction:GLY:127>  (5) 
hydroph_interaction:GLY:127    NaN
hydroph_interaction:GLY:127     -1
Name: 4, dtype: object

>  <hbond:GLY:128>  (5) 
hbond:GLY:128    0.0
hbond:GLY:128      0
Name: 4, dtype: object

>  <halogenbond:GLY:128>  (5) 
halogenbond:GLY:128    NaN
halogenbond:GLY:128     -1
Name: 4, dtype: object

>  <hydroph_interaction:GLY:128>  (5) 
hydroph_interaction:GLY:128    NaN
hydroph_interaction:GLY:128     -1
Name: 4, dtype: object

>  <hbond:ASN:129>  (5) 
hbond:ASN:129    NaN
hbond:ASN:129     -1
Name: 4, dtype: object

>  <hydroph_interaction:ASN:129>  (5) 
hydroph_interaction:ASN:129    0.0
hydroph_interaction:ASN:129      0
Name: 4, dtype: object

>  <halogenbond:ASN:129>  (5) 
halogenbond:ASN:129    NaN
halogenbond:ASN:129     -1
Name: 4, dtype: object

>  <hbond:GLY:130>  (5) 
hbond:GLY:130    0.0
hbond:GLY:130      0
Name: 4, dtype: object

>  <hbond:LEU:131>  (5) 
hbond:LEU:131    0.0
hbond:LEU:131      0
Name: 4, dtype: object

>  <hydroph_interaction:LEU:131>  (5) 
hydroph_interaction:LEU:131    0.0
hydroph_interaction:LEU:131      0
Name: 4, dtype: object

>  <halogenbond:LEU:131>  (5) 
halogenbond:LEU:131    NaN
halogenbond:LEU:131     -1
Name: 4, dtype: object

>  <hydroph_interaction:VAL:132>  (5) 
hydroph_interaction:VAL:132    0.0
hydroph_interaction:VAL:132      0
Name: 4, dtype: object

>  <hbond:VAL:132>  (5) 
hbond:VAL:132    NaN
hbond:VAL:132     -1
Name: 4, dtype: object

>  <hbond:GLY:133>  (5) 
hbond:GLY:133    NaN
hbond:GLY:133     -1
Name: 4, dtype: object

>  <halogenbond:GLY:133>  (5) 
halogenbond:GLY:133    NaN
halogenbond:GLY:133     -1
Name: 4, dtype: object

>  <hydroph_interaction:PHE:134>  (5) 
hydroph_interaction:PHE:134    0.0
hydroph_interaction:PHE:134      0
Name: 4, dtype: object

>  <hbond:PHE:134>  (5) 
hbond:PHE:134    NaN
hbond:PHE:134     -1
Name: 4, dtype: object

>  <pistack:PHE:134>  (5) 
pistack:PHE:134    NaN
pistack:PHE:134     -1
Name: 4, dtype: object

>  <pication:PHE:134>  (5) 
pication:PHE:134    NaN
pication:PHE:134     -1
Name: 4, dtype: object

>  <halogenbond:PHE:134>  (5) 
halogenbond:PHE:134    NaN
halogenbond:PHE:134     -1
Name: 4, dtype: object

>  <hydroph_interaction:ALA:135>  (5) 
hydroph_interaction:ALA:135    NaN
hydroph_interaction:ALA:135     -1
Name: 4, dtype: object

>  <hbond:ALA:135>  (5) 
hbond:ALA:135    NaN
hbond:ALA:135     -1
Name: 4, dtype: object

$$$$
Z2348971297
     RDKit          3D

 33 33  0  0  0  0  0  0  0  0999 V2000
   12.7350   13.7870   23.1150 C   0  0  0  0  0  0  0  0  0  0  0  0
   12.9770   15.2180   22.6810 C   0  0  0  0  0  0  0  0  0  0  0  0
   12.1260   15.6320   21.5680 N   0  0  0  0  0  0  0  0  0  0  0  0
   12.1930   17.0220   21.2600 C   0  0  0  0  0  0  0  0  0  0  0  0
   10.8770   15.0940   21.3520 C   0  0  0  0  0  0  0  0  0  0  0  0
   10.0410   15.6530   20.6390 O   0  0  0  0  0  0  0  0  0  0  0  0
   10.6450   13.9230   22.0030 N   0  0  0  0  0  0  0  0  0  0  0  0
    9.8050   13.9360   23.1770 C   0  0  0  0  0  0  0  0  0  0  0  0
    9.4110   12.6750   23.5670 C   0  0  0  0  0  0  0  0  0  0  0  0
   10.0080   11.5760   22.9970 C   0  0  0  0  0  0  0  0  0  0  0  0
    9.6200   10.2990   23.3690 C   0  0  0  0  0  0  0  0  0  0  0  0
   10.2400    9.2170   22.7710 C   0  0  0  0  0  0  0  0  0  0  0  0
    8.6230   10.1360   24.3240 C   0  0  0  0  0  0  0  0  0  0  0  0
    8.0100   11.2440   24.9140 C   0  0  0  0  0  0  0  0  0  0  0  0
    8.4090   12.5150   24.5310 C   0  0  0  0  0  0  0  0  0  0  0  0
    7.5530   14.0020   25.3540 Br  0  0  0  0  0  0  0  0  0  0  0  0
   12.4540   13.1910   22.2450 H   0  0  0  0  0  0  0  0  0  0  0  0
   13.6450   13.3700   23.5550 H   0  0  0  0  0  0  0  0  0  0  0  0
   11.9350   13.7260   23.8540 H   0  0  0  0  0  0  0  0  0  0  0  0
   14.0170   15.3290   22.3670 H   0  0  0  0  0  0  0  0  0  0  0  0
   12.7900   15.8590   23.5410 H   0  0  0  0  0  0  0  0  0  0  0  0
   13.1160   17.2250   20.7080 H   0  0  0  0  0  0  0  0  0  0  0  0
   11.3420   17.3190   20.6580 H   0  0  0  0  0  0  0  0  0  0  0  0
   12.1540   17.5910   22.1860 H   0  0  0  0  0  0  0  0  0  0  0  0
   10.6130   13.1070   21.3920 H   0  0  0  0  0  0  0  0  0  0  0  0
    8.9180   14.5450   23.0210 H   0  0  0  0  0  0  0  0  0  0  0  0
   10.3540   14.4230   23.9920 H   0  0  0  0  0  0  0  0  0  0  0  0
   10.7840   11.6840   22.2520 H   0  0  0  0  0  0  0  0  0  0  0  0
   11.0170    8.6800   23.3040 H   0  0  0  0  0  0  0  0  0  0  0  0
   10.6790    9.5510   21.8270 H   0  0  0  0  0  0  0  0  0  0  0  0
    9.4790    8.4890   22.4840 H   0  0  0  0  0  0  0  0  0  0  0  0
    8.3110    9.1470   24.6170 H   0  0  0  0  0  0  0  0  0  0  0  0
    7.2330   11.0930   25.6580 H   0  0  0  0  0  0  0  0  0  0  0  0
  1  2  1  0
  2  3  1  0
  3  4  1  0
  3  5  1  0
  5  6  2  0
  5  7  1  0
  7  8  1  0
  8  9  1  0
  9 10  2  0
 10 11  1  0
 11 12  1  0
 11 13  2  0
 13 14  1  0
 14 15  2  0
 15 16  1  0
 15  9  1  0
  1 17  1  0
  1 18  1  0
  1 19  1  0
  2 20  1  0
  2 21  1  0
  4 22  1  0
  4 23  1  0
  4 24  1  0
  7 25  1  0
  8 26  1  0
  8 27  1  0
 10 28  1  0
 12 29  1  0
 12 30  1  0
 12 31  1  0
 13 32  1  0
 14 33  1  0
A    1
 C1 
A    2
 C2 
A    3
 N1 
A    4
 C3 
A    5
 C4 
A    6
 O1 
A    7
 N2 
A    8
 C5 
A    9
 C6 
A   10
 C7 
A   11
 C8 
A   12
 C9 
A   13
 C10
A   14
 C11
A   15
 C12
A   16
BR1 
A   17
 H1 
A   18
 H2 
A   19
 H3 
A   20
 H4 
A   21
 H5 
A   22
 H6 
A   23
 H7 
A   24
 H8 
A   25
 H9 
A   26
 H10
A   27
 H11
A   28
 H12
A   29
 H13
A   30
 H14
A   31
 H15
A   32
 H16
A   33
 H17
M  END
>  <ref_pdb>  (6) 
x0310_0A

>  <ref_mols>  (6) 
x0416_0A,x0528_0A

>  <original SMILES>  (6) 
CCN(C)C(=O)NCc1cc(C)ccc1Br

>  <rationale>  (6) 
info halogenbond:G127+D39+A86+E85+E106+E88+T126+P107+Y64+C65+N129+F83+R93+L131+I82+G128+P91+N19+H21+V84+G133+Y90+Y89+H97+L81+F134+L98+R20+G103+S66+S67+S7+G108+R38+V124+M99+S36; hbond:S87+S125+T126+A86+E85+G103+G128+G130+L131+N129+H104+R68+V124+R93+P91+F83+S7+S66+G112+G133+V132+R20+Y89+S77+A135+Y63+A92+A101+M99+F134+L100+I82+Y64+S36+L98+V84+L81+Y94+S80+R38+S37+V102+G8+I123+G111+I113+L114+C65+L22+S96; hydroph_interaction:V124+L22+E106+E88+N129+N19+L40+I123+A135+I82+L100+L98+L131+F83+R93+V132+Y63+F134+H104+R20+A86+V74+P91+A101+F76+M99+L114+A92+Y94+R68+Y72+Y64+V18+V102+W28+G127+G128+L81; pication:H104+Y63+F134+Y90+R68+F83+R20; pistack:H21+Y89+H104+F134+Y63+F83+Y94; saltbridge:R93+H104+E106+D109+E85+E88+R68+R20; 

>  <intxn_cluster>  (6) 
-1

>  <intxn_cluster_rank>  (6) 
-1

>  <N_interactions>  (6) 
3

>  <∆∆G>  (6) 
-13.352054

>  <$/mg>  (6) 
0.0

>  <comRMSD>  (6) 
0.572462

>  <N_rotatable_bonds>  (6) 
6

>  <deep_P1_sidechain>  (6) 
nan

>  <farthest_distance_to_substrate>  (6) 
2.170442

>  <hbond:SER:7>  (6) 
hbond:SER:7    NaN
hbond:SER:7     -1
Name: 5, dtype: object

>  <halogenbond:SER:7>  (6) 
halogenbond:SER:7    NaN
halogenbond:SER:7     -1
Name: 5, dtype: object

>  <hbond:GLY:8>  (6) 
hbond:GLY:8    NaN
hbond:GLY:8     -1
Name: 5, dtype: object

>  <hydroph_interaction:VAL:18>  (6) 
hydroph_interaction:VAL:18    NaN
hydroph_interaction:VAL:18     -1
Name: 5, dtype: object

>  <hbond:ASN:19>  (6) 
hbond:ASN:19    0.0
hbond:ASN:19      0
Name: 5, dtype: object

>  <hydroph_interaction:ASN:19>  (6) 
hydroph_interaction:ASN:19    NaN
hydroph_interaction:ASN:19     -1
Name: 5, dtype: object

>  <halogenbond:ASN:19>  (6) 
halogenbond:ASN:19    NaN
halogenbond:ASN:19     -1
Name: 5, dtype: object

>  <hbond:ARG:20>  (6) 
hbond:ARG:20    NaN
hbond:ARG:20     -1
Name: 5, dtype: object

>  <hydroph_interaction:ARG:20>  (6) 
hydroph_interaction:ARG:20    NaN
hydroph_interaction:ARG:20     -1
Name: 5, dtype: object

>  <saltbridge:ARG:20>  (6) 
saltbridge:ARG:20    NaN
saltbridge:ARG:20     -1
Name: 5, dtype: object

>  <halogenbond:ARG:20>  (6) 
halogenbond:ARG:20    NaN
halogenbond:ARG:20     -1
Name: 5, dtype: object

>  <pication:ARG:20>  (6) 
pication:ARG:20    NaN
pication:ARG:20     -1
Name: 5, dtype: object

>  <hbond:HIS:21>  (6) 
hbond:HIS:21    0.0
hbond:HIS:21      0
Name: 5, dtype: object

>  <hydroph_interaction:HIS:21>  (6) 
hydroph_interaction:HIS:21    0.0
hydroph_interaction:HIS:21      0
Name: 5, dtype: object

>  <pistack:HIS:21>  (6) 
pistack:HIS:21    NaN
pistack:HIS:21     -1
Name: 5, dtype: object

>  <pication:HIS:21>  (6) 
pication:HIS:21    0.0
pication:HIS:21      0
Name: 5, dtype: object

>  <saltbridge:HIS:21>  (6) 
saltbridge:HIS:21    0.0
saltbridge:HIS:21      0
Name: 5, dtype: object

>  <halogenbond:HIS:21>  (6) 
halogenbond:HIS:21    NaN
halogenbond:HIS:21     -1
Name: 5, dtype: object

>  <hydroph_interaction:LEU:22>  (6) 
hydroph_interaction:LEU:22    NaN
hydroph_interaction:LEU:22     -1
Name: 5, dtype: object

>  <hbond:LEU:22>  (6) 
hbond:LEU:22    NaN
hbond:LEU:22     -1
Name: 5, dtype: object

>  <hydroph_interaction:TRP:28>  (6) 
hydroph_interaction:TRP:28    NaN
hydroph_interaction:TRP:28     -1
Name: 5, dtype: object

>  <hbond:SER:36>  (6) 
hbond:SER:36    NaN
hbond:SER:36     -1
Name: 5, dtype: object

>  <halogenbond:SER:36>  (6) 
halogenbond:SER:36    NaN
halogenbond:SER:36     -1
Name: 5, dtype: object

>  <hbond:SER:37>  (6) 
hbond:SER:37    NaN
hbond:SER:37     -1
Name: 5, dtype: object

>  <hbond:ARG:38>  (6) 
hbond:ARG:38    NaN
hbond:ARG:38     -1
Name: 5, dtype: object

>  <halogenbond:ARG:38>  (6) 
halogenbond:ARG:38    NaN
halogenbond:ARG:38     -1
Name: 5, dtype: object

>  <saltbridge:ASP:39>  (6) 
saltbridge:ASP:39    0.0
saltbridge:ASP:39      0
Name: 5, dtype: object

>  <halogenbond:ASP:39>  (6) 
halogenbond:ASP:39    NaN
halogenbond:ASP:39     -1
Name: 5, dtype: object

>  <hbond:ASP:39>  (6) 
hbond:ASP:39    0.0
hbond:ASP:39      0
Name: 5, dtype: object

>  <hydroph_interaction:ASP:39>  (6) 
hydroph_interaction:ASP:39    0.0
hydroph_interaction:ASP:39      0
Name: 5, dtype: object

>  <hydroph_interaction:LEU:40>  (6) 
hydroph_interaction:LEU:40    NaN
hydroph_interaction:LEU:40     -1
Name: 5, dtype: object

>  <hydroph_interaction:TYR:63>  (6) 
hydroph_interaction:TYR:63    NaN
hydroph_interaction:TYR:63     -1
Name: 5, dtype: object

>  <hbond:TYR:63>  (6) 
hbond:TYR:63    NaN
hbond:TYR:63     -1
Name: 5, dtype: object

>  <pistack:TYR:63>  (6) 
pistack:TYR:63    NaN
pistack:TYR:63     -1
Name: 5, dtype: object

>  <pication:TYR:63>  (6) 
pication:TYR:63    NaN
pication:TYR:63     -1
Name: 5, dtype: object

>  <halogenbond:TYR:64>  (6) 
halogenbond:TYR:64    NaN
halogenbond:TYR:64     -1
Name: 5, dtype: object

>  <hbond:TYR:64>  (6) 
hbond:TYR:64    NaN
hbond:TYR:64     -1
Name: 5, dtype: object

>  <hydroph_interaction:TYR:64>  (6) 
hydroph_interaction:TYR:64    NaN
hydroph_interaction:TYR:64     -1
Name: 5, dtype: object

>  <halogenbond:CYS:65>  (6) 
halogenbond:CYS:65    NaN
halogenbond:CYS:65     -1
Name: 5, dtype: object

>  <hbond:CYS:65>  (6) 
hbond:CYS:65    NaN
hbond:CYS:65     -1
Name: 5, dtype: object

>  <hbond:SER:66>  (6) 
hbond:SER:66    NaN
hbond:SER:66     -1
Name: 5, dtype: object

>  <halogenbond:SER:66>  (6) 
halogenbond:SER:66    NaN
halogenbond:SER:66     -1
Name: 5, dtype: object

>  <hbond:SER:67>  (6) 
hbond:SER:67    0.0
hbond:SER:67      0
Name: 5, dtype: object

>  <halogenbond:SER:67>  (6) 
halogenbond:SER:67    NaN
halogenbond:SER:67     -1
Name: 5, dtype: object

>  <hbond:ARG:68>  (6) 
hbond:ARG:68    NaN
hbond:ARG:68     -1
Name: 5, dtype: object

>  <saltbridge:ARG:68>  (6) 
saltbridge:ARG:68    NaN
saltbridge:ARG:68     -1
Name: 5, dtype: object

>  <hydroph_interaction:ARG:68>  (6) 
hydroph_interaction:ARG:68    NaN
hydroph_interaction:ARG:68     -1
Name: 5, dtype: object

>  <pication:ARG:68>  (6) 
pication:ARG:68    NaN
pication:ARG:68     -1
Name: 5, dtype: object

>  <hydroph_interaction:TYR:72>  (6) 
hydroph_interaction:TYR:72    NaN
hydroph_interaction:TYR:72     -1
Name: 5, dtype: object

>  <hydroph_interaction:VAL:74>  (6) 
hydroph_interaction:VAL:74    NaN
hydroph_interaction:VAL:74     -1
Name: 5, dtype: object

>  <hydroph_interaction:PHE:76>  (6) 
hydroph_interaction:PHE:76    NaN
hydroph_interaction:PHE:76     -1
Name: 5, dtype: object

>  <hbond:SER:77>  (6) 
hbond:SER:77    NaN
hbond:SER:77     -1
Name: 5, dtype: object

>  <hbond:SER:80>  (6) 
hbond:SER:80    NaN
hbond:SER:80     -1
Name: 5, dtype: object

>  <hbond:LEU:81>  (6) 
hbond:LEU:81    NaN
hbond:LEU:81     -1
Name: 5, dtype: object

>  <halogenbond:LEU:81>  (6) 
halogenbond:LEU:81    NaN
halogenbond:LEU:81     -1
Name: 5, dtype: object

>  <hydroph_interaction:LEU:81>  (6) 
hydroph_interaction:LEU:81    NaN
hydroph_interaction:LEU:81     -1
Name: 5, dtype: object

>  <hydroph_interaction:ILE:82>  (6) 
hydroph_interaction:ILE:82    NaN
hydroph_interaction:ILE:82     -1
Name: 5, dtype: object

>  <halogenbond:ILE:82>  (6) 
halogenbond:ILE:82    NaN
halogenbond:ILE:82     -1
Name: 5, dtype: object

>  <hbond:ILE:82>  (6) 
hbond:ILE:82    NaN
hbond:ILE:82     -1
Name: 5, dtype: object

>  <hbond:PHE:83>  (6) 
hbond:PHE:83    NaN
hbond:PHE:83     -1
Name: 5, dtype: object

>  <hydroph_interaction:PHE:83>  (6) 
hydroph_interaction:PHE:83    NaN
hydroph_interaction:PHE:83     -1
Name: 5, dtype: object

>  <halogenbond:PHE:83>  (6) 
halogenbond:PHE:83    NaN
halogenbond:PHE:83     -1
Name: 5, dtype: object

>  <pistack:PHE:83>  (6) 
pistack:PHE:83    NaN
pistack:PHE:83     -1
Name: 5, dtype: object

>  <pication:PHE:83>  (6) 
pication:PHE:83    NaN
pication:PHE:83     -1
Name: 5, dtype: object

>  <hydroph_interaction:VAL:84>  (6) 
hydroph_interaction:VAL:84    0.0
hydroph_interaction:VAL:84      0
Name: 5, dtype: object

>  <halogenbond:VAL:84>  (6) 
halogenbond:VAL:84    NaN
halogenbond:VAL:84     -1
Name: 5, dtype: object

>  <hbond:VAL:84>  (6) 
hbond:VAL:84    NaN
hbond:VAL:84     -1
Name: 5, dtype: object

>  <hydroph_interaction:GLU:85>  (6) 
hydroph_interaction:GLU:85    0.0
hydroph_interaction:GLU:85      0
Name: 5, dtype: object

>  <hbond:GLU:85>  (6) 
hbond:GLU:85    NaN
hbond:GLU:85     -1
Name: 5, dtype: object

>  <halogenbond:GLU:85>  (6) 
halogenbond:GLU:85    NaN
halogenbond:GLU:85     -1
Name: 5, dtype: object

>  <saltbridge:GLU:85>  (6) 
saltbridge:GLU:85    NaN
saltbridge:GLU:85     -1
Name: 5, dtype: object

>  <halogenbond:ALA:86>  (6) 
halogenbond:ALA:86    NaN
halogenbond:ALA:86     -1
Name: 5, dtype: object

>  <hbond:ALA:86>  (6) 
hbond:ALA:86    NaN
hbond:ALA:86     -1
Name: 5, dtype: object

>  <hydroph_interaction:ALA:86>  (6) 
hydroph_interaction:ALA:86    NaN
hydroph_interaction:ALA:86     -1
Name: 5, dtype: object

>  <hbond:SER:87>  (6) 
hbond:SER:87    1
hbond:SER:87    1
Name: 5, dtype: object

>  <halogenbond:SER:87>  (6) 
halogenbond:SER:87    0.0
halogenbond:SER:87      0
Name: 5, dtype: object

>  <hbond:GLU:88>  (6) 
hbond:GLU:88    0.0
hbond:GLU:88      0
Name: 5, dtype: object

>  <hydroph_interaction:GLU:88>  (6) 
hydroph_interaction:GLU:88    NaN
hydroph_interaction:GLU:88     -1
Name: 5, dtype: object

>  <halogenbond:GLU:88>  (6) 
halogenbond:GLU:88    NaN
halogenbond:GLU:88     -1
Name: 5, dtype: object

>  <saltbridge:GLU:88>  (6) 
saltbridge:GLU:88    NaN
saltbridge:GLU:88     -1
Name: 5, dtype: object

>  <hydroph_interaction:TYR:89>  (6) 
hydroph_interaction:TYR:89    0.0
hydroph_interaction:TYR:89      0
Name: 5, dtype: object

>  <pistack:TYR:89>  (6) 
pistack:TYR:89    NaN
pistack:TYR:89     -1
Name: 5, dtype: object

>  <hbond:TYR:89>  (6) 
hbond:TYR:89    NaN
hbond:TYR:89     -1
Name: 5, dtype: object

>  <halogenbond:TYR:89>  (6) 
halogenbond:TYR:89    NaN
halogenbond:TYR:89     -1
Name: 5, dtype: object

>  <hydroph_interaction:TYR:90>  (6) 
hydroph_interaction:TYR:90    0.0
hydroph_interaction:TYR:90      0
Name: 5, dtype: object

>  <hbond:TYR:90>  (6) 
hbond:TYR:90    0.0
hbond:TYR:90      0
Name: 5, dtype: object

>  <pistack:TYR:90>  (6) 
pistack:TYR:90    0.0
pistack:TYR:90      0
Name: 5, dtype: object

>  <halogenbond:TYR:90>  (6) 
halogenbond:TYR:90    NaN
halogenbond:TYR:90     -1
Name: 5, dtype: object

>  <pication:TYR:90>  (6) 
pication:TYR:90    NaN
pication:TYR:90     -1
Name: 5, dtype: object

>  <hbond:PRO:91>  (6) 
hbond:PRO:91    NaN
hbond:PRO:91     -1
Name: 5, dtype: object

>  <hydroph_interaction:PRO:91>  (6) 
hydroph_interaction:PRO:91    NaN
hydroph_interaction:PRO:91     -1
Name: 5, dtype: object

>  <halogenbond:PRO:91>  (6) 
halogenbond:PRO:91    NaN
halogenbond:PRO:91     -1
Name: 5, dtype: object

>  <hbond:ALA:92>  (6) 
hbond:ALA:92    NaN
hbond:ALA:92     -1
Name: 5, dtype: object

>  <hydroph_interaction:ALA:92>  (6) 
hydroph_interaction:ALA:92    NaN
hydroph_interaction:ALA:92     -1
Name: 5, dtype: object

>  <saltbridge:ARG:93>  (6) 
saltbridge:ARG:93    NaN
saltbridge:ARG:93     -1
Name: 5, dtype: object

>  <hbond:ARG:93>  (6) 
hbond:ARG:93    NaN
hbond:ARG:93     -1
Name: 5, dtype: object

>  <hydroph_interaction:ARG:93>  (6) 
hydroph_interaction:ARG:93    NaN
hydroph_interaction:ARG:93     -1
Name: 5, dtype: object

>  <halogenbond:ARG:93>  (6) 
halogenbond:ARG:93    NaN
halogenbond:ARG:93     -1
Name: 5, dtype: object

>  <pication:ARG:93>  (6) 
pication:ARG:93    0.0
pication:ARG:93      0
Name: 5, dtype: object

>  <hydroph_interaction:TYR:94>  (6) 
hydroph_interaction:TYR:94    NaN
hydroph_interaction:TYR:94     -1
Name: 5, dtype: object

>  <pistack:TYR:94>  (6) 
pistack:TYR:94    NaN
pistack:TYR:94     -1
Name: 5, dtype: object

>  <hbond:TYR:94>  (6) 
hbond:TYR:94    NaN
hbond:TYR:94     -1
Name: 5, dtype: object

>  <hbond:GLN:95>  (6) 
hbond:GLN:95    0.0
hbond:GLN:95      0
Name: 5, dtype: object

>  <hydroph_interaction:GLN:95>  (6) 
hydroph_interaction:GLN:95    0.0
hydroph_interaction:GLN:95      0
Name: 5, dtype: object

>  <halogenbond:GLN:95>  (6) 
halogenbond:GLN:95    0.0
halogenbond:GLN:95      0
Name: 5, dtype: object

>  <hbond:SER:96>  (6) 
hbond:SER:96    NaN
hbond:SER:96     -1
Name: 5, dtype: object

>  <halogenbond:HIS:97>  (6) 
halogenbond:HIS:97    NaN
halogenbond:HIS:97     -1
Name: 5, dtype: object

>  <hydroph_interaction:LEU:98>  (6) 
hydroph_interaction:LEU:98    NaN
hydroph_interaction:LEU:98     -1
Name: 5, dtype: object

>  <hbond:LEU:98>  (6) 
hbond:LEU:98    NaN
hbond:LEU:98     -1
Name: 5, dtype: object

>  <halogenbond:LEU:98>  (6) 
halogenbond:LEU:98    NaN
halogenbond:LEU:98     -1
Name: 5, dtype: object

>  <hbond:MET:99>  (6) 
hbond:MET:99    NaN
hbond:MET:99     -1
Name: 5, dtype: object

>  <hydroph_interaction:MET:99>  (6) 
hydroph_interaction:MET:99    NaN
hydroph_interaction:MET:99     -1
Name: 5, dtype: object

>  <halogenbond:MET:99>  (6) 
halogenbond:MET:99    NaN
halogenbond:MET:99     -1
Name: 5, dtype: object

>  <hydroph_interaction:LEU:100>  (6) 
hydroph_interaction:LEU:100    NaN
hydroph_interaction:LEU:100     -1
Name: 5, dtype: object

>  <hbond:LEU:100>  (6) 
hbond:LEU:100    NaN
hbond:LEU:100     -1
Name: 5, dtype: object

>  <hbond:ALA:101>  (6) 
hbond:ALA:101    NaN
hbond:ALA:101     -1
Name: 5, dtype: object

>  <hydroph_interaction:ALA:101>  (6) 
hydroph_interaction:ALA:101    NaN
hydroph_interaction:ALA:101     -1
Name: 5, dtype: object

>  <hydroph_interaction:VAL:102>  (6) 
hydroph_interaction:VAL:102    NaN
hydroph_interaction:VAL:102     -1
Name: 5, dtype: object

>  <hbond:VAL:102>  (6) 
hbond:VAL:102    NaN
hbond:VAL:102     -1
Name: 5, dtype: object

>  <hbond:GLY:103>  (6) 
hbond:GLY:103    NaN
hbond:GLY:103     -1
Name: 5, dtype: object

>  <halogenbond:GLY:103>  (6) 
halogenbond:GLY:103    NaN
halogenbond:GLY:103     -1
Name: 5, dtype: object

>  <hbond:HIS:104>  (6) 
hbond:HIS:104    NaN
hbond:HIS:104     -1
Name: 5, dtype: object

>  <saltbridge:HIS:104>  (6) 
saltbridge:HIS:104    NaN
saltbridge:HIS:104     -1
Name: 5, dtype: object

>  <pication:HIS:104>  (6) 
pication:HIS:104    NaN
pication:HIS:104     -1
Name: 5, dtype: object

>  <halogenbond:HIS:104>  (6) 
halogenbond:HIS:104    0.0
halogenbond:HIS:104      0
Name: 5, dtype: object

>  <hydroph_interaction:HIS:104>  (6) 
hydroph_interaction:HIS:104    NaN
hydroph_interaction:HIS:104     -1
Name: 5, dtype: object

>  <pistack:HIS:104>  (6) 
pistack:HIS:104    NaN
pistack:HIS:104     -1
Name: 5, dtype: object

>  <halogenbond:SER:105>  (6) 
halogenbond:SER:105    0.0
halogenbond:SER:105      0
Name: 5, dtype: object

>  <hbond:SER:105>  (6) 
hbond:SER:105    0.0
hbond:SER:105      0
Name: 5, dtype: object

>  <hbond:GLU:106>  (6) 
hbond:GLU:106    0.0
hbond:GLU:106      0
Name: 5, dtype: object

>  <hydroph_interaction:GLU:106>  (6) 
hydroph_interaction:GLU:106    NaN
hydroph_interaction:GLU:106     -1
Name: 5, dtype: object

>  <saltbridge:GLU:106>  (6) 
saltbridge:GLU:106    NaN
saltbridge:GLU:106     -1
Name: 5, dtype: object

>  <halogenbond:GLU:106>  (6) 
halogenbond:GLU:106    NaN
halogenbond:GLU:106     -1
Name: 5, dtype: object

>  <hydroph_interaction:PRO:107>  (6) 
hydroph_interaction:PRO:107    0
hydroph_interaction:PRO:107    0
Name: 5, dtype: object

>  <hbond:PRO:107>  (6) 
hbond:PRO:107    0.0
hbond:PRO:107      0
Name: 5, dtype: object

>  <halogenbond:PRO:107>  (6) 
halogenbond:PRO:107    NaN
halogenbond:PRO:107     -1
Name: 5, dtype: object

>  <hbond:GLY:108>  (6) 
hbond:GLY:108    0.0
hbond:GLY:108      0
Name: 5, dtype: object

>  <halogenbond:GLY:108>  (6) 
halogenbond:GLY:108    NaN
halogenbond:GLY:108     -1
Name: 5, dtype: object

>  <hbond:ASP:109>  (6) 
hbond:ASP:109    0.0
hbond:ASP:109      0
Name: 5, dtype: object

>  <hydroph_interaction:ASP:109>  (6) 
hydroph_interaction:ASP:109    0.0
hydroph_interaction:ASP:109      0
Name: 5, dtype: object

>  <saltbridge:ASP:109>  (6) 
saltbridge:ASP:109    NaN
saltbridge:ASP:109     -1
Name: 5, dtype: object

>  <halogenbond:CYS:110>  (6) 
halogenbond:CYS:110    0.0
halogenbond:CYS:110      0
Name: 5, dtype: object

>  <hbond:CYS:110>  (6) 
hbond:CYS:110    0.0
hbond:CYS:110      0
Name: 5, dtype: object

>  <hbond:GLY:111>  (6) 
hbond:GLY:111    NaN
hbond:GLY:111     -1
Name: 5, dtype: object

>  <hbond:GLY:112>  (6) 
hbond:GLY:112    NaN
hbond:GLY:112     -1
Name: 5, dtype: object

>  <hbond:ILE:113>  (6) 
hbond:ILE:113    NaN
hbond:ILE:113     -1
Name: 5, dtype: object

>  <hydroph_interaction:LEU:114>  (6) 
hydroph_interaction:LEU:114    NaN
hydroph_interaction:LEU:114     -1
Name: 5, dtype: object

>  <hbond:LEU:114>  (6) 
hbond:LEU:114    NaN
hbond:LEU:114     -1
Name: 5, dtype: object

>  <hydroph_interaction:ILE:123>  (6) 
hydroph_interaction:ILE:123    NaN
hydroph_interaction:ILE:123     -1
Name: 5, dtype: object

>  <hbond:ILE:123>  (6) 
hbond:ILE:123    NaN
hbond:ILE:123     -1
Name: 5, dtype: object

>  <hydroph_interaction:VAL:124>  (6) 
hydroph_interaction:VAL:124    1.0
hydroph_interaction:VAL:124      1
Name: 5, dtype: object

>  <hbond:VAL:124>  (6) 
hbond:VAL:124    NaN
hbond:VAL:124     -1
Name: 5, dtype: object

>  <halogenbond:VAL:124>  (6) 
halogenbond:VAL:124    NaN
halogenbond:VAL:124     -1
Name: 5, dtype: object

>  <hbond:SER:125>  (6) 
hbond:SER:125    1
hbond:SER:125    1
Name: 5, dtype: object

>  <halogenbond:SER:125>  (6) 
halogenbond:SER:125    0.0
halogenbond:SER:125      0
Name: 5, dtype: object

>  <hydroph_interaction:THR:126>  (6) 
hydroph_interaction:THR:126    0.0
hydroph_interaction:THR:126      0
Name: 5, dtype: object

>  <hbond:THR:126>  (6) 
hbond:THR:126    NaN
hbond:THR:126     -1
Name: 5, dtype: object

>  <halogenbond:THR:126>  (6) 
halogenbond:THR:126    NaN
halogenbond:THR:126     -1
Name: 5, dtype: object

>  <hbond:GLY:127>  (6) 
hbond:GLY:127    0
hbond:GLY:127    0
Name: 5, dtype: object

>  <halogenbond:GLY:127>  (6) 
halogenbond:GLY:127    NaN
halogenbond:GLY:127     -1
Name: 5, dtype: object

>  <hydroph_interaction:GLY:127>  (6) 
hydroph_interaction:GLY:127    NaN
hydroph_interaction:GLY:127     -1
Name: 5, dtype: object

>  <hbond:GLY:128>  (6) 
hbond:GLY:128    NaN
hbond:GLY:128     -1
Name: 5, dtype: object

>  <halogenbond:GLY:128>  (6) 
halogenbond:GLY:128    NaN
halogenbond:GLY:128     -1
Name: 5, dtype: object

>  <hydroph_interaction:GLY:128>  (6) 
hydroph_interaction:GLY:128    NaN
hydroph_interaction:GLY:128     -1
Name: 5, dtype: object

>  <hbond:ASN:129>  (6) 
hbond:ASN:129    NaN
hbond:ASN:129     -1
Name: 5, dtype: object

>  <hydroph_interaction:ASN:129>  (6) 
hydroph_interaction:ASN:129    NaN
hydroph_interaction:ASN:129     -1
Name: 5, dtype: object

>  <halogenbond:ASN:129>  (6) 
halogenbond:ASN:129    NaN
halogenbond:ASN:129     -1
Name: 5, dtype: object

>  <hbond:GLY:130>  (6) 
hbond:GLY:130    NaN
hbond:GLY:130     -1
Name: 5, dtype: object

>  <hbond:LEU:131>  (6) 
hbond:LEU:131    NaN
hbond:LEU:131     -1
Name: 5, dtype: object

>  <hydroph_interaction:LEU:131>  (6) 
hydroph_interaction:LEU:131    NaN
hydroph_interaction:LEU:131     -1
Name: 5, dtype: object

>  <halogenbond:LEU:131>  (6) 
halogenbond:LEU:131    NaN
halogenbond:LEU:131     -1
Name: 5, dtype: object

>  <hydroph_interaction:VAL:132>  (6) 
hydroph_interaction:VAL:132    NaN
hydroph_interaction:VAL:132     -1
Name: 5, dtype: object

>  <hbond:VAL:132>  (6) 
hbond:VAL:132    NaN
hbond:VAL:132     -1
Name: 5, dtype: object

>  <hbond:GLY:133>  (6) 
hbond:GLY:133    NaN
hbond:GLY:133     -1
Name: 5, dtype: object

>  <halogenbond:GLY:133>  (6) 
halogenbond:GLY:133    NaN
halogenbond:GLY:133     -1
Name: 5, dtype: object

>  <hydroph_interaction:PHE:134>  (6) 
hydroph_interaction:PHE:134    NaN
hydroph_interaction:PHE:134     -1
Name: 5, dtype: object

>  <hbond:PHE:134>  (6) 
hbond:PHE:134    NaN
hbond:PHE:134     -1
Name: 5, dtype: object

>  <pistack:PHE:134>  (6) 
pistack:PHE:134    NaN
pistack:PHE:134     -1
Name: 5, dtype: object

>  <pication:PHE:134>  (6) 
pication:PHE:134    NaN
pication:PHE:134     -1
Name: 5, dtype: object

>  <halogenbond:PHE:134>  (6) 
halogenbond:PHE:134    NaN
halogenbond:PHE:134     -1
Name: 5, dtype: object

>  <hydroph_interaction:ALA:135>  (6) 
hydroph_interaction:ALA:135    NaN
hydroph_interaction:ALA:135     -1
Name: 5, dtype: object

>  <hbond:ALA:135>  (6) 
hbond:ALA:135    NaN
hbond:ALA:135     -1
Name: 5, dtype: object

$$$$
Z4656766694
     RDKit          3D

 31 32  0  0  0  0  0  0  0  0999 V2000
   10.2700    9.1910   22.7030 C   0  0  0  0  0  0  0  0  0  0  0  0
    9.5970   10.3820   23.3410 C   0  0  0  0  0  0  0  0  0  0  0  0
    8.5380   10.0920   24.4090 C   0  0  0  0  0  0  0  0  0  0  0  0
    7.8780   11.3180   25.0320 C   0  0  0  0  0  0  0  0  0  0  0  0
    8.3450   12.6230   24.5120 C   0  0  0  0  0  0  0  0  0  0  0  0
    7.4330   14.3170   25.3720 I   0  0  0  0  0  0  0  0  0  0  0  0
    9.3200   12.7910   23.5210 C   0  0  0  0  0  0  0  0  0  0  0  0
    9.6630   14.0560   23.1060 N   0  0  0  0  0  0  0  0  0  0  0  0
   11.0270   14.5500   23.1280 C   0  0  0  0  0  0  0  0  0  0  0  0
   12.1270   13.5920   22.9960 C   0  0  0  0  0  0  0  0  0  0  0  0
   13.1660   14.4600   22.3500 C   0  0  0  0  0  0  0  0  0  0  0  0
   12.6090   15.6420   21.8200 N   0  0  0  0  0  0  0  0  0  0  0  0
   13.2000   16.2540   20.7000 C   0  0  0  0  0  0  0  0  0  0  0  0
   11.2700   15.3590   21.8360 C   0  0  0  0  0  0  0  0  0  0  0  0
   10.4270   15.6740   20.9970 O   0  0  0  0  0  0  0  0  0  0  0  0
    9.9250   11.6730   22.9640 C   0  0  0  0  0  0  0  0  0  0  0  0
    9.5480    8.4050   22.4940 H   0  0  0  0  0  0  0  0  0  0  0  0
   11.0480    8.7880   23.3540 H   0  0  0  0  0  0  0  0  0  0  0  0
   10.7470    9.4650   21.7600 H   0  0  0  0  0  0  0  0  0  0  0  0
    8.2730    9.0950   24.7060 H   0  0  0  0  0  0  0  0  0  0  0  0
    7.1170   11.2200   25.8020 H   0  0  0  0  0  0  0  0  0  0  0  0
    9.0230   14.7340   23.5290 H   0  0  0  0  0  0  0  0  0  0  0  0
   11.2320   15.2140   23.9730 H   0  0  0  0  0  0  0  0  0  0  0  0
   12.4770   13.2360   23.9730 H   0  0  0  0  0  0  0  0  0  0  0  0
   11.8670   12.7330   22.3840 H   0  0  0  0  0  0  0  0  0  0  0  0
   13.6060   13.9200   21.5240 H   0  0  0  0  0  0  0  0  0  0  0  0
   13.9450   14.7390   23.0660 H   0  0  0  0  0  0  0  0  0  0  0  0
   12.8600   17.2920   20.6750 H   0  0  0  0  0  0  0  0  0  0  0  0
   14.2830   16.2380   20.7980 H   0  0  0  0  0  0  0  0  0  0  0  0
   12.9030   15.7130   19.7970 H   0  0  0  0  0  0  0  0  0  0  0  0
   10.6810   11.7890   22.2000 H   0  0  0  0  0  0  0  0  0  0  0  0
  1  2  1  0
  2  3  2  0
  3  4  1  0
  4  5  2  0
  5  6  1  0
  5  7  1  0
  7  8  1  0
  8  9  1  0
  9 10  1  0
 10 11  1  0
 11 12  1  0
 12 13  1  0
 12 14  1  0
 14 15  2  0
  7 16  2  0
 16  2  1  0
 14  9  1  0
  1 17  1  0
  1 18  1  0
  1 19  1  0
  3 20  1  0
  4 21  1  0
  8 22  1  0
  9 23  1  0
 10 24  1  0
 10 25  1  0
 11 26  1  0
 11 27  1  0
 13 28  1  0
 13 29  1  0
 13 30  1  0
 16 31  1  0
A    1
 C1 
A    2
 C2 
A    3
 C3 
A    4
 C4 
A    5
 C5 
A    6
 I1 
A    7
 C6 
A    8
 N1 
A    9
 C7 
A   10
 C8 
A   11
 C9 
A   12
 N2 
A   13
 C10
A   14
 C11
A   15
 O1 
A   16
 C12
A   17
 H1 
A   18
 H2 
A   19
 H3 
A   20
 H4 
A   21
 H5 
A   22
 H6 
A   23
 H7 
A   24
 H8 
A   25
 H9 
A   26
 H10
A   27
 H11
A   28
 H12
A   29
 H13
A   30
 H14
A   31
 H15
M  END
>  <ref_pdb>  (7) 
x0310_0A

>  <ref_mols>  (7) 
x0416_0A,x0528_0A

>  <original SMILES>  (7) 
Cc1ccc(I)c(NC2CCN(C)C2=O)c1

>  <rationale>  (7) 
info halogenbond:C110+G127+A86+E85+Q95+E106+E88+T126+H104+Y64+C65+S87+N129+F83+R93+L131+I82+G128+P91+N19+H21+V84+G133+Y90+Y89+H97+L81+F134+L98+R20+G103+S66+S67+S7+G108+R38+V124+M99+S36; hbond:S87+Q95+D39+G108+G103+G128+G130+L131+N129+N19+H104+R68+V124+R93+P91+F83+S7+S66+G112+G133+V132+R20+Y89+S77+A135+Y63+A92+A101+M99+F134+L100+I82+Y64+S36+L98+V84+L81+Y94+S80+R38+S37+V102+G8+I123+G111+I113+L114+C65+L22+S96; hydroph_interaction:V124+L22+E106+N129+N19+L40+I123+A135+I82+L100+L98+L131+F83+R93+F134+H104+A86+V74+P91+A101+F76+M99+L114+A92+Y94+R68+Y72+Y64+V18+V102+W28+G127+G128+L81; pication:H104+Y63+F134+Y90+R68+F83+R20; pistack:Y89+H104+F134+Y63+F83+Y94; saltbridge:R93+H104+E106+D109+E85+E88+R68+R20; 

>  <intxn_cluster>  (7) 
-1

>  <intxn_cluster_rank>  (7) 
-1

>  <N_interactions>  (7) 
3

>  <∆∆G>  (7) 
-11.058258

>  <$/mg>  (7) 
0.0

>  <comRMSD>  (7) 
0.781592

>  <N_rotatable_bonds>  (7) 
4

>  <deep_P1_sidechain>  (7) 
nan

>  <farthest_distance_to_substrate>  (7) 
2.264638

>  <hbond:SER:7>  (7) 
hbond:SER:7    NaN
hbond:SER:7     -1
Name: 6, dtype: object

>  <halogenbond:SER:7>  (7) 
halogenbond:SER:7    NaN
halogenbond:SER:7     -1
Name: 6, dtype: object

>  <hbond:GLY:8>  (7) 
hbond:GLY:8    NaN
hbond:GLY:8     -1
Name: 6, dtype: object

>  <hydroph_interaction:VAL:18>  (7) 
hydroph_interaction:VAL:18    NaN
hydroph_interaction:VAL:18     -1
Name: 6, dtype: object

>  <hbond:ASN:19>  (7) 
hbond:ASN:19    NaN
hbond:ASN:19     -1
Name: 6, dtype: object

>  <hydroph_interaction:ASN:19>  (7) 
hydroph_interaction:ASN:19    NaN
hydroph_interaction:ASN:19     -1
Name: 6, dtype: object

>  <halogenbond:ASN:19>  (7) 
halogenbond:ASN:19    NaN
halogenbond:ASN:19     -1
Name: 6, dtype: object

>  <hbond:ARG:20>  (7) 
hbond:ARG:20    NaN
hbond:ARG:20     -1
Name: 6, dtype: object

>  <hydroph_interaction:ARG:20>  (7) 
hydroph_interaction:ARG:20    0.0
hydroph_interaction:ARG:20      0
Name: 6, dtype: object

>  <saltbridge:ARG:20>  (7) 
saltbridge:ARG:20    NaN
saltbridge:ARG:20     -1
Name: 6, dtype: object

>  <halogenbond:ARG:20>  (7) 
halogenbond:ARG:20    NaN
halogenbond:ARG:20     -1
Name: 6, dtype: object

>  <pication:ARG:20>  (7) 
pication:ARG:20    NaN
pication:ARG:20     -1
Name: 6, dtype: object

>  <hbond:HIS:21>  (7) 
hbond:HIS:21    0.0
hbond:HIS:21      0
Name: 6, dtype: object

>  <hydroph_interaction:HIS:21>  (7) 
hydroph_interaction:HIS:21    0.0
hydroph_interaction:HIS:21      0
Name: 6, dtype: object

>  <pistack:HIS:21>  (7) 
pistack:HIS:21    0.0
pistack:HIS:21      0
Name: 6, dtype: object

>  <pication:HIS:21>  (7) 
pication:HIS:21    0.0
pication:HIS:21      0
Name: 6, dtype: object

>  <saltbridge:HIS:21>  (7) 
saltbridge:HIS:21    0.0
saltbridge:HIS:21      0
Name: 6, dtype: object

>  <halogenbond:HIS:21>  (7) 
halogenbond:HIS:21    NaN
halogenbond:HIS:21     -1
Name: 6, dtype: object

>  <hydroph_interaction:LEU:22>  (7) 
hydroph_interaction:LEU:22    NaN
hydroph_interaction:LEU:22     -1
Name: 6, dtype: object

>  <hbond:LEU:22>  (7) 
hbond:LEU:22    NaN
hbond:LEU:22     -1
Name: 6, dtype: object

>  <hydroph_interaction:TRP:28>  (7) 
hydroph_interaction:TRP:28    NaN
hydroph_interaction:TRP:28     -1
Name: 6, dtype: object

>  <hbond:SER:36>  (7) 
hbond:SER:36    NaN
hbond:SER:36     -1
Name: 6, dtype: object

>  <halogenbond:SER:36>  (7) 
halogenbond:SER:36    NaN
halogenbond:SER:36     -1
Name: 6, dtype: object

>  <hbond:SER:37>  (7) 
hbond:SER:37    NaN
hbond:SER:37     -1
Name: 6, dtype: object

>  <hbond:ARG:38>  (7) 
hbond:ARG:38    NaN
hbond:ARG:38     -1
Name: 6, dtype: object

>  <halogenbond:ARG:38>  (7) 
halogenbond:ARG:38    NaN
halogenbond:ARG:38     -1
Name: 6, dtype: object

>  <saltbridge:ASP:39>  (7) 
saltbridge:ASP:39    0.0
saltbridge:ASP:39      0
Name: 6, dtype: object

>  <halogenbond:ASP:39>  (7) 
halogenbond:ASP:39    0.0
halogenbond:ASP:39      0
Name: 6, dtype: object

>  <hbond:ASP:39>  (7) 
hbond:ASP:39    NaN
hbond:ASP:39     -1
Name: 6, dtype: object

>  <hydroph_interaction:ASP:39>  (7) 
hydroph_interaction:ASP:39    0.0
hydroph_interaction:ASP:39      0
Name: 6, dtype: object

>  <hydroph_interaction:LEU:40>  (7) 
hydroph_interaction:LEU:40    NaN
hydroph_interaction:LEU:40     -1
Name: 6, dtype: object

>  <hydroph_interaction:TYR:63>  (7) 
hydroph_interaction:TYR:63    0.0
hydroph_interaction:TYR:63      0
Name: 6, dtype: object

>  <hbond:TYR:63>  (7) 
hbond:TYR:63    NaN
hbond:TYR:63     -1
Name: 6, dtype: object

>  <pistack:TYR:63>  (7) 
pistack:TYR:63    NaN
pistack:TYR:63     -1
Name: 6, dtype: object

>  <pication:TYR:63>  (7) 
pication:TYR:63    NaN
pication:TYR:63     -1
Name: 6, dtype: object

>  <halogenbond:TYR:64>  (7) 
halogenbond:TYR:64    NaN
halogenbond:TYR:64     -1
Name: 6, dtype: object

>  <hbond:TYR:64>  (7) 
hbond:TYR:64    NaN
hbond:TYR:64     -1
Name: 6, dtype: object

>  <hydroph_interaction:TYR:64>  (7) 
hydroph_interaction:TYR:64    NaN
hydroph_interaction:TYR:64     -1
Name: 6, dtype: object

>  <halogenbond:CYS:65>  (7) 
halogenbond:CYS:65    NaN
halogenbond:CYS:65     -1
Name: 6, dtype: object

>  <hbond:CYS:65>  (7) 
hbond:CYS:65    NaN
hbond:CYS:65     -1
Name: 6, dtype: object

>  <hbond:SER:66>  (7) 
hbond:SER:66    NaN
hbond:SER:66     -1
Name: 6, dtype: object

>  <halogenbond:SER:66>  (7) 
halogenbond:SER:66    NaN
halogenbond:SER:66     -1
Name: 6, dtype: object

>  <hbond:SER:67>  (7) 
hbond:SER:67    0.0
hbond:SER:67      0
Name: 6, dtype: object

>  <halogenbond:SER:67>  (7) 
halogenbond:SER:67    NaN
halogenbond:SER:67     -1
Name: 6, dtype: object

>  <hbond:ARG:68>  (7) 
hbond:ARG:68    NaN
hbond:ARG:68     -1
Name: 6, dtype: object

>  <saltbridge:ARG:68>  (7) 
saltbridge:ARG:68    NaN
saltbridge:ARG:68     -1
Name: 6, dtype: object

>  <hydroph_interaction:ARG:68>  (7) 
hydroph_interaction:ARG:68    NaN
hydroph_interaction:ARG:68     -1
Name: 6, dtype: object

>  <pication:ARG:68>  (7) 
pication:ARG:68    NaN
pication:ARG:68     -1
Name: 6, dtype: object

>  <hydroph_interaction:TYR:72>  (7) 
hydroph_interaction:TYR:72    NaN
hydroph_interaction:TYR:72     -1
Name: 6, dtype: object

>  <hydroph_interaction:VAL:74>  (7) 
hydroph_interaction:VAL:74    NaN
hydroph_interaction:VAL:74     -1
Name: 6, dtype: object

>  <hydroph_interaction:PHE:76>  (7) 
hydroph_interaction:PHE:76    NaN
hydroph_interaction:PHE:76     -1
Name: 6, dtype: object

>  <hbond:SER:77>  (7) 
hbond:SER:77    NaN
hbond:SER:77     -1
Name: 6, dtype: object

>  <hbond:SER:80>  (7) 
hbond:SER:80    NaN
hbond:SER:80     -1
Name: 6, dtype: object

>  <hbond:LEU:81>  (7) 
hbond:LEU:81    NaN
hbond:LEU:81     -1
Name: 6, dtype: object

>  <halogenbond:LEU:81>  (7) 
halogenbond:LEU:81    NaN
halogenbond:LEU:81     -1
Name: 6, dtype: object

>  <hydroph_interaction:LEU:81>  (7) 
hydroph_interaction:LEU:81    NaN
hydroph_interaction:LEU:81     -1
Name: 6, dtype: object

>  <hydroph_interaction:ILE:82>  (7) 
hydroph_interaction:ILE:82    NaN
hydroph_interaction:ILE:82     -1
Name: 6, dtype: object

>  <halogenbond:ILE:82>  (7) 
halogenbond:ILE:82    NaN
halogenbond:ILE:82     -1
Name: 6, dtype: object

>  <hbond:ILE:82>  (7) 
hbond:ILE:82    NaN
hbond:ILE:82     -1
Name: 6, dtype: object

>  <hbond:PHE:83>  (7) 
hbond:PHE:83    NaN
hbond:PHE:83     -1
Name: 6, dtype: object

>  <hydroph_interaction:PHE:83>  (7) 
hydroph_interaction:PHE:83    NaN
hydroph_interaction:PHE:83     -1
Name: 6, dtype: object

>  <halogenbond:PHE:83>  (7) 
halogenbond:PHE:83    NaN
halogenbond:PHE:83     -1
Name: 6, dtype: object

>  <pistack:PHE:83>  (7) 
pistack:PHE:83    NaN
pistack:PHE:83     -1
Name: 6, dtype: object

>  <pication:PHE:83>  (7) 
pication:PHE:83    NaN
pication:PHE:83     -1
Name: 6, dtype: object

>  <hydroph_interaction:VAL:84>  (7) 
hydroph_interaction:VAL:84    0.0
hydroph_interaction:VAL:84      0
Name: 6, dtype: object

>  <halogenbond:VAL:84>  (7) 
halogenbond:VAL:84    NaN
halogenbond:VAL:84     -1
Name: 6, dtype: object

>  <hbond:VAL:84>  (7) 
hbond:VAL:84    NaN
hbond:VAL:84     -1
Name: 6, dtype: object

>  <hydroph_interaction:GLU:85>  (7) 
hydroph_interaction:GLU:85    0.0
hydroph_interaction:GLU:85      0
Name: 6, dtype: object

>  <hbond:GLU:85>  (7) 
hbond:GLU:85    0.0
hbond:GLU:85      0
Name: 6, dtype: object

>  <halogenbond:GLU:85>  (7) 
halogenbond:GLU:85    NaN
halogenbond:GLU:85     -1
Name: 6, dtype: object

>  <saltbridge:GLU:85>  (7) 
saltbridge:GLU:85    NaN
saltbridge:GLU:85     -1
Name: 6, dtype: object

>  <halogenbond:ALA:86>  (7) 
halogenbond:ALA:86    NaN
halogenbond:ALA:86     -1
Name: 6, dtype: object

>  <hbond:ALA:86>  (7) 
hbond:ALA:86    0.0
hbond:ALA:86      0
Name: 6, dtype: object

>  <hydroph_interaction:ALA:86>  (7) 
hydroph_interaction:ALA:86    NaN
hydroph_interaction:ALA:86     -1
Name: 6, dtype: object

>  <hbond:SER:87>  (7) 
hbond:SER:87    2
hbond:SER:87    2
Name: 6, dtype: object

>  <halogenbond:SER:87>  (7) 
halogenbond:SER:87    NaN
halogenbond:SER:87     -1
Name: 6, dtype: object

>  <hbond:GLU:88>  (7) 
hbond:GLU:88    0.0
hbond:GLU:88      0
Name: 6, dtype: object

>  <hydroph_interaction:GLU:88>  (7) 
hydroph_interaction:GLU:88    0.0
hydroph_interaction:GLU:88      0
Name: 6, dtype: object

>  <halogenbond:GLU:88>  (7) 
halogenbond:GLU:88    NaN
halogenbond:GLU:88     -1
Name: 6, dtype: object

>  <saltbridge:GLU:88>  (7) 
saltbridge:GLU:88    NaN
saltbridge:GLU:88     -1
Name: 6, dtype: object

>  <hydroph_interaction:TYR:89>  (7) 
hydroph_interaction:TYR:89    0.0
hydroph_interaction:TYR:89      0
Name: 6, dtype: object

>  <pistack:TYR:89>  (7) 
pistack:TYR:89    NaN
pistack:TYR:89     -1
Name: 6, dtype: object

>  <hbond:TYR:89>  (7) 
hbond:TYR:89    NaN
hbond:TYR:89     -1
Name: 6, dtype: object

>  <halogenbond:TYR:89>  (7) 
halogenbond:TYR:89    NaN
halogenbond:TYR:89     -1
Name: 6, dtype: object

>  <hydroph_interaction:TYR:90>  (7) 
hydroph_interaction:TYR:90    0.0
hydroph_interaction:TYR:90      0
Name: 6, dtype: object

>  <hbond:TYR:90>  (7) 
hbond:TYR:90    0.0
hbond:TYR:90      0
Name: 6, dtype: object

>  <pistack:TYR:90>  (7) 
pistack:TYR:90    0.0
pistack:TYR:90      0
Name: 6, dtype: object

>  <halogenbond:TYR:90>  (7) 
halogenbond:TYR:90    NaN
halogenbond:TYR:90     -1
Name: 6, dtype: object

>  <pication:TYR:90>  (7) 
pication:TYR:90    NaN
pication:TYR:90     -1
Name: 6, dtype: object

>  <hbond:PRO:91>  (7) 
hbond:PRO:91    NaN
hbond:PRO:91     -1
Name: 6, dtype: object

>  <hydroph_interaction:PRO:91>  (7) 
hydroph_interaction:PRO:91    NaN
hydroph_interaction:PRO:91     -1
Name: 6, dtype: object

>  <halogenbond:PRO:91>  (7) 
halogenbond:PRO:91    NaN
halogenbond:PRO:91     -1
Name: 6, dtype: object

>  <hbond:ALA:92>  (7) 
hbond:ALA:92    NaN
hbond:ALA:92     -1
Name: 6, dtype: object

>  <hydroph_interaction:ALA:92>  (7) 
hydroph_interaction:ALA:92    NaN
hydroph_interaction:ALA:92     -1
Name: 6, dtype: object

>  <saltbridge:ARG:93>  (7) 
saltbridge:ARG:93    NaN
saltbridge:ARG:93     -1
Name: 6, dtype: object

>  <hbond:ARG:93>  (7) 
hbond:ARG:93    NaN
hbond:ARG:93     -1
Name: 6, dtype: object

>  <hydroph_interaction:ARG:93>  (7) 
hydroph_interaction:ARG:93    NaN
hydroph_interaction:ARG:93     -1
Name: 6, dtype: object

>  <halogenbond:ARG:93>  (7) 
halogenbond:ARG:93    NaN
halogenbond:ARG:93     -1
Name: 6, dtype: object

>  <pication:ARG:93>  (7) 
pication:ARG:93    0.0
pication:ARG:93      0
Name: 6, dtype: object

>  <hydroph_interaction:TYR:94>  (7) 
hydroph_interaction:TYR:94    NaN
hydroph_interaction:TYR:94     -1
Name: 6, dtype: object

>  <pistack:TYR:94>  (7) 
pistack:TYR:94    NaN
pistack:TYR:94     -1
Name: 6, dtype: object

>  <hbond:TYR:94>  (7) 
hbond:TYR:94    NaN
hbond:TYR:94     -1
Name: 6, dtype: object

>  <hbond:GLN:95>  (7) 
hbond:GLN:95    NaN
hbond:GLN:95     -1
Name: 6, dtype: object

>  <hydroph_interaction:GLN:95>  (7) 
hydroph_interaction:GLN:95    0.0
hydroph_interaction:GLN:95      0
Name: 6, dtype: object

>  <halogenbond:GLN:95>  (7) 
halogenbond:GLN:95    NaN
halogenbond:GLN:95     -1
Name: 6, dtype: object

>  <hbond:SER:96>  (7) 
hbond:SER:96    NaN
hbond:SER:96     -1
Name: 6, dtype: object

>  <halogenbond:HIS:97>  (7) 
halogenbond:HIS:97    NaN
halogenbond:HIS:97     -1
Name: 6, dtype: object

>  <hydroph_interaction:LEU:98>  (7) 
hydroph_interaction:LEU:98    NaN
hydroph_interaction:LEU:98     -1
Name: 6, dtype: object

>  <hbond:LEU:98>  (7) 
hbond:LEU:98    NaN
hbond:LEU:98     -1
Name: 6, dtype: object

>  <halogenbond:LEU:98>  (7) 
halogenbond:LEU:98    NaN
halogenbond:LEU:98     -1
Name: 6, dtype: object

>  <hbond:MET:99>  (7) 
hbond:MET:99    NaN
hbond:MET:99     -1
Name: 6, dtype: object

>  <hydroph_interaction:MET:99>  (7) 
hydroph_interaction:MET:99    NaN
hydroph_interaction:MET:99     -1
Name: 6, dtype: object

>  <halogenbond:MET:99>  (7) 
halogenbond:MET:99    NaN
halogenbond:MET:99     -1
Name: 6, dtype: object

>  <hydroph_interaction:LEU:100>  (7) 
hydroph_interaction:LEU:100    NaN
hydroph_interaction:LEU:100     -1
Name: 6, dtype: object

>  <hbond:LEU:100>  (7) 
hbond:LEU:100    NaN
hbond:LEU:100     -1
Name: 6, dtype: object

>  <hbond:ALA:101>  (7) 
hbond:ALA:101    NaN
hbond:ALA:101     -1
Name: 6, dtype: object

>  <hydroph_interaction:ALA:101>  (7) 
hydroph_interaction:ALA:101    NaN
hydroph_interaction:ALA:101     -1
Name: 6, dtype: object

>  <hydroph_interaction:VAL:102>  (7) 
hydroph_interaction:VAL:102    NaN
hydroph_interaction:VAL:102     -1
Name: 6, dtype: object

>  <hbond:VAL:102>  (7) 
hbond:VAL:102    NaN
hbond:VAL:102     -1
Name: 6, dtype: object

>  <hbond:GLY:103>  (7) 
hbond:GLY:103    NaN
hbond:GLY:103     -1
Name: 6, dtype: object

>  <halogenbond:GLY:103>  (7) 
halogenbond:GLY:103    NaN
halogenbond:GLY:103     -1
Name: 6, dtype: object

>  <hbond:HIS:104>  (7) 
hbond:HIS:104    NaN
hbond:HIS:104     -1
Name: 6, dtype: object

>  <saltbridge:HIS:104>  (7) 
saltbridge:HIS:104    NaN
saltbridge:HIS:104     -1
Name: 6, dtype: object

>  <pication:HIS:104>  (7) 
pication:HIS:104    NaN
pication:HIS:104     -1
Name: 6, dtype: object

>  <halogenbond:HIS:104>  (7) 
halogenbond:HIS:104    NaN
halogenbond:HIS:104     -1
Name: 6, dtype: object

>  <hydroph_interaction:HIS:104>  (7) 
hydroph_interaction:HIS:104    NaN
hydroph_interaction:HIS:104     -1
Name: 6, dtype: object

>  <pistack:HIS:104>  (7) 
pistack:HIS:104    NaN
pistack:HIS:104     -1
Name: 6, dtype: object

>  <halogenbond:SER:105>  (7) 
halogenbond:SER:105    0.0
halogenbond:SER:105      0
Name: 6, dtype: object

>  <hbond:SER:105>  (7) 
hbond:SER:105    0.0
hbond:SER:105      0
Name: 6, dtype: object

>  <hbond:GLU:106>  (7) 
hbond:GLU:106    0.0
hbond:GLU:106      0
Name: 6, dtype: object

>  <hydroph_interaction:GLU:106>  (7) 
hydroph_interaction:GLU:106    NaN
hydroph_interaction:GLU:106     -1
Name: 6, dtype: object

>  <saltbridge:GLU:106>  (7) 
saltbridge:GLU:106    NaN
saltbridge:GLU:106     -1
Name: 6, dtype: object

>  <halogenbond:GLU:106>  (7) 
halogenbond:GLU:106    NaN
halogenbond:GLU:106     -1
Name: 6, dtype: object

>  <hydroph_interaction:PRO:107>  (7) 
hydroph_interaction:PRO:107    0
hydroph_interaction:PRO:107    0
Name: 6, dtype: object

>  <hbond:PRO:107>  (7) 
hbond:PRO:107    0.0
hbond:PRO:107      0
Name: 6, dtype: object

>  <halogenbond:PRO:107>  (7) 
halogenbond:PRO:107    0.0
halogenbond:PRO:107      0
Name: 6, dtype: object

>  <hbond:GLY:108>  (7) 
hbond:GLY:108    NaN
hbond:GLY:108     -1
Name: 6, dtype: object

>  <halogenbond:GLY:108>  (7) 
halogenbond:GLY:108    NaN
halogenbond:GLY:108     -1
Name: 6, dtype: object

>  <hbond:ASP:109>  (7) 
hbond:ASP:109    0.0
hbond:ASP:109      0
Name: 6, dtype: object

>  <hydroph_interaction:ASP:109>  (7) 
hydroph_interaction:ASP:109    0.0
hydroph_interaction:ASP:109      0
Name: 6, dtype: object

>  <saltbridge:ASP:109>  (7) 
saltbridge:ASP:109    NaN
saltbridge:ASP:109     -1
Name: 6, dtype: object

>  <halogenbond:CYS:110>  (7) 
halogenbond:CYS:110    NaN
halogenbond:CYS:110     -1
Name: 6, dtype: object

>  <hbond:CYS:110>  (7) 
hbond:CYS:110    0.0
hbond:CYS:110      0
Name: 6, dtype: object

>  <hbond:GLY:111>  (7) 
hbond:GLY:111    NaN
hbond:GLY:111     -1
Name: 6, dtype: object

>  <hbond:GLY:112>  (7) 
hbond:GLY:112    NaN
hbond:GLY:112     -1
Name: 6, dtype: object

>  <hbond:ILE:113>  (7) 
hbond:ILE:113    NaN
hbond:ILE:113     -1
Name: 6, dtype: object

>  <hydroph_interaction:LEU:114>  (7) 
hydroph_interaction:LEU:114    NaN
hydroph_interaction:LEU:114     -1
Name: 6, dtype: object

>  <hbond:LEU:114>  (7) 
hbond:LEU:114    NaN
hbond:LEU:114     -1
Name: 6, dtype: object

>  <hydroph_interaction:ILE:123>  (7) 
hydroph_interaction:ILE:123    NaN
hydroph_interaction:ILE:123     -1
Name: 6, dtype: object

>  <hbond:ILE:123>  (7) 
hbond:ILE:123    NaN
hbond:ILE:123     -1
Name: 6, dtype: object

>  <hydroph_interaction:VAL:124>  (7) 
hydroph_interaction:VAL:124    1.0
hydroph_interaction:VAL:124      1
Name: 6, dtype: object

>  <hbond:VAL:124>  (7) 
hbond:VAL:124    NaN
hbond:VAL:124     -1
Name: 6, dtype: object

>  <halogenbond:VAL:124>  (7) 
halogenbond:VAL:124    NaN
halogenbond:VAL:124     -1
Name: 6, dtype: object

>  <hbond:SER:125>  (7) 
hbond:SER:125    0
hbond:SER:125    0
Name: 6, dtype: object

>  <halogenbond:SER:125>  (7) 
halogenbond:SER:125    0.0
halogenbond:SER:125      0
Name: 6, dtype: object

>  <hydroph_interaction:THR:126>  (7) 
hydroph_interaction:THR:126    0.0
hydroph_interaction:THR:126      0
Name: 6, dtype: object

>  <hbond:THR:126>  (7) 
hbond:THR:126    0.0
hbond:THR:126      0
Name: 6, dtype: object

>  <halogenbond:THR:126>  (7) 
halogenbond:THR:126    NaN
halogenbond:THR:126     -1
Name: 6, dtype: object

>  <hbond:GLY:127>  (7) 
hbond:GLY:127    0
hbond:GLY:127    0
Name: 6, dtype: object

>  <halogenbond:GLY:127>  (7) 
halogenbond:GLY:127    NaN
halogenbond:GLY:127     -1
Name: 6, dtype: object

>  <hydroph_interaction:GLY:127>  (7) 
hydroph_interaction:GLY:127    NaN
hydroph_interaction:GLY:127     -1
Name: 6, dtype: object

>  <hbond:GLY:128>  (7) 
hbond:GLY:128    NaN
hbond:GLY:128     -1
Name: 6, dtype: object

>  <halogenbond:GLY:128>  (7) 
halogenbond:GLY:128    NaN
halogenbond:GLY:128     -1
Name: 6, dtype: object

>  <hydroph_interaction:GLY:128>  (7) 
hydroph_interaction:GLY:128    NaN
hydroph_interaction:GLY:128     -1
Name: 6, dtype: object

>  <hbond:ASN:129>  (7) 
hbond:ASN:129    NaN
hbond:ASN:129     -1
Name: 6, dtype: object

>  <hydroph_interaction:ASN:129>  (7) 
hydroph_interaction:ASN:129    NaN
hydroph_interaction:ASN:129     -1
Name: 6, dtype: object

>  <halogenbond:ASN:129>  (7) 
halogenbond:ASN:129    NaN
halogenbond:ASN:129     -1
Name: 6, dtype: object

>  <hbond:GLY:130>  (7) 
hbond:GLY:130    NaN
hbond:GLY:130     -1
Name: 6, dtype: object

>  <hbond:LEU:131>  (7) 
hbond:LEU:131    NaN
hbond:LEU:131     -1
Name: 6, dtype: object

>  <hydroph_interaction:LEU:131>  (7) 
hydroph_interaction:LEU:131    NaN
hydroph_interaction:LEU:131     -1
Name: 6, dtype: object

>  <halogenbond:LEU:131>  (7) 
halogenbond:LEU:131    NaN
halogenbond:LEU:131     -1
Name: 6, dtype: object

>  <hydroph_interaction:VAL:132>  (7) 
hydroph_interaction:VAL:132    0.0
hydroph_interaction:VAL:132      0
Name: 6, dtype: object

>  <hbond:VAL:132>  (7) 
hbond:VAL:132    NaN
hbond:VAL:132     -1
Name: 6, dtype: object

>  <hbond:GLY:133>  (7) 
hbond:GLY:133    NaN
hbond:GLY:133     -1
Name: 6, dtype: object

>  <halogenbond:GLY:133>  (7) 
halogenbond:GLY:133    NaN
halogenbond:GLY:133     -1
Name: 6, dtype: object

>  <hydroph_interaction:PHE:134>  (7) 
hydroph_interaction:PHE:134    NaN
hydroph_interaction:PHE:134     -1
Name: 6, dtype: object

>  <hbond:PHE:134>  (7) 
hbond:PHE:134    NaN
hbond:PHE:134     -1
Name: 6, dtype: object

>  <pistack:PHE:134>  (7) 
pistack:PHE:134    NaN
pistack:PHE:134     -1
Name: 6, dtype: object

>  <pication:PHE:134>  (7) 
pication:PHE:134    NaN
pication:PHE:134     -1
Name: 6, dtype: object

>  <halogenbond:PHE:134>  (7) 
halogenbond:PHE:134    NaN
halogenbond:PHE:134     -1
Name: 6, dtype: object

>  <hydroph_interaction:ALA:135>  (7) 
hydroph_interaction:ALA:135    NaN
hydroph_interaction:ALA:135     -1
Name: 6, dtype: object

>  <hbond:ALA:135>  (7) 
hbond:ALA:135    NaN
hbond:ALA:135     -1
Name: 6, dtype: object

$$$$
Z5436418018
     RDKit          3D

 27 28  0  0  0  0  0  0  0  0999 V2000
   12.0990   16.0250   21.7270 C   0  0  0  0  0  0  0  0  0  0  0  0
   11.0110   14.9410   21.6190 C   0  0  0  0  0  0  0  0  0  0  0  0
   11.0850   14.0450   22.7690 N   0  0  0  0  0  0  0  0  0  0  0  0
   12.4640   13.6920   23.0110 C   0  0  0  0  0  0  0  0  0  0  0  0
   10.2200   14.0430   23.8540 C   0  0  0  0  0  0  0  0  0  0  0  0
   10.1850   14.9430   24.6790 O   0  0  0  0  0  0  0  0  0  0  0  0
    9.3920   12.8350   24.1510 C   0  0  0  0  0  0  0  0  0  0  0  0
    8.3850   12.9650   25.0330 C   0  0  0  0  0  0  0  0  0  0  0  0
    7.5720   11.8270   25.4140 C   0  0  0  0  0  0  0  0  0  0  0  0
    6.2000   12.0420   26.6410 Br  0  0  0  0  0  0  0  0  0  0  0  0
    7.8330   10.6420   24.8820 C   0  0  0  0  0  0  0  0  0  0  0  0
    8.8650   10.5390   23.9670 C   0  0  0  0  0  0  0  0  0  0  0  0
    9.6450   11.5940   23.5750 C   0  0  0  0  0  0  0  0  0  0  0  0
   10.5940   11.2740   22.6540 N   0  0  0  0  0  0  0  0  0  0  0  0
   10.5190    9.9990   22.3650 C   0  0  0  0  0  0  0  0  0  0  0  0
    9.3610    9.1220   23.1670 S   0  0  0  0  0  0  0  0  0  0  0  0
   12.4570   16.1180   22.7570 H   0  0  0  0  0  0  0  0  0  0  0  0
   11.7280   17.0050   21.4140 H   0  0  0  0  0  0  0  0  0  0  0  0
   12.9600   15.7800   21.0950 H   0  0  0  0  0  0  0  0  0  0  0  0
   11.2080   14.3450   20.7190 H   0  0  0  0  0  0  0  0  0  0  0  0
   10.0060   15.3510   21.5100 H   0  0  0  0  0  0  0  0  0  0  0  0
   12.9600   13.3940   22.0880 H   0  0  0  0  0  0  0  0  0  0  0  0
   12.5210   12.8700   23.7300 H   0  0  0  0  0  0  0  0  0  0  0  0
   13.0060   14.5500   23.4230 H   0  0  0  0  0  0  0  0  0  0  0  0
    8.1620   13.9280   25.4890 H   0  0  0  0  0  0  0  0  0  0  0  0
    7.2620    9.7630   25.1400 H   0  0  0  0  0  0  0  0  0  0  0  0
   11.1710    9.5150   21.6420 H   0  0  0  0  0  0  0  0  0  0  0  0
  1  2  1  0
  2  3  1  0
  3  4  1  0
  3  5  1  0
  5  6  2  0
  5  7  1  0
  7  8  2  0
  8  9  1  0
  9 10  1  0
  9 11  2  0
 11 12  1  0
 12 13  2  0
 13 14  1  0
 14 15  2  0
 15 16  1  0
 13  7  1  0
 16 12  1  0
  1 17  1  0
  1 18  1  0
  1 19  1  0
  2 20  1  0
  2 21  1  0
  4 22  1  0
  4 23  1  0
  4 24  1  0
  8 25  1  0
 11 26  1  0
 15 27  1  0
A    1
 C1 
A    2
 C2 
A    3
 N1 
A    4
 C3 
A    5
 C4 
A    6
 O1 
A    7
 C5 
A    8
 C6 
A    9
 C7 
A   10
BR1 
A   11
 C8 
A   12
 C9 
A   13
 C10
A   14
 N2 
A   15
 C11
A   16
 S1 
A   17
 H1 
A   18
 H2 
A   19
 H3 
A   20
 H4 
A   21
 H5 
A   22
 H6 
A   23
 H7 
A   24
 H8 
A   25
 H9 
A   26
 H10
A   27
 H11
M  END
>  <ref_pdb>  (8) 
x0310_0A

>  <ref_mols>  (8) 
x0554_0A,x0528_0A

>  <original SMILES>  (8) 
CCN(C)C(=O)c1cc(Br)cc2scnc12

>  <rationale>  (8) 
info halogenbond:D39+A86+S125+E85+Q95+E106+E88+T126+P107+H104+Y64+C65+S87+N129+F83+R93+L131+I82+G128+P91+N19+H21+V84+G133+Y90+Y89+H97+L81+F134+L98+R20+G103+S66+S67+S7+G108+R38+V124+M99+S36; hbond:E88+D39+A86+E85+G108+G103+G128+G130+L131+N129+N19+H104+R68+V124+R93+P91+F83+S67+S7+S66+G112+G133+V132+R20+Y89+S77+A135+Y63+A92+A101+M99+F134+L100+I82+Y64+S36+L98+V84+L81+Y94+S80+R38+S37+V102+G8+I123+G111+I113+L114+C65+L22+S96; hydroph_interaction:Y90+Y89+P107+L22+E85+E106+E88+N129+D39+N19+L40+I123+A135+Q95+I82+L100+L98+L131+F83+R93+V132+Y63+F134+H104+R20+A86+V74+P91+A101+F76+M99+L114+A92+Y94+R68+Y72+Y64+V18+V102+W28+G127+G128+L81; pication:H104+R93+Y63+F134+Y90+R68+F83+R20; pistack:Y89+Y90+H104+F134+Y63+F83+Y94; saltbridge:R93+H104+E106+D109+E85+E88+R68+R20; 

>  <intxn_cluster>  (8) 
-1

>  <intxn_cluster_rank>  (8) 
-1

>  <N_interactions>  (8) 
4

>  <∆∆G>  (8) 
-8.875871

>  <$/mg>  (8) 
244.5

>  <comRMSD>  (8) 
0.892193

>  <N_rotatable_bonds>  (8) 
4

>  <deep_P1_sidechain>  (8) 
nan

>  <farthest_distance_to_substrate>  (8) 
2.855634

>  <hbond:SER:7>  (8) 
hbond:SER:7    NaN
hbond:SER:7     -1
Name: 7, dtype: object

>  <halogenbond:SER:7>  (8) 
halogenbond:SER:7    NaN
halogenbond:SER:7     -1
Name: 7, dtype: object

>  <hbond:GLY:8>  (8) 
hbond:GLY:8    NaN
hbond:GLY:8     -1
Name: 7, dtype: object

>  <hydroph_interaction:VAL:18>  (8) 
hydroph_interaction:VAL:18    NaN
hydroph_interaction:VAL:18     -1
Name: 7, dtype: object

>  <hbond:ASN:19>  (8) 
hbond:ASN:19    NaN
hbond:ASN:19     -1
Name: 7, dtype: object

>  <hydroph_interaction:ASN:19>  (8) 
hydroph_interaction:ASN:19    NaN
hydroph_interaction:ASN:19     -1
Name: 7, dtype: object

>  <halogenbond:ASN:19>  (8) 
halogenbond:ASN:19    NaN
halogenbond:ASN:19     -1
Name: 7, dtype: object

>  <hbond:ARG:20>  (8) 
hbond:ARG:20    NaN
hbond:ARG:20     -1
Name: 7, dtype: object

>  <hydroph_interaction:ARG:20>  (8) 
hydroph_interaction:ARG:20    NaN
hydroph_interaction:ARG:20     -1
Name: 7, dtype: object

>  <saltbridge:ARG:20>  (8) 
saltbridge:ARG:20    NaN
saltbridge:ARG:20     -1
Name: 7, dtype: object

>  <halogenbond:ARG:20>  (8) 
halogenbond:ARG:20    NaN
halogenbond:ARG:20     -1
Name: 7, dtype: object

>  <pication:ARG:20>  (8) 
pication:ARG:20    NaN
pication:ARG:20     -1
Name: 7, dtype: object

>  <hbond:HIS:21>  (8) 
hbond:HIS:21    0.0
hbond:HIS:21      0
Name: 7, dtype: object

>  <hydroph_interaction:HIS:21>  (8) 
hydroph_interaction:HIS:21    0.0
hydroph_interaction:HIS:21      0
Name: 7, dtype: object

>  <pistack:HIS:21>  (8) 
pistack:HIS:21    0.0
pistack:HIS:21      0
Name: 7, dtype: object

>  <pication:HIS:21>  (8) 
pication:HIS:21    0.0
pication:HIS:21      0
Name: 7, dtype: object

>  <saltbridge:HIS:21>  (8) 
saltbridge:HIS:21    0.0
saltbridge:HIS:21      0
Name: 7, dtype: object

>  <halogenbond:HIS:21>  (8) 
halogenbond:HIS:21    NaN
halogenbond:HIS:21     -1
Name: 7, dtype: object

>  <hydroph_interaction:LEU:22>  (8) 
hydroph_interaction:LEU:22    NaN
hydroph_interaction:LEU:22     -1
Name: 7, dtype: object

>  <hbond:LEU:22>  (8) 
hbond:LEU:22    NaN
hbond:LEU:22     -1
Name: 7, dtype: object

>  <hydroph_interaction:TRP:28>  (8) 
hydroph_interaction:TRP:28    NaN
hydroph_interaction:TRP:28     -1
Name: 7, dtype: object

>  <hbond:SER:36>  (8) 
hbond:SER:36    NaN
hbond:SER:36     -1
Name: 7, dtype: object

>  <halogenbond:SER:36>  (8) 
halogenbond:SER:36    NaN
halogenbond:SER:36     -1
Name: 7, dtype: object

>  <hbond:SER:37>  (8) 
hbond:SER:37    NaN
hbond:SER:37     -1
Name: 7, dtype: object

>  <hbond:ARG:38>  (8) 
hbond:ARG:38    NaN
hbond:ARG:38     -1
Name: 7, dtype: object

>  <halogenbond:ARG:38>  (8) 
halogenbond:ARG:38    NaN
halogenbond:ARG:38     -1
Name: 7, dtype: object

>  <saltbridge:ASP:39>  (8) 
saltbridge:ASP:39    0.0
saltbridge:ASP:39      0
Name: 7, dtype: object

>  <halogenbond:ASP:39>  (8) 
halogenbond:ASP:39    NaN
halogenbond:ASP:39     -1
Name: 7, dtype: object

>  <hbond:ASP:39>  (8) 
hbond:ASP:39    NaN
hbond:ASP:39     -1
Name: 7, dtype: object

>  <hydroph_interaction:ASP:39>  (8) 
hydroph_interaction:ASP:39    NaN
hydroph_interaction:ASP:39     -1
Name: 7, dtype: object

>  <hydroph_interaction:LEU:40>  (8) 
hydroph_interaction:LEU:40    NaN
hydroph_interaction:LEU:40     -1
Name: 7, dtype: object

>  <hydroph_interaction:TYR:63>  (8) 
hydroph_interaction:TYR:63    NaN
hydroph_interaction:TYR:63     -1
Name: 7, dtype: object

>  <hbond:TYR:63>  (8) 
hbond:TYR:63    NaN
hbond:TYR:63     -1
Name: 7, dtype: object

>  <pistack:TYR:63>  (8) 
pistack:TYR:63    NaN
pistack:TYR:63     -1
Name: 7, dtype: object

>  <pication:TYR:63>  (8) 
pication:TYR:63    NaN
pication:TYR:63     -1
Name: 7, dtype: object

>  <halogenbond:TYR:64>  (8) 
halogenbond:TYR:64    NaN
halogenbond:TYR:64     -1
Name: 7, dtype: object

>  <hbond:TYR:64>  (8) 
hbond:TYR:64    NaN
hbond:TYR:64     -1
Name: 7, dtype: object

>  <hydroph_interaction:TYR:64>  (8) 
hydroph_interaction:TYR:64    NaN
hydroph_interaction:TYR:64     -1
Name: 7, dtype: object

>  <halogenbond:CYS:65>  (8) 
halogenbond:CYS:65    NaN
halogenbond:CYS:65     -1
Name: 7, dtype: object

>  <hbond:CYS:65>  (8) 
hbond:CYS:65    NaN
hbond:CYS:65     -1
Name: 7, dtype: object

>  <hbond:SER:66>  (8) 
hbond:SER:66    NaN
hbond:SER:66     -1
Name: 7, dtype: object

>  <halogenbond:SER:66>  (8) 
halogenbond:SER:66    NaN
halogenbond:SER:66     -1
Name: 7, dtype: object

>  <hbond:SER:67>  (8) 
hbond:SER:67    NaN
hbond:SER:67     -1
Name: 7, dtype: object

>  <halogenbond:SER:67>  (8) 
halogenbond:SER:67    NaN
halogenbond:SER:67     -1
Name: 7, dtype: object

>  <hbond:ARG:68>  (8) 
hbond:ARG:68    NaN
hbond:ARG:68     -1
Name: 7, dtype: object

>  <saltbridge:ARG:68>  (8) 
saltbridge:ARG:68    NaN
saltbridge:ARG:68     -1
Name: 7, dtype: object

>  <hydroph_interaction:ARG:68>  (8) 
hydroph_interaction:ARG:68    NaN
hydroph_interaction:ARG:68     -1
Name: 7, dtype: object

>  <pication:ARG:68>  (8) 
pication:ARG:68    NaN
pication:ARG:68     -1
Name: 7, dtype: object

>  <hydroph_interaction:TYR:72>  (8) 
hydroph_interaction:TYR:72    NaN
hydroph_interaction:TYR:72     -1
Name: 7, dtype: object

>  <hydroph_interaction:VAL:74>  (8) 
hydroph_interaction:VAL:74    NaN
hydroph_interaction:VAL:74     -1
Name: 7, dtype: object

>  <hydroph_interaction:PHE:76>  (8) 
hydroph_interaction:PHE:76    NaN
hydroph_interaction:PHE:76     -1
Name: 7, dtype: object

>  <hbond:SER:77>  (8) 
hbond:SER:77    NaN
hbond:SER:77     -1
Name: 7, dtype: object

>  <hbond:SER:80>  (8) 
hbond:SER:80    NaN
hbond:SER:80     -1
Name: 7, dtype: object

>  <hbond:LEU:81>  (8) 
hbond:LEU:81    NaN
hbond:LEU:81     -1
Name: 7, dtype: object

>  <halogenbond:LEU:81>  (8) 
halogenbond:LEU:81    NaN
halogenbond:LEU:81     -1
Name: 7, dtype: object

>  <hydroph_interaction:LEU:81>  (8) 
hydroph_interaction:LEU:81    NaN
hydroph_interaction:LEU:81     -1
Name: 7, dtype: object

>  <hydroph_interaction:ILE:82>  (8) 
hydroph_interaction:ILE:82    NaN
hydroph_interaction:ILE:82     -1
Name: 7, dtype: object

>  <halogenbond:ILE:82>  (8) 
halogenbond:ILE:82    NaN
halogenbond:ILE:82     -1
Name: 7, dtype: object

>  <hbond:ILE:82>  (8) 
hbond:ILE:82    NaN
hbond:ILE:82     -1
Name: 7, dtype: object

>  <hbond:PHE:83>  (8) 
hbond:PHE:83    NaN
hbond:PHE:83     -1
Name: 7, dtype: object

>  <hydroph_interaction:PHE:83>  (8) 
hydroph_interaction:PHE:83    NaN
hydroph_interaction:PHE:83     -1
Name: 7, dtype: object

>  <halogenbond:PHE:83>  (8) 
halogenbond:PHE:83    NaN
halogenbond:PHE:83     -1
Name: 7, dtype: object

>  <pistack:PHE:83>  (8) 
pistack:PHE:83    NaN
pistack:PHE:83     -1
Name: 7, dtype: object

>  <pication:PHE:83>  (8) 
pication:PHE:83    NaN
pication:PHE:83     -1
Name: 7, dtype: object

>  <hydroph_interaction:VAL:84>  (8) 
hydroph_interaction:VAL:84    0.0
hydroph_interaction:VAL:84      0
Name: 7, dtype: object

>  <halogenbond:VAL:84>  (8) 
halogenbond:VAL:84    NaN
halogenbond:VAL:84     -1
Name: 7, dtype: object

>  <hbond:VAL:84>  (8) 
hbond:VAL:84    NaN
hbond:VAL:84     -1
Name: 7, dtype: object

>  <hydroph_interaction:GLU:85>  (8) 
hydroph_interaction:GLU:85    NaN
hydroph_interaction:GLU:85     -1
Name: 7, dtype: object

>  <hbond:GLU:85>  (8) 
hbond:GLU:85    NaN
hbond:GLU:85     -1
Name: 7, dtype: object

>  <halogenbond:GLU:85>  (8) 
halogenbond:GLU:85    NaN
halogenbond:GLU:85     -1
Name: 7, dtype: object

>  <saltbridge:GLU:85>  (8) 
saltbridge:GLU:85    NaN
saltbridge:GLU:85     -1
Name: 7, dtype: object

>  <halogenbond:ALA:86>  (8) 
halogenbond:ALA:86    NaN
halogenbond:ALA:86     -1
Name: 7, dtype: object

>  <hbond:ALA:86>  (8) 
hbond:ALA:86    NaN
hbond:ALA:86     -1
Name: 7, dtype: object

>  <hydroph_interaction:ALA:86>  (8) 
hydroph_interaction:ALA:86    NaN
hydroph_interaction:ALA:86     -1
Name: 7, dtype: object

>  <hbond:SER:87>  (8) 
hbond:SER:87    0
hbond:SER:87    0
Name: 7, dtype: object

>  <halogenbond:SER:87>  (8) 
halogenbond:SER:87    NaN
halogenbond:SER:87     -1
Name: 7, dtype: object

>  <hbond:GLU:88>  (8) 
hbond:GLU:88    1.0
hbond:GLU:88      1
Name: 7, dtype: object

>  <hydroph_interaction:GLU:88>  (8) 
hydroph_interaction:GLU:88    NaN
hydroph_interaction:GLU:88     -1
Name: 7, dtype: object

>  <halogenbond:GLU:88>  (8) 
halogenbond:GLU:88    NaN
halogenbond:GLU:88     -1
Name: 7, dtype: object

>  <saltbridge:GLU:88>  (8) 
saltbridge:GLU:88    NaN
saltbridge:GLU:88     -1
Name: 7, dtype: object

>  <hydroph_interaction:TYR:89>  (8) 
hydroph_interaction:TYR:89    1.0
hydroph_interaction:TYR:89      1
Name: 7, dtype: object

>  <pistack:TYR:89>  (8) 
pistack:TYR:89    NaN
pistack:TYR:89     -1
Name: 7, dtype: object

>  <hbond:TYR:89>  (8) 
hbond:TYR:89    NaN
hbond:TYR:89     -1
Name: 7, dtype: object

>  <halogenbond:TYR:89>  (8) 
halogenbond:TYR:89    NaN
halogenbond:TYR:89     -1
Name: 7, dtype: object

>  <hydroph_interaction:TYR:90>  (8) 
hydroph_interaction:TYR:90    1.0
hydroph_interaction:TYR:90      1
Name: 7, dtype: object

>  <hbond:TYR:90>  (8) 
hbond:TYR:90    0.0
hbond:TYR:90      0
Name: 7, dtype: object

>  <pistack:TYR:90>  (8) 
pistack:TYR:90    NaN
pistack:TYR:90     -1
Name: 7, dtype: object

>  <halogenbond:TYR:90>  (8) 
halogenbond:TYR:90    NaN
halogenbond:TYR:90     -1
Name: 7, dtype: object

>  <pication:TYR:90>  (8) 
pication:TYR:90    NaN
pication:TYR:90     -1
Name: 7, dtype: object

>  <hbond:PRO:91>  (8) 
hbond:PRO:91    NaN
hbond:PRO:91     -1
Name: 7, dtype: object

>  <hydroph_interaction:PRO:91>  (8) 
hydroph_interaction:PRO:91    NaN
hydroph_interaction:PRO:91     -1
Name: 7, dtype: object

>  <halogenbond:PRO:91>  (8) 
halogenbond:PRO:91    NaN
halogenbond:PRO:91     -1
Name: 7, dtype: object

>  <hbond:ALA:92>  (8) 
hbond:ALA:92    NaN
hbond:ALA:92     -1
Name: 7, dtype: object

>  <hydroph_interaction:ALA:92>  (8) 
hydroph_interaction:ALA:92    NaN
hydroph_interaction:ALA:92     -1
Name: 7, dtype: object

>  <saltbridge:ARG:93>  (8) 
saltbridge:ARG:93    NaN
saltbridge:ARG:93     -1
Name: 7, dtype: object

>  <hbond:ARG:93>  (8) 
hbond:ARG:93    NaN
hbond:ARG:93     -1
Name: 7, dtype: object

>  <hydroph_interaction:ARG:93>  (8) 
hydroph_interaction:ARG:93    NaN
hydroph_interaction:ARG:93     -1
Name: 7, dtype: object

>  <halogenbond:ARG:93>  (8) 
halogenbond:ARG:93    NaN
halogenbond:ARG:93     -1
Name: 7, dtype: object

>  <pication:ARG:93>  (8) 
pication:ARG:93    NaN
pication:ARG:93     -1
Name: 7, dtype: object

>  <hydroph_interaction:TYR:94>  (8) 
hydroph_interaction:TYR:94    NaN
hydroph_interaction:TYR:94     -1
Name: 7, dtype: object

>  <pistack:TYR:94>  (8) 
pistack:TYR:94    NaN
pistack:TYR:94     -1
Name: 7, dtype: object

>  <hbond:TYR:94>  (8) 
hbond:TYR:94    NaN
hbond:TYR:94     -1
Name: 7, dtype: object

>  <hbond:GLN:95>  (8) 
hbond:GLN:95    0.0
hbond:GLN:95      0
Name: 7, dtype: object

>  <hydroph_interaction:GLN:95>  (8) 
hydroph_interaction:GLN:95    NaN
hydroph_interaction:GLN:95     -1
Name: 7, dtype: object

>  <halogenbond:GLN:95>  (8) 
halogenbond:GLN:95    NaN
halogenbond:GLN:95     -1
Name: 7, dtype: object

>  <hbond:SER:96>  (8) 
hbond:SER:96    NaN
hbond:SER:96     -1
Name: 7, dtype: object

>  <halogenbond:HIS:97>  (8) 
halogenbond:HIS:97    NaN
halogenbond:HIS:97     -1
Name: 7, dtype: object

>  <hydroph_interaction:LEU:98>  (8) 
hydroph_interaction:LEU:98    NaN
hydroph_interaction:LEU:98     -1
Name: 7, dtype: object

>  <hbond:LEU:98>  (8) 
hbond:LEU:98    NaN
hbond:LEU:98     -1
Name: 7, dtype: object

>  <halogenbond:LEU:98>  (8) 
halogenbond:LEU:98    NaN
halogenbond:LEU:98     -1
Name: 7, dtype: object

>  <hbond:MET:99>  (8) 
hbond:MET:99    NaN
hbond:MET:99     -1
Name: 7, dtype: object

>  <hydroph_interaction:MET:99>  (8) 
hydroph_interaction:MET:99    NaN
hydroph_interaction:MET:99     -1
Name: 7, dtype: object

>  <halogenbond:MET:99>  (8) 
halogenbond:MET:99    NaN
halogenbond:MET:99     -1
Name: 7, dtype: object

>  <hydroph_interaction:LEU:100>  (8) 
hydroph_interaction:LEU:100    NaN
hydroph_interaction:LEU:100     -1
Name: 7, dtype: object

>  <hbond:LEU:100>  (8) 
hbond:LEU:100    NaN
hbond:LEU:100     -1
Name: 7, dtype: object

>  <hbond:ALA:101>  (8) 
hbond:ALA:101    NaN
hbond:ALA:101     -1
Name: 7, dtype: object

>  <hydroph_interaction:ALA:101>  (8) 
hydroph_interaction:ALA:101    NaN
hydroph_interaction:ALA:101     -1
Name: 7, dtype: object

>  <hydroph_interaction:VAL:102>  (8) 
hydroph_interaction:VAL:102    NaN
hydroph_interaction:VAL:102     -1
Name: 7, dtype: object

>  <hbond:VAL:102>  (8) 
hbond:VAL:102    NaN
hbond:VAL:102     -1
Name: 7, dtype: object

>  <hbond:GLY:103>  (8) 
hbond:GLY:103    NaN
hbond:GLY:103     -1
Name: 7, dtype: object

>  <halogenbond:GLY:103>  (8) 
halogenbond:GLY:103    NaN
halogenbond:GLY:103     -1
Name: 7, dtype: object

>  <hbond:HIS:104>  (8) 
hbond:HIS:104    NaN
hbond:HIS:104     -1
Name: 7, dtype: object

>  <saltbridge:HIS:104>  (8) 
saltbridge:HIS:104    NaN
saltbridge:HIS:104     -1
Name: 7, dtype: object

>  <pication:HIS:104>  (8) 
pication:HIS:104    NaN
pication:HIS:104     -1
Name: 7, dtype: object

>  <halogenbond:HIS:104>  (8) 
halogenbond:HIS:104    NaN
halogenbond:HIS:104     -1
Name: 7, dtype: object

>  <hydroph_interaction:HIS:104>  (8) 
hydroph_interaction:HIS:104    NaN
hydroph_interaction:HIS:104     -1
Name: 7, dtype: object

>  <pistack:HIS:104>  (8) 
pistack:HIS:104    NaN
pistack:HIS:104     -1
Name: 7, dtype: object

>  <halogenbond:SER:105>  (8) 
halogenbond:SER:105    0.0
halogenbond:SER:105      0
Name: 7, dtype: object

>  <hbond:SER:105>  (8) 
hbond:SER:105    0.0
hbond:SER:105      0
Name: 7, dtype: object

>  <hbond:GLU:106>  (8) 
hbond:GLU:106    0.0
hbond:GLU:106      0
Name: 7, dtype: object

>  <hydroph_interaction:GLU:106>  (8) 
hydroph_interaction:GLU:106    NaN
hydroph_interaction:GLU:106     -1
Name: 7, dtype: object

>  <saltbridge:GLU:106>  (8) 
saltbridge:GLU:106    NaN
saltbridge:GLU:106     -1
Name: 7, dtype: object

>  <halogenbond:GLU:106>  (8) 
halogenbond:GLU:106    NaN
halogenbond:GLU:106     -1
Name: 7, dtype: object

>  <hydroph_interaction:PRO:107>  (8) 
hydroph_interaction:PRO:107    1
hydroph_interaction:PRO:107    1
Name: 7, dtype: object

>  <hbond:PRO:107>  (8) 
hbond:PRO:107    0.0
hbond:PRO:107      0
Name: 7, dtype: object

>  <halogenbond:PRO:107>  (8) 
halogenbond:PRO:107    NaN
halogenbond:PRO:107     -1
Name: 7, dtype: object

>  <hbond:GLY:108>  (8) 
hbond:GLY:108    NaN
hbond:GLY:108     -1
Name: 7, dtype: object

>  <halogenbond:GLY:108>  (8) 
halogenbond:GLY:108    NaN
halogenbond:GLY:108     -1
Name: 7, dtype: object

>  <hbond:ASP:109>  (8) 
hbond:ASP:109    0.0
hbond:ASP:109      0
Name: 7, dtype: object

>  <hydroph_interaction:ASP:109>  (8) 
hydroph_interaction:ASP:109    0.0
hydroph_interaction:ASP:109      0
Name: 7, dtype: object

>  <saltbridge:ASP:109>  (8) 
saltbridge:ASP:109    NaN
saltbridge:ASP:109     -1
Name: 7, dtype: object

>  <halogenbond:CYS:110>  (8) 
halogenbond:CYS:110    0.0
halogenbond:CYS:110      0
Name: 7, dtype: object

>  <hbond:CYS:110>  (8) 
hbond:CYS:110    0.0
hbond:CYS:110      0
Name: 7, dtype: object

>  <hbond:GLY:111>  (8) 
hbond:GLY:111    NaN
hbond:GLY:111     -1
Name: 7, dtype: object

>  <hbond:GLY:112>  (8) 
hbond:GLY:112    NaN
hbond:GLY:112     -1
Name: 7, dtype: object

>  <hbond:ILE:113>  (8) 
hbond:ILE:113    NaN
hbond:ILE:113     -1
Name: 7, dtype: object

>  <hydroph_interaction:LEU:114>  (8) 
hydroph_interaction:LEU:114    NaN
hydroph_interaction:LEU:114     -1
Name: 7, dtype: object

>  <hbond:LEU:114>  (8) 
hbond:LEU:114    NaN
hbond:LEU:114     -1
Name: 7, dtype: object

>  <hydroph_interaction:ILE:123>  (8) 
hydroph_interaction:ILE:123    NaN
hydroph_interaction:ILE:123     -1
Name: 7, dtype: object

>  <hbond:ILE:123>  (8) 
hbond:ILE:123    NaN
hbond:ILE:123     -1
Name: 7, dtype: object

>  <hydroph_interaction:VAL:124>  (8) 
hydroph_interaction:VAL:124    0.0
hydroph_interaction:VAL:124      0
Name: 7, dtype: object

>  <hbond:VAL:124>  (8) 
hbond:VAL:124    NaN
hbond:VAL:124     -1
Name: 7, dtype: object

>  <halogenbond:VAL:124>  (8) 
halogenbond:VAL:124    NaN
halogenbond:VAL:124     -1
Name: 7, dtype: object

>  <hbond:SER:125>  (8) 
hbond:SER:125    0
hbond:SER:125    0
Name: 7, dtype: object

>  <halogenbond:SER:125>  (8) 
halogenbond:SER:125    NaN
halogenbond:SER:125     -1
Name: 7, dtype: object

>  <hydroph_interaction:THR:126>  (8) 
hydroph_interaction:THR:126    0.0
hydroph_interaction:THR:126      0
Name: 7, dtype: object

>  <hbond:THR:126>  (8) 
hbond:THR:126    0.0
hbond:THR:126      0
Name: 7, dtype: object

>  <halogenbond:THR:126>  (8) 
halogenbond:THR:126    NaN
halogenbond:THR:126     -1
Name: 7, dtype: object

>  <hbond:GLY:127>  (8) 
hbond:GLY:127    0
hbond:GLY:127    0
Name: 7, dtype: object

>  <halogenbond:GLY:127>  (8) 
halogenbond:GLY:127    0.0
halogenbond:GLY:127      0
Name: 7, dtype: object

>  <hydroph_interaction:GLY:127>  (8) 
hydroph_interaction:GLY:127    NaN
hydroph_interaction:GLY:127     -1
Name: 7, dtype: object

>  <hbond:GLY:128>  (8) 
hbond:GLY:128    NaN
hbond:GLY:128     -1
Name: 7, dtype: object

>  <halogenbond:GLY:128>  (8) 
halogenbond:GLY:128    NaN
halogenbond:GLY:128     -1
Name: 7, dtype: object

>  <hydroph_interaction:GLY:128>  (8) 
hydroph_interaction:GLY:128    NaN
hydroph_interaction:GLY:128     -1
Name: 7, dtype: object

>  <hbond:ASN:129>  (8) 
hbond:ASN:129    NaN
hbond:ASN:129     -1
Name: 7, dtype: object

>  <hydroph_interaction:ASN:129>  (8) 
hydroph_interaction:ASN:129    NaN
hydroph_interaction:ASN:129     -1
Name: 7, dtype: object

>  <halogenbond:ASN:129>  (8) 
halogenbond:ASN:129    NaN
halogenbond:ASN:129     -1
Name: 7, dtype: object

>  <hbond:GLY:130>  (8) 
hbond:GLY:130    NaN
hbond:GLY:130     -1
Name: 7, dtype: object

>  <hbond:LEU:131>  (8) 
hbond:LEU:131    NaN
hbond:LEU:131     -1
Name: 7, dtype: object

>  <hydroph_interaction:LEU:131>  (8) 
hydroph_interaction:LEU:131    NaN
hydroph_interaction:LEU:131     -1
Name: 7, dtype: object

>  <halogenbond:LEU:131>  (8) 
halogenbond:LEU:131    NaN
halogenbond:LEU:131     -1
Name: 7, dtype: object

>  <hydroph_interaction:VAL:132>  (8) 
hydroph_interaction:VAL:132    NaN
hydroph_interaction:VAL:132     -1
Name: 7, dtype: object

>  <hbond:VAL:132>  (8) 
hbond:VAL:132    NaN
hbond:VAL:132     -1
Name: 7, dtype: object

>  <hbond:GLY:133>  (8) 
hbond:GLY:133    NaN
hbond:GLY:133     -1
Name: 7, dtype: object

>  <halogenbond:GLY:133>  (8) 
halogenbond:GLY:133    NaN
halogenbond:GLY:133     -1
Name: 7, dtype: object

>  <hydroph_interaction:PHE:134>  (8) 
hydroph_interaction:PHE:134    NaN
hydroph_interaction:PHE:134     -1
Name: 7, dtype: object

>  <hbond:PHE:134>  (8) 
hbond:PHE:134    NaN
hbond:PHE:134     -1
Name: 7, dtype: object

>  <pistack:PHE:134>  (8) 
pistack:PHE:134    NaN
pistack:PHE:134     -1
Name: 7, dtype: object

>  <pication:PHE:134>  (8) 
pication:PHE:134    NaN
pication:PHE:134     -1
Name: 7, dtype: object

>  <halogenbond:PHE:134>  (8) 
halogenbond:PHE:134    NaN
halogenbond:PHE:134     -1
Name: 7, dtype: object

>  <hydroph_interaction:ALA:135>  (8) 
hydroph_interaction:ALA:135    NaN
hydroph_interaction:ALA:135     -1
Name: 7, dtype: object

>  <hbond:ALA:135>  (8) 
hbond:ALA:135    NaN
hbond:ALA:135     -1
Name: 7, dtype: object

$$$$
Z513565940
     RDKit          3D

 24 24  0  0  0  0  0  0  0  0999 V2000
   12.5290   15.3510   22.2390 C   0  0  0  0  0  0  0  0  0  0  0  0
   12.0500   13.9890   22.1800 N   0  0  0  0  0  0  0  0  0  0  0  0
   11.0940   13.4900   23.1240 C   0  0  0  0  0  0  0  0  0  0  0  0
   10.9390   14.0150   24.4440 O   0  0  0  0  0  0  0  0  0  0  0  0
   10.3680   12.4620   22.5870 N   0  0  0  0  0  0  0  0  0  0  0  0
    9.5380   11.5880   23.3730 C   0  0  0  0  0  0  0  0  0  0  0  0
    9.5900   10.1580   23.2770 C   0  0  0  0  0  0  0  0  0  0  0  0
   10.3630    9.3710   22.4800 C   0  0  0  0  0  0  0  0  0  0  0  0
    8.7110    9.6750   24.1300 N   0  0  0  0  0  0  0  0  0  0  0  0
    8.0360   10.6220   24.8180 N   0  0  0  0  0  0  0  0  0  0  0  0
    8.5350   11.8010   24.3550 C   0  0  0  0  0  0  0  0  0  0  0  0
    7.9930   13.0850   24.9040 C   0  0  0  0  0  0  0  0  0  0  0  0
   11.8060   16.0140   21.7540 H   0  0  0  0  0  0  0  0  0  0  0  0
   13.4970   15.4490   21.7450 H   0  0  0  0  0  0  0  0  0  0  0  0
   12.6230   15.6710   23.2830 H   0  0  0  0  0  0  0  0  0  0  0  0
   12.0530   13.5130   21.2680 H   0  0  0  0  0  0  0  0  0  0  0  0
   10.6210   12.2430   21.6180 H   0  0  0  0  0  0  0  0  0  0  0  0
   10.0130    8.5730   21.8500 H   0  0  0  0  0  0  0  0  0  0  0  0
   11.1390    8.9140   23.1060 H   0  0  0  0  0  0  0  0  0  0  0  0
   10.8820   10.0250   21.7910 H   0  0  0  0  0  0  0  0  0  0  0  0
    8.5270    8.6890   24.2820 H   0  0  0  0  0  0  0  0  0  0  0  0
    7.8080   12.9710   25.9820 H   0  0  0  0  0  0  0  0  0  0  0  0
    8.7290   13.8880   24.7890 H   0  0  0  0  0  0  0  0  0  0  0  0
    7.0770   13.3930   24.3870 H   0  0  0  0  0  0  0  0  0  0  0  0
  1  2  1  0
  2  3  1  0
  3  4  2  0
  3  5  1  0
  5  6  1  0
  6  7  2  0
  7  8  1  0
  7  9  1  0
  9 10  1  0
 10 11  2  0
 11 12  1  0
 11  6  1  0
  1 13  1  0
  1 14  1  0
  1 15  1  0
  2 16  1  0
  5 17  1  0
  8 18  1  0
  8 19  1  0
  8 20  1  0
  9 21  1  0
 12 22  1  0
 12 23  1  0
 12 24  1  0
A    1
 C1 
A    2
 N1 
A    3
 C2 
A    4
 O1 
A    5
 N2 
A    6
 C3 
A    7
 C4 
A    8
 C5 
A    9
 N3 
A   10
 N4 
A   11
 C6 
A   12
 C7 
A   13
 H1 
A   14
 H2 
A   15
 H3 
A   16
 H4 
A   17
 H5 
A   18
 H6 
A   19
 H7 
A   20
 H8 
A   21
 H9 
A   22
 H10
A   23
 H11
A   24
 H12
M  END
>  <ref_pdb>  (9) 
x0310_0A

>  <ref_mols>  (9) 
x0310_0A,x0365_0A

>  <original SMILES>  (9) 
CNC(=O)Nc1c(C)n[nH]c1C

>  <rationale>  (9) 
info halogenbond:G127+A86+E85+Q95+E106+E88+T126+P107+H104+Y64+C65+S87+N129+F83+R93+L131+I82+G128+P91+H21+V84+G133+Y90+Y89+H97+L81+F134+L98+R20+G103+S66+S67+S7+G108+R38+V124+M99+S36; hbond:S125+G127+D39+G108+G103+G130+N19+R68+V124+R93+P91+F83+S7+S66+G112+V132+R20+Y89+S77+A135+Y63+A92+A101+M99+F134+L100+I82+Y64+S36+L98+V84+L81+Y94+S80+R38+S37+V102+G8+I123+G111+I113+L114+C65+L22+S96; hydroph_interaction:V124+P107+L22+N129+D39+N19+L40+I123+A135+Q95+I82+L98+L131+F83+R93+H104+R20+A86+V74+P91+A101+F76+M99+L114+A92+Y94+R68+Y72+Y64+V18+V102+W28+G127+G128+L81; pication:H104+R93+Y63+F134+Y90+R68+F83+R20; pistack:Y89+Y90+H104+F134+Y63+F83+Y94; saltbridge:R93+H104+E106+E85+E88+R68+R20; 

>  <intxn_cluster>  (9) 
-1

>  <intxn_cluster_rank>  (9) 
-1

>  <N_interactions>  (9) 
5

>  <∆∆G>  (9) 
-9.882702

>  <$/mg>  (9) 
0.0

>  <comRMSD>  (9) 
0.536

>  <N_rotatable_bonds>  (9) 
4

>  <deep_P1_sidechain>  (9) 
nan

>  <farthest_distance_to_substrate>  (9) 
2.563915

>  <hbond:SER:7>  (9) 
hbond:SER:7    NaN
hbond:SER:7     -1
Name: 8, dtype: object

>  <halogenbond:SER:7>  (9) 
halogenbond:SER:7    NaN
halogenbond:SER:7     -1
Name: 8, dtype: object

>  <hbond:GLY:8>  (9) 
hbond:GLY:8    NaN
hbond:GLY:8     -1
Name: 8, dtype: object

>  <hydroph_interaction:VAL:18>  (9) 
hydroph_interaction:VAL:18    NaN
hydroph_interaction:VAL:18     -1
Name: 8, dtype: object

>  <hbond:ASN:19>  (9) 
hbond:ASN:19    NaN
hbond:ASN:19     -1
Name: 8, dtype: object

>  <hydroph_interaction:ASN:19>  (9) 
hydroph_interaction:ASN:19    NaN
hydroph_interaction:ASN:19     -1
Name: 8, dtype: object

>  <halogenbond:ASN:19>  (9) 
halogenbond:ASN:19    0.0
halogenbond:ASN:19      0
Name: 8, dtype: object

>  <hbond:ARG:20>  (9) 
hbond:ARG:20    NaN
hbond:ARG:20     -1
Name: 8, dtype: object

>  <hydroph_interaction:ARG:20>  (9) 
hydroph_interaction:ARG:20    NaN
hydroph_interaction:ARG:20     -1
Name: 8, dtype: object

>  <saltbridge:ARG:20>  (9) 
saltbridge:ARG:20    NaN
saltbridge:ARG:20     -1
Name: 8, dtype: object

>  <halogenbond:ARG:20>  (9) 
halogenbond:ARG:20    NaN
halogenbond:ARG:20     -1
Name: 8, dtype: object

>  <pication:ARG:20>  (9) 
pication:ARG:20    NaN
pication:ARG:20     -1
Name: 8, dtype: object

>  <hbond:HIS:21>  (9) 
hbond:HIS:21    0.0
hbond:HIS:21      0
Name: 8, dtype: object

>  <hydroph_interaction:HIS:21>  (9) 
hydroph_interaction:HIS:21    0.0
hydroph_interaction:HIS:21      0
Name: 8, dtype: object

>  <pistack:HIS:21>  (9) 
pistack:HIS:21    0.0
pistack:HIS:21      0
Name: 8, dtype: object

>  <pication:HIS:21>  (9) 
pication:HIS:21    0.0
pication:HIS:21      0
Name: 8, dtype: object

>  <saltbridge:HIS:21>  (9) 
saltbridge:HIS:21    0.0
saltbridge:HIS:21      0
Name: 8, dtype: object

>  <halogenbond:HIS:21>  (9) 
halogenbond:HIS:21    NaN
halogenbond:HIS:21     -1
Name: 8, dtype: object

>  <hydroph_interaction:LEU:22>  (9) 
hydroph_interaction:LEU:22    NaN
hydroph_interaction:LEU:22     -1
Name: 8, dtype: object

>  <hbond:LEU:22>  (9) 
hbond:LEU:22    NaN
hbond:LEU:22     -1
Name: 8, dtype: object

>  <hydroph_interaction:TRP:28>  (9) 
hydroph_interaction:TRP:28    NaN
hydroph_interaction:TRP:28     -1
Name: 8, dtype: object

>  <hbond:SER:36>  (9) 
hbond:SER:36    NaN
hbond:SER:36     -1
Name: 8, dtype: object

>  <halogenbond:SER:36>  (9) 
halogenbond:SER:36    NaN
halogenbond:SER:36     -1
Name: 8, dtype: object

>  <hbond:SER:37>  (9) 
hbond:SER:37    NaN
hbond:SER:37     -1
Name: 8, dtype: object

>  <hbond:ARG:38>  (9) 
hbond:ARG:38    NaN
hbond:ARG:38     -1
Name: 8, dtype: object

>  <halogenbond:ARG:38>  (9) 
halogenbond:ARG:38    NaN
halogenbond:ARG:38     -1
Name: 8, dtype: object

>  <saltbridge:ASP:39>  (9) 
saltbridge:ASP:39    0.0
saltbridge:ASP:39      0
Name: 8, dtype: object

>  <halogenbond:ASP:39>  (9) 
halogenbond:ASP:39    0.0
halogenbond:ASP:39      0
Name: 8, dtype: object

>  <hbond:ASP:39>  (9) 
hbond:ASP:39    NaN
hbond:ASP:39     -1
Name: 8, dtype: object

>  <hydroph_interaction:ASP:39>  (9) 
hydroph_interaction:ASP:39    NaN
hydroph_interaction:ASP:39     -1
Name: 8, dtype: object

>  <hydroph_interaction:LEU:40>  (9) 
hydroph_interaction:LEU:40    NaN
hydroph_interaction:LEU:40     -1
Name: 8, dtype: object

>  <hydroph_interaction:TYR:63>  (9) 
hydroph_interaction:TYR:63    0.0
hydroph_interaction:TYR:63      0
Name: 8, dtype: object

>  <hbond:TYR:63>  (9) 
hbond:TYR:63    NaN
hbond:TYR:63     -1
Name: 8, dtype: object

>  <pistack:TYR:63>  (9) 
pistack:TYR:63    NaN
pistack:TYR:63     -1
Name: 8, dtype: object

>  <pication:TYR:63>  (9) 
pication:TYR:63    NaN
pication:TYR:63     -1
Name: 8, dtype: object

>  <halogenbond:TYR:64>  (9) 
halogenbond:TYR:64    NaN
halogenbond:TYR:64     -1
Name: 8, dtype: object

>  <hbond:TYR:64>  (9) 
hbond:TYR:64    NaN
hbond:TYR:64     -1
Name: 8, dtype: object

>  <hydroph_interaction:TYR:64>  (9) 
hydroph_interaction:TYR:64    NaN
hydroph_interaction:TYR:64     -1
Name: 8, dtype: object

>  <halogenbond:CYS:65>  (9) 
halogenbond:CYS:65    NaN
halogenbond:CYS:65     -1
Name: 8, dtype: object

>  <hbond:CYS:65>  (9) 
hbond:CYS:65    NaN
hbond:CYS:65     -1
Name: 8, dtype: object

>  <hbond:SER:66>  (9) 
hbond:SER:66    NaN
hbond:SER:66     -1
Name: 8, dtype: object

>  <halogenbond:SER:66>  (9) 
halogenbond:SER:66    NaN
halogenbond:SER:66     -1
Name: 8, dtype: object

>  <hbond:SER:67>  (9) 
hbond:SER:67    0.0
hbond:SER:67      0
Name: 8, dtype: object

>  <halogenbond:SER:67>  (9) 
halogenbond:SER:67    NaN
halogenbond:SER:67     -1
Name: 8, dtype: object

>  <hbond:ARG:68>  (9) 
hbond:ARG:68    NaN
hbond:ARG:68     -1
Name: 8, dtype: object

>  <saltbridge:ARG:68>  (9) 
saltbridge:ARG:68    NaN
saltbridge:ARG:68     -1
Name: 8, dtype: object

>  <hydroph_interaction:ARG:68>  (9) 
hydroph_interaction:ARG:68    NaN
hydroph_interaction:ARG:68     -1
Name: 8, dtype: object

>  <pication:ARG:68>  (9) 
pication:ARG:68    NaN
pication:ARG:68     -1
Name: 8, dtype: object

>  <hydroph_interaction:TYR:72>  (9) 
hydroph_interaction:TYR:72    NaN
hydroph_interaction:TYR:72     -1
Name: 8, dtype: object

>  <hydroph_interaction:VAL:74>  (9) 
hydroph_interaction:VAL:74    NaN
hydroph_interaction:VAL:74     -1
Name: 8, dtype: object

>  <hydroph_interaction:PHE:76>  (9) 
hydroph_interaction:PHE:76    NaN
hydroph_interaction:PHE:76     -1
Name: 8, dtype: object

>  <hbond:SER:77>  (9) 
hbond:SER:77    NaN
hbond:SER:77     -1
Name: 8, dtype: object

>  <hbond:SER:80>  (9) 
hbond:SER:80    NaN
hbond:SER:80     -1
Name: 8, dtype: object

>  <hbond:LEU:81>  (9) 
hbond:LEU:81    NaN
hbond:LEU:81     -1
Name: 8, dtype: object

>  <halogenbond:LEU:81>  (9) 
halogenbond:LEU:81    NaN
halogenbond:LEU:81     -1
Name: 8, dtype: object

>  <hydroph_interaction:LEU:81>  (9) 
hydroph_interaction:LEU:81    NaN
hydroph_interaction:LEU:81     -1
Name: 8, dtype: object

>  <hydroph_interaction:ILE:82>  (9) 
hydroph_interaction:ILE:82    NaN
hydroph_interaction:ILE:82     -1
Name: 8, dtype: object

>  <halogenbond:ILE:82>  (9) 
halogenbond:ILE:82    NaN
halogenbond:ILE:82     -1
Name: 8, dtype: object

>  <hbond:ILE:82>  (9) 
hbond:ILE:82    NaN
hbond:ILE:82     -1
Name: 8, dtype: object

>  <hbond:PHE:83>  (9) 
hbond:PHE:83    NaN
hbond:PHE:83     -1
Name: 8, dtype: object

>  <hydroph_interaction:PHE:83>  (9) 
hydroph_interaction:PHE:83    NaN
hydroph_interaction:PHE:83     -1
Name: 8, dtype: object

>  <halogenbond:PHE:83>  (9) 
halogenbond:PHE:83    NaN
halogenbond:PHE:83     -1
Name: 8, dtype: object

>  <pistack:PHE:83>  (9) 
pistack:PHE:83    NaN
pistack:PHE:83     -1
Name: 8, dtype: object

>  <pication:PHE:83>  (9) 
pication:PHE:83    NaN
pication:PHE:83     -1
Name: 8, dtype: object

>  <hydroph_interaction:VAL:84>  (9) 
hydroph_interaction:VAL:84    0.0
hydroph_interaction:VAL:84      0
Name: 8, dtype: object

>  <halogenbond:VAL:84>  (9) 
halogenbond:VAL:84    NaN
halogenbond:VAL:84     -1
Name: 8, dtype: object

>  <hbond:VAL:84>  (9) 
hbond:VAL:84    NaN
hbond:VAL:84     -1
Name: 8, dtype: object

>  <hydroph_interaction:GLU:85>  (9) 
hydroph_interaction:GLU:85    0.0
hydroph_interaction:GLU:85      0
Name: 8, dtype: object

>  <hbond:GLU:85>  (9) 
hbond:GLU:85    0.0
hbond:GLU:85      0
Name: 8, dtype: object

>  <halogenbond:GLU:85>  (9) 
halogenbond:GLU:85    NaN
halogenbond:GLU:85     -1
Name: 8, dtype: object

>  <saltbridge:GLU:85>  (9) 
saltbridge:GLU:85    NaN
saltbridge:GLU:85     -1
Name: 8, dtype: object

>  <halogenbond:ALA:86>  (9) 
halogenbond:ALA:86    NaN
halogenbond:ALA:86     -1
Name: 8, dtype: object

>  <hbond:ALA:86>  (9) 
hbond:ALA:86    0.0
hbond:ALA:86      0
Name: 8, dtype: object

>  <hydroph_interaction:ALA:86>  (9) 
hydroph_interaction:ALA:86    NaN
hydroph_interaction:ALA:86     -1
Name: 8, dtype: object

>  <hbond:SER:87>  (9) 
hbond:SER:87    0
hbond:SER:87    0
Name: 8, dtype: object

>  <halogenbond:SER:87>  (9) 
halogenbond:SER:87    NaN
halogenbond:SER:87     -1
Name: 8, dtype: object

>  <hbond:GLU:88>  (9) 
hbond:GLU:88    0.0
hbond:GLU:88      0
Name: 8, dtype: object

>  <hydroph_interaction:GLU:88>  (9) 
hydroph_interaction:GLU:88    0.0
hydroph_interaction:GLU:88      0
Name: 8, dtype: object

>  <halogenbond:GLU:88>  (9) 
halogenbond:GLU:88    NaN
halogenbond:GLU:88     -1
Name: 8, dtype: object

>  <saltbridge:GLU:88>  (9) 
saltbridge:GLU:88    NaN
saltbridge:GLU:88     -1
Name: 8, dtype: object

>  <hydroph_interaction:TYR:89>  (9) 
hydroph_interaction:TYR:89    0.0
hydroph_interaction:TYR:89      0
Name: 8, dtype: object

>  <pistack:TYR:89>  (9) 
pistack:TYR:89    NaN
pistack:TYR:89     -1
Name: 8, dtype: object

>  <hbond:TYR:89>  (9) 
hbond:TYR:89    NaN
hbond:TYR:89     -1
Name: 8, dtype: object

>  <halogenbond:TYR:89>  (9) 
halogenbond:TYR:89    NaN
halogenbond:TYR:89     -1
Name: 8, dtype: object

>  <hydroph_interaction:TYR:90>  (9) 
hydroph_interaction:TYR:90    0.0
hydroph_interaction:TYR:90      0
Name: 8, dtype: object

>  <hbond:TYR:90>  (9) 
hbond:TYR:90    0.0
hbond:TYR:90      0
Name: 8, dtype: object

>  <pistack:TYR:90>  (9) 
pistack:TYR:90    NaN
pistack:TYR:90     -1
Name: 8, dtype: object

>  <halogenbond:TYR:90>  (9) 
halogenbond:TYR:90    NaN
halogenbond:TYR:90     -1
Name: 8, dtype: object

>  <pication:TYR:90>  (9) 
pication:TYR:90    NaN
pication:TYR:90     -1
Name: 8, dtype: object

>  <hbond:PRO:91>  (9) 
hbond:PRO:91    NaN
hbond:PRO:91     -1
Name: 8, dtype: object

>  <hydroph_interaction:PRO:91>  (9) 
hydroph_interaction:PRO:91    NaN
hydroph_interaction:PRO:91     -1
Name: 8, dtype: object

>  <halogenbond:PRO:91>  (9) 
halogenbond:PRO:91    NaN
halogenbond:PRO:91     -1
Name: 8, dtype: object

>  <hbond:ALA:92>  (9) 
hbond:ALA:92    NaN
hbond:ALA:92     -1
Name: 8, dtype: object

>  <hydroph_interaction:ALA:92>  (9) 
hydroph_interaction:ALA:92    NaN
hydroph_interaction:ALA:92     -1
Name: 8, dtype: object

>  <saltbridge:ARG:93>  (9) 
saltbridge:ARG:93    NaN
saltbridge:ARG:93     -1
Name: 8, dtype: object

>  <hbond:ARG:93>  (9) 
hbond:ARG:93    NaN
hbond:ARG:93     -1
Name: 8, dtype: object

>  <hydroph_interaction:ARG:93>  (9) 
hydroph_interaction:ARG:93    NaN
hydroph_interaction:ARG:93     -1
Name: 8, dtype: object

>  <halogenbond:ARG:93>  (9) 
halogenbond:ARG:93    NaN
halogenbond:ARG:93     -1
Name: 8, dtype: object

>  <pication:ARG:93>  (9) 
pication:ARG:93    NaN
pication:ARG:93     -1
Name: 8, dtype: object

>  <hydroph_interaction:TYR:94>  (9) 
hydroph_interaction:TYR:94    NaN
hydroph_interaction:TYR:94     -1
Name: 8, dtype: object

>  <pistack:TYR:94>  (9) 
pistack:TYR:94    NaN
pistack:TYR:94     -1
Name: 8, dtype: object

>  <hbond:TYR:94>  (9) 
hbond:TYR:94    NaN
hbond:TYR:94     -1
Name: 8, dtype: object

>  <hbond:GLN:95>  (9) 
hbond:GLN:95    0.0
hbond:GLN:95      0
Name: 8, dtype: object

>  <hydroph_interaction:GLN:95>  (9) 
hydroph_interaction:GLN:95    NaN
hydroph_interaction:GLN:95     -1
Name: 8, dtype: object

>  <halogenbond:GLN:95>  (9) 
halogenbond:GLN:95    NaN
halogenbond:GLN:95     -1
Name: 8, dtype: object

>  <hbond:SER:96>  (9) 
hbond:SER:96    NaN
hbond:SER:96     -1
Name: 8, dtype: object

>  <halogenbond:HIS:97>  (9) 
halogenbond:HIS:97    NaN
halogenbond:HIS:97     -1
Name: 8, dtype: object

>  <hydroph_interaction:LEU:98>  (9) 
hydroph_interaction:LEU:98    NaN
hydroph_interaction:LEU:98     -1
Name: 8, dtype: object

>  <hbond:LEU:98>  (9) 
hbond:LEU:98    NaN
hbond:LEU:98     -1
Name: 8, dtype: object

>  <halogenbond:LEU:98>  (9) 
halogenbond:LEU:98    NaN
halogenbond:LEU:98     -1
Name: 8, dtype: object

>  <hbond:MET:99>  (9) 
hbond:MET:99    NaN
hbond:MET:99     -1
Name: 8, dtype: object

>  <hydroph_interaction:MET:99>  (9) 
hydroph_interaction:MET:99    NaN
hydroph_interaction:MET:99     -1
Name: 8, dtype: object

>  <halogenbond:MET:99>  (9) 
halogenbond:MET:99    NaN
halogenbond:MET:99     -1
Name: 8, dtype: object

>  <hydroph_interaction:LEU:100>  (9) 
hydroph_interaction:LEU:100    0.0
hydroph_interaction:LEU:100      0
Name: 8, dtype: object

>  <hbond:LEU:100>  (9) 
hbond:LEU:100    NaN
hbond:LEU:100     -1
Name: 8, dtype: object

>  <hbond:ALA:101>  (9) 
hbond:ALA:101    NaN
hbond:ALA:101     -1
Name: 8, dtype: object

>  <hydroph_interaction:ALA:101>  (9) 
hydroph_interaction:ALA:101    NaN
hydroph_interaction:ALA:101     -1
Name: 8, dtype: object

>  <hydroph_interaction:VAL:102>  (9) 
hydroph_interaction:VAL:102    NaN
hydroph_interaction:VAL:102     -1
Name: 8, dtype: object

>  <hbond:VAL:102>  (9) 
hbond:VAL:102    NaN
hbond:VAL:102     -1
Name: 8, dtype: object

>  <hbond:GLY:103>  (9) 
hbond:GLY:103    NaN
hbond:GLY:103     -1
Name: 8, dtype: object

>  <halogenbond:GLY:103>  (9) 
halogenbond:GLY:103    NaN
halogenbond:GLY:103     -1
Name: 8, dtype: object

>  <hbond:HIS:104>  (9) 
hbond:HIS:104    0.0
hbond:HIS:104      0
Name: 8, dtype: object

>  <saltbridge:HIS:104>  (9) 
saltbridge:HIS:104    NaN
saltbridge:HIS:104     -1
Name: 8, dtype: object

>  <pication:HIS:104>  (9) 
pication:HIS:104    NaN
pication:HIS:104     -1
Name: 8, dtype: object

>  <halogenbond:HIS:104>  (9) 
halogenbond:HIS:104    NaN
halogenbond:HIS:104     -1
Name: 8, dtype: object

>  <hydroph_interaction:HIS:104>  (9) 
hydroph_interaction:HIS:104    NaN
hydroph_interaction:HIS:104     -1
Name: 8, dtype: object

>  <pistack:HIS:104>  (9) 
pistack:HIS:104    NaN
pistack:HIS:104     -1
Name: 8, dtype: object

>  <halogenbond:SER:105>  (9) 
halogenbond:SER:105    0.0
halogenbond:SER:105      0
Name: 8, dtype: object

>  <hbond:SER:105>  (9) 
hbond:SER:105    0.0
hbond:SER:105      0
Name: 8, dtype: object

>  <hbond:GLU:106>  (9) 
hbond:GLU:106    0.0
hbond:GLU:106      0
Name: 8, dtype: object

>  <hydroph_interaction:GLU:106>  (9) 
hydroph_interaction:GLU:106    0.0
hydroph_interaction:GLU:106      0
Name: 8, dtype: object

>  <saltbridge:GLU:106>  (9) 
saltbridge:GLU:106    NaN
saltbridge:GLU:106     -1
Name: 8, dtype: object

>  <halogenbond:GLU:106>  (9) 
halogenbond:GLU:106    NaN
halogenbond:GLU:106     -1
Name: 8, dtype: object

>  <hydroph_interaction:PRO:107>  (9) 
hydroph_interaction:PRO:107    1
hydroph_interaction:PRO:107    1
Name: 8, dtype: object

>  <hbond:PRO:107>  (9) 
hbond:PRO:107    0.0
hbond:PRO:107      0
Name: 8, dtype: object

>  <halogenbond:PRO:107>  (9) 
halogenbond:PRO:107    NaN
halogenbond:PRO:107     -1
Name: 8, dtype: object

>  <hbond:GLY:108>  (9) 
hbond:GLY:108    NaN
hbond:GLY:108     -1
Name: 8, dtype: object

>  <halogenbond:GLY:108>  (9) 
halogenbond:GLY:108    NaN
halogenbond:GLY:108     -1
Name: 8, dtype: object

>  <hbond:ASP:109>  (9) 
hbond:ASP:109    0.0
hbond:ASP:109      0
Name: 8, dtype: object

>  <hydroph_interaction:ASP:109>  (9) 
hydroph_interaction:ASP:109    0.0
hydroph_interaction:ASP:109      0
Name: 8, dtype: object

>  <saltbridge:ASP:109>  (9) 
saltbridge:ASP:109    0.0
saltbridge:ASP:109      0
Name: 8, dtype: object

>  <halogenbond:CYS:110>  (9) 
halogenbond:CYS:110    0.0
halogenbond:CYS:110      0
Name: 8, dtype: object

>  <hbond:CYS:110>  (9) 
hbond:CYS:110    0.0
hbond:CYS:110      0
Name: 8, dtype: object

>  <hbond:GLY:111>  (9) 
hbond:GLY:111    NaN
hbond:GLY:111     -1
Name: 8, dtype: object

>  <hbond:GLY:112>  (9) 
hbond:GLY:112    NaN
hbond:GLY:112     -1
Name: 8, dtype: object

>  <hbond:ILE:113>  (9) 
hbond:ILE:113    NaN
hbond:ILE:113     -1
Name: 8, dtype: object

>  <hydroph_interaction:LEU:114>  (9) 
hydroph_interaction:LEU:114    NaN
hydroph_interaction:LEU:114     -1
Name: 8, dtype: object

>  <hbond:LEU:114>  (9) 
hbond:LEU:114    NaN
hbond:LEU:114     -1
Name: 8, dtype: object

>  <hydroph_interaction:ILE:123>  (9) 
hydroph_interaction:ILE:123    NaN
hydroph_interaction:ILE:123     -1
Name: 8, dtype: object

>  <hbond:ILE:123>  (9) 
hbond:ILE:123    NaN
hbond:ILE:123     -1
Name: 8, dtype: object

>  <hydroph_interaction:VAL:124>  (9) 
hydroph_interaction:VAL:124    1.0
hydroph_interaction:VAL:124      1
Name: 8, dtype: object

>  <hbond:VAL:124>  (9) 
hbond:VAL:124    NaN
hbond:VAL:124     -1
Name: 8, dtype: object

>  <halogenbond:VAL:124>  (9) 
halogenbond:VAL:124    NaN
halogenbond:VAL:124     -1
Name: 8, dtype: object

>  <hbond:SER:125>  (9) 
hbond:SER:125    2
hbond:SER:125    2
Name: 8, dtype: object

>  <halogenbond:SER:125>  (9) 
halogenbond:SER:125    0.0
halogenbond:SER:125      0
Name: 8, dtype: object

>  <hydroph_interaction:THR:126>  (9) 
hydroph_interaction:THR:126    0.0
hydroph_interaction:THR:126      0
Name: 8, dtype: object

>  <hbond:THR:126>  (9) 
hbond:THR:126    0.0
hbond:THR:126      0
Name: 8, dtype: object

>  <halogenbond:THR:126>  (9) 
halogenbond:THR:126    NaN
halogenbond:THR:126     -1
Name: 8, dtype: object

>  <hbond:GLY:127>  (9) 
hbond:GLY:127    1
hbond:GLY:127    1
Name: 8, dtype: object

>  <halogenbond:GLY:127>  (9) 
halogenbond:GLY:127    NaN
halogenbond:GLY:127     -1
Name: 8, dtype: object

>  <hydroph_interaction:GLY:127>  (9) 
hydroph_interaction:GLY:127    NaN
hydroph_interaction:GLY:127     -1
Name: 8, dtype: object

>  <hbond:GLY:128>  (9) 
hbond:GLY:128    0.0
hbond:GLY:128      0
Name: 8, dtype: object

>  <halogenbond:GLY:128>  (9) 
halogenbond:GLY:128    NaN
halogenbond:GLY:128     -1
Name: 8, dtype: object

>  <hydroph_interaction:GLY:128>  (9) 
hydroph_interaction:GLY:128    NaN
hydroph_interaction:GLY:128     -1
Name: 8, dtype: object

>  <hbond:ASN:129>  (9) 
hbond:ASN:129    0.0
hbond:ASN:129      0
Name: 8, dtype: object

>  <hydroph_interaction:ASN:129>  (9) 
hydroph_interaction:ASN:129    NaN
hydroph_interaction:ASN:129     -1
Name: 8, dtype: object

>  <halogenbond:ASN:129>  (9) 
halogenbond:ASN:129    NaN
halogenbond:ASN:129     -1
Name: 8, dtype: object

>  <hbond:GLY:130>  (9) 
hbond:GLY:130    NaN
hbond:GLY:130     -1
Name: 8, dtype: object

>  <hbond:LEU:131>  (9) 
hbond:LEU:131    0.0
hbond:LEU:131      0
Name: 8, dtype: object

>  <hydroph_interaction:LEU:131>  (9) 
hydroph_interaction:LEU:131    NaN
hydroph_interaction:LEU:131     -1
Name: 8, dtype: object

>  <halogenbond:LEU:131>  (9) 
halogenbond:LEU:131    NaN
halogenbond:LEU:131     -1
Name: 8, dtype: object

>  <hydroph_interaction:VAL:132>  (9) 
hydroph_interaction:VAL:132    0.0
hydroph_interaction:VAL:132      0
Name: 8, dtype: object

>  <hbond:VAL:132>  (9) 
hbond:VAL:132    NaN
hbond:VAL:132     -1
Name: 8, dtype: object

>  <hbond:GLY:133>  (9) 
hbond:GLY:133    0.0
hbond:GLY:133      0
Name: 8, dtype: object

>  <halogenbond:GLY:133>  (9) 
halogenbond:GLY:133    NaN
halogenbond:GLY:133     -1
Name: 8, dtype: object

>  <hydroph_interaction:PHE:134>  (9) 
hydroph_interaction:PHE:134    0.0
hydroph_interaction:PHE:134      0
Name: 8, dtype: object

>  <hbond:PHE:134>  (9) 
hbond:PHE:134    NaN
hbond:PHE:134     -1
Name: 8, dtype: object

>  <pistack:PHE:134>  (9) 
pistack:PHE:134    NaN
pistack:PHE:134     -1
Name: 8, dtype: object

>  <pication:PHE:134>  (9) 
pication:PHE:134    NaN
pication:PHE:134     -1
Name: 8, dtype: object

>  <halogenbond:PHE:134>  (9) 
halogenbond:PHE:134    NaN
halogenbond:PHE:134     -1
Name: 8, dtype: object

>  <hydroph_interaction:ALA:135>  (9) 
hydroph_interaction:ALA:135    NaN
hydroph_interaction:ALA:135     -1
Name: 8, dtype: object

>  <hbond:ALA:135>  (9) 
hbond:ALA:135    NaN
hbond:ALA:135     -1
Name: 8, dtype: object

$$$$
Z432809230
     RDKit          3D

 29 29  0  0  0  0  0  0  0  0999 V2000
   12.1470   16.2840   21.9850 C   0  0  0  0  0  0  0  0  0  0  0  0
   13.0900   15.1380   21.7920 C   0  0  0  0  0  0  0  0  0  0  0  0
   12.6420   13.9950   22.5420 N   0  0  0  0  0  0  0  0  0  0  0  0
   11.4440   14.0050   23.2410 C   0  0  0  0  0  0  0  0  0  0  0  0
   11.3110   14.4510   24.3730 O   0  0  0  0  0  0  0  0  0  0  0  0
   10.3730   13.4190   22.4760 C   0  0  0  0  0  0  0  0  0  0  0  0
    9.4190   14.3730   21.9830 O   0  0  0  0  0  0  0  0  0  0  0  0
    9.6770   14.7650   20.6360 C   0  0  0  0  0  0  0  0  0  0  0  0
    9.6710   12.2970   23.2070 C   0  0  0  0  0  0  0  0  0  0  0  0
   10.0150   10.9680   22.9170 C   0  0  0  0  0  0  0  0  0  0  0  0
    9.3820    9.9330   23.5680 C   0  0  0  0  0  0  0  0  0  0  0  0
    8.3980   10.2190   24.5110 C   0  0  0  0  0  0  0  0  0  0  0  0
    8.0470   11.5260   24.8110 C   0  0  0  0  0  0  0  0  0  0  0  0
    8.6830   12.5680   24.1590 C   0  0  0  0  0  0  0  0  0  0  0  0
   12.4740   17.1750   21.4570 H   0  0  0  0  0  0  0  0  0  0  0  0
   11.1550   16.0200   21.6220 H   0  0  0  0  0  0  0  0  0  0  0  0
   12.0690   16.5310   23.0460 H   0  0  0  0  0  0  0  0  0  0  0  0
   14.0800   15.4070   22.1670 H   0  0  0  0  0  0  0  0  0  0  0  0
   13.1790   14.8800   20.7290 H   0  0  0  0  0  0  0  0  0  0  0  0
   13.0290   13.0920   22.2800 H   0  0  0  0  0  0  0  0  0  0  0  0
   10.8700   13.0220   21.6230 H   0  0  0  0  0  0  0  0  0  0  0  0
    8.8110   14.5720   20.0040 H   0  0  0  0  0  0  0  0  0  0  0  0
   10.5230   14.2170   20.2150 H   0  0  0  0  0  0  0  0  0  0  0  0
    9.8980   15.8340   20.6050 H   0  0  0  0  0  0  0  0  0  0  0  0
   10.7780   10.7440   22.1790 H   0  0  0  0  0  0  0  0  0  0  0  0
    9.6530    8.9170   23.3390 H   0  0  0  0  0  0  0  0  0  0  0  0
    7.8980    9.4130   25.0190 H   0  0  0  0  0  0  0  0  0  0  0  0
    7.2770   11.7270   25.5520 H   0  0  0  0  0  0  0  0  0  0  0  0
    8.4160   13.5960   24.3830 H   0  0  0  0  0  0  0  0  0  0  0  0
  1  2  1  0
  2  3  1  0
  3  4  1  0
  4  5  2  0
  4  6  1  0
  6  7  1  0
  7  8  1  0
  6  9  1  0
  9 10  2  0
 10 11  1  0
 11 12  2  0
 12 13  1  0
 13 14  2  0
 14  9  1  0
  1 15  1  0
  1 16  1  0
  1 17  1  0
  2 18  1  0
  2 19  1  0
  3 20  1  0
  6 21  1  0
  8 22  1  0
  8 23  1  0
  8 24  1  0
 10 25  1  0
 11 26  1  0
 12 27  1  0
 13 28  1  0
 14 29  1  0
A    1
 C1 
A    2
 C2 
A    3
 N1 
A    4
 C3 
A    5
 O1 
A    6
 C4 
A    7
 O2 
A    8
 C5 
A    9
 C6 
A   10
 C7 
A   11
 C8 
A   12
 C9 
A   13
 C10
A   14
 C11
A   15
 H1 
A   16
 H2 
A   17
 H3 
A   18
 H4 
A   19
 H5 
A   20
 H6 
A   21
 H7 
A   22
 H8 
A   23
 H9 
A   24
 H10
A   25
 H11
A   26
 H12
A   27
 H13
A   28
 H14
A   29
 H15
M  END
>  <ref_pdb>  (10) 
x0310_0A

>  <ref_mols>  (10) 
x0554_0A,x0310_0A

>  <original SMILES>  (10) 
CCNC(=O)C(OC)c1ccccc1

>  <rationale>  (10) 
info halogenbond:C110+G127+D39+A86+S125+E85+Q95+E106+E88+T126+P107+H104+Y64+C65+S87+N129+F83+R93+L131+I82+G128+P91+N19+H21+V84+G133+Y90+Y89+H97+L81+F134+L98+R20+G103+S66+S67+S7+G108+R38+V124+M99+S36; hbond:S87+H21+G108+G103+G128+G130+L131+H104+R68+V124+R93+P91+F83+S67+S7+S66+G112+G133+V132+R20+Y89+S77+A135+Y63+A92+A101+M99+F134+L100+I82+Y64+S36+L98+V84+L81+Y94+S80+R38+S37+V102+G8+I123+G111+I113+L114+C65+L22+S96; hydroph_interaction:Y90+Y89+P107+N129+D39+L40+I123+A135+Q95+I82+L100+L98+L131+F83+R93+V132+Y63+F134+H104+R20+A86+V74+P91+A101+F76+M99+L114+A92+Y94+R68+Y72+Y64+V18+V102+W28+G127+G128+L81; pication:H104+R93+Y63+F134+Y90+R68+F83+R20; pistack:H21+Y89+Y90+H104+F134+Y63+F83+Y94; saltbridge:R93+H104+E106+D109+E85+E88+R68+R20; 

>  <intxn_cluster>  (10) 
-1

>  <intxn_cluster_rank>  (10) 
-1

>  <N_interactions>  (10) 
5

>  <∆∆G>  (10) 
-9.897558

>  <$/mg>  (10) 
163.0

>  <comRMSD>  (10) 
0.757563

>  <N_rotatable_bonds>  (10) 
6

>  <deep_P1_sidechain>  (10) 
nan

>  <farthest_distance_to_substrate>  (10) 
2.391989

>  <hbond:SER:7>  (10) 
hbond:SER:7    NaN
hbond:SER:7     -1
Name: 9, dtype: object

>  <halogenbond:SER:7>  (10) 
halogenbond:SER:7    NaN
halogenbond:SER:7     -1
Name: 9, dtype: object

>  <hbond:GLY:8>  (10) 
hbond:GLY:8    NaN
hbond:GLY:8     -1
Name: 9, dtype: object

>  <hydroph_interaction:VAL:18>  (10) 
hydroph_interaction:VAL:18    NaN
hydroph_interaction:VAL:18     -1
Name: 9, dtype: object

>  <hbond:ASN:19>  (10) 
hbond:ASN:19    0.0
hbond:ASN:19      0
Name: 9, dtype: object

>  <hydroph_interaction:ASN:19>  (10) 
hydroph_interaction:ASN:19    0.0
hydroph_interaction:ASN:19      0
Name: 9, dtype: object

>  <halogenbond:ASN:19>  (10) 
halogenbond:ASN:19    NaN
halogenbond:ASN:19     -1
Name: 9, dtype: object

>  <hbond:ARG:20>  (10) 
hbond:ARG:20    NaN
hbond:ARG:20     -1
Name: 9, dtype: object

>  <hydroph_interaction:ARG:20>  (10) 
hydroph_interaction:ARG:20    NaN
hydroph_interaction:ARG:20     -1
Name: 9, dtype: object

>  <saltbridge:ARG:20>  (10) 
saltbridge:ARG:20    NaN
saltbridge:ARG:20     -1
Name: 9, dtype: object

>  <halogenbond:ARG:20>  (10) 
halogenbond:ARG:20    NaN
halogenbond:ARG:20     -1
Name: 9, dtype: object

>  <pication:ARG:20>  (10) 
pication:ARG:20    NaN
pication:ARG:20     -1
Name: 9, dtype: object

>  <hbond:HIS:21>  (10) 
hbond:HIS:21    1.0
hbond:HIS:21      1
Name: 9, dtype: object

>  <hydroph_interaction:HIS:21>  (10) 
hydroph_interaction:HIS:21    0.0
hydroph_interaction:HIS:21      0
Name: 9, dtype: object

>  <pistack:HIS:21>  (10) 
pistack:HIS:21    NaN
pistack:HIS:21     -1
Name: 9, dtype: object

>  <pication:HIS:21>  (10) 
pication:HIS:21    0.0
pication:HIS:21      0
Name: 9, dtype: object

>  <saltbridge:HIS:21>  (10) 
saltbridge:HIS:21    0.0
saltbridge:HIS:21      0
Name: 9, dtype: object

>  <halogenbond:HIS:21>  (10) 
halogenbond:HIS:21    NaN
halogenbond:HIS:21     -1
Name: 9, dtype: object

>  <hydroph_interaction:LEU:22>  (10) 
hydroph_interaction:LEU:22    0.0
hydroph_interaction:LEU:22      0
Name: 9, dtype: object

>  <hbond:LEU:22>  (10) 
hbond:LEU:22    NaN
hbond:LEU:22     -1
Name: 9, dtype: object

>  <hydroph_interaction:TRP:28>  (10) 
hydroph_interaction:TRP:28    NaN
hydroph_interaction:TRP:28     -1
Name: 9, dtype: object

>  <hbond:SER:36>  (10) 
hbond:SER:36    NaN
hbond:SER:36     -1
Name: 9, dtype: object

>  <halogenbond:SER:36>  (10) 
halogenbond:SER:36    NaN
halogenbond:SER:36     -1
Name: 9, dtype: object

>  <hbond:SER:37>  (10) 
hbond:SER:37    NaN
hbond:SER:37     -1
Name: 9, dtype: object

>  <hbond:ARG:38>  (10) 
hbond:ARG:38    NaN
hbond:ARG:38     -1
Name: 9, dtype: object

>  <halogenbond:ARG:38>  (10) 
halogenbond:ARG:38    NaN
halogenbond:ARG:38     -1
Name: 9, dtype: object

>  <saltbridge:ASP:39>  (10) 
saltbridge:ASP:39    0.0
saltbridge:ASP:39      0
Name: 9, dtype: object

>  <halogenbond:ASP:39>  (10) 
halogenbond:ASP:39    NaN
halogenbond:ASP:39     -1
Name: 9, dtype: object

>  <hbond:ASP:39>  (10) 
hbond:ASP:39    0.0
hbond:ASP:39      0
Name: 9, dtype: object

>  <hydroph_interaction:ASP:39>  (10) 
hydroph_interaction:ASP:39    NaN
hydroph_interaction:ASP:39     -1
Name: 9, dtype: object

>  <hydroph_interaction:LEU:40>  (10) 
hydroph_interaction:LEU:40    NaN
hydroph_interaction:LEU:40     -1
Name: 9, dtype: object

>  <hydroph_interaction:TYR:63>  (10) 
hydroph_interaction:TYR:63    NaN
hydroph_interaction:TYR:63     -1
Name: 9, dtype: object

>  <hbond:TYR:63>  (10) 
hbond:TYR:63    NaN
hbond:TYR:63     -1
Name: 9, dtype: object

>  <pistack:TYR:63>  (10) 
pistack:TYR:63    NaN
pistack:TYR:63     -1
Name: 9, dtype: object

>  <pication:TYR:63>  (10) 
pication:TYR:63    NaN
pication:TYR:63     -1
Name: 9, dtype: object

>  <halogenbond:TYR:64>  (10) 
halogenbond:TYR:64    NaN
halogenbond:TYR:64     -1
Name: 9, dtype: object

>  <hbond:TYR:64>  (10) 
hbond:TYR:64    NaN
hbond:TYR:64     -1
Name: 9, dtype: object

>  <hydroph_interaction:TYR:64>  (10) 
hydroph_interaction:TYR:64    NaN
hydroph_interaction:TYR:64     -1
Name: 9, dtype: object

>  <halogenbond:CYS:65>  (10) 
halogenbond:CYS:65    NaN
halogenbond:CYS:65     -1
Name: 9, dtype: object

>  <hbond:CYS:65>  (10) 
hbond:CYS:65    NaN
hbond:CYS:65     -1
Name: 9, dtype: object

>  <hbond:SER:66>  (10) 
hbond:SER:66    NaN
hbond:SER:66     -1
Name: 9, dtype: object

>  <halogenbond:SER:66>  (10) 
halogenbond:SER:66    NaN
halogenbond:SER:66     -1
Name: 9, dtype: object

>  <hbond:SER:67>  (10) 
hbond:SER:67    NaN
hbond:SER:67     -1
Name: 9, dtype: object

>  <halogenbond:SER:67>  (10) 
halogenbond:SER:67    NaN
halogenbond:SER:67     -1
Name: 9, dtype: object

>  <hbond:ARG:68>  (10) 
hbond:ARG:68    NaN
hbond:ARG:68     -1
Name: 9, dtype: object

>  <saltbridge:ARG:68>  (10) 
saltbridge:ARG:68    NaN
saltbridge:ARG:68     -1
Name: 9, dtype: object

>  <hydroph_interaction:ARG:68>  (10) 
hydroph_interaction:ARG:68    NaN
hydroph_interaction:ARG:68     -1
Name: 9, dtype: object

>  <pication:ARG:68>  (10) 
pication:ARG:68    NaN
pication:ARG:68     -1
Name: 9, dtype: object

>  <hydroph_interaction:TYR:72>  (10) 
hydroph_interaction:TYR:72    NaN
hydroph_interaction:TYR:72     -1
Name: 9, dtype: object

>  <hydroph_interaction:VAL:74>  (10) 
hydroph_interaction:VAL:74    NaN
hydroph_interaction:VAL:74     -1
Name: 9, dtype: object

>  <hydroph_interaction:PHE:76>  (10) 
hydroph_interaction:PHE:76    NaN
hydroph_interaction:PHE:76     -1
Name: 9, dtype: object

>  <hbond:SER:77>  (10) 
hbond:SER:77    NaN
hbond:SER:77     -1
Name: 9, dtype: object

>  <hbond:SER:80>  (10) 
hbond:SER:80    NaN
hbond:SER:80     -1
Name: 9, dtype: object

>  <hbond:LEU:81>  (10) 
hbond:LEU:81    NaN
hbond:LEU:81     -1
Name: 9, dtype: object

>  <halogenbond:LEU:81>  (10) 
halogenbond:LEU:81    NaN
halogenbond:LEU:81     -1
Name: 9, dtype: object

>  <hydroph_interaction:LEU:81>  (10) 
hydroph_interaction:LEU:81    NaN
hydroph_interaction:LEU:81     -1
Name: 9, dtype: object

>  <hydroph_interaction:ILE:82>  (10) 
hydroph_interaction:ILE:82    NaN
hydroph_interaction:ILE:82     -1
Name: 9, dtype: object

>  <halogenbond:ILE:82>  (10) 
halogenbond:ILE:82    NaN
halogenbond:ILE:82     -1
Name: 9, dtype: object

>  <hbond:ILE:82>  (10) 
hbond:ILE:82    NaN
hbond:ILE:82     -1
Name: 9, dtype: object

>  <hbond:PHE:83>  (10) 
hbond:PHE:83    NaN
hbond:PHE:83     -1
Name: 9, dtype: object

>  <hydroph_interaction:PHE:83>  (10) 
hydroph_interaction:PHE:83    NaN
hydroph_interaction:PHE:83     -1
Name: 9, dtype: object

>  <halogenbond:PHE:83>  (10) 
halogenbond:PHE:83    NaN
halogenbond:PHE:83     -1
Name: 9, dtype: object

>  <pistack:PHE:83>  (10) 
pistack:PHE:83    NaN
pistack:PHE:83     -1
Name: 9, dtype: object

>  <pication:PHE:83>  (10) 
pication:PHE:83    NaN
pication:PHE:83     -1
Name: 9, dtype: object

>  <hydroph_interaction:VAL:84>  (10) 
hydroph_interaction:VAL:84    0.0
hydroph_interaction:VAL:84      0
Name: 9, dtype: object

>  <halogenbond:VAL:84>  (10) 
halogenbond:VAL:84    NaN
halogenbond:VAL:84     -1
Name: 9, dtype: object

>  <hbond:VAL:84>  (10) 
hbond:VAL:84    NaN
hbond:VAL:84     -1
Name: 9, dtype: object

>  <hydroph_interaction:GLU:85>  (10) 
hydroph_interaction:GLU:85    0.0
hydroph_interaction:GLU:85      0
Name: 9, dtype: object

>  <hbond:GLU:85>  (10) 
hbond:GLU:85    0.0
hbond:GLU:85      0
Name: 9, dtype: object

>  <halogenbond:GLU:85>  (10) 
halogenbond:GLU:85    NaN
halogenbond:GLU:85     -1
Name: 9, dtype: object

>  <saltbridge:GLU:85>  (10) 
saltbridge:GLU:85    NaN
saltbridge:GLU:85     -1
Name: 9, dtype: object

>  <halogenbond:ALA:86>  (10) 
halogenbond:ALA:86    NaN
halogenbond:ALA:86     -1
Name: 9, dtype: object

>  <hbond:ALA:86>  (10) 
hbond:ALA:86    0.0
hbond:ALA:86      0
Name: 9, dtype: object

>  <hydroph_interaction:ALA:86>  (10) 
hydroph_interaction:ALA:86    NaN
hydroph_interaction:ALA:86     -1
Name: 9, dtype: object

>  <hbond:SER:87>  (10) 
hbond:SER:87    1
hbond:SER:87    1
Name: 9, dtype: object

>  <halogenbond:SER:87>  (10) 
halogenbond:SER:87    NaN
halogenbond:SER:87     -1
Name: 9, dtype: object

>  <hbond:GLU:88>  (10) 
hbond:GLU:88    0.0
hbond:GLU:88      0
Name: 9, dtype: object

>  <hydroph_interaction:GLU:88>  (10) 
hydroph_interaction:GLU:88    0.0
hydroph_interaction:GLU:88      0
Name: 9, dtype: object

>  <halogenbond:GLU:88>  (10) 
halogenbond:GLU:88    NaN
halogenbond:GLU:88     -1
Name: 9, dtype: object

>  <saltbridge:GLU:88>  (10) 
saltbridge:GLU:88    NaN
saltbridge:GLU:88     -1
Name: 9, dtype: object

>  <hydroph_interaction:TYR:89>  (10) 
hydroph_interaction:TYR:89    1.0
hydroph_interaction:TYR:89      1
Name: 9, dtype: object

>  <pistack:TYR:89>  (10) 
pistack:TYR:89    NaN
pistack:TYR:89     -1
Name: 9, dtype: object

>  <hbond:TYR:89>  (10) 
hbond:TYR:89    NaN
hbond:TYR:89     -1
Name: 9, dtype: object

>  <halogenbond:TYR:89>  (10) 
halogenbond:TYR:89    NaN
halogenbond:TYR:89     -1
Name: 9, dtype: object

>  <hydroph_interaction:TYR:90>  (10) 
hydroph_interaction:TYR:90    1.0
hydroph_interaction:TYR:90      1
Name: 9, dtype: object

>  <hbond:TYR:90>  (10) 
hbond:TYR:90    0.0
hbond:TYR:90      0
Name: 9, dtype: object

>  <pistack:TYR:90>  (10) 
pistack:TYR:90    NaN
pistack:TYR:90     -1
Name: 9, dtype: object

>  <halogenbond:TYR:90>  (10) 
halogenbond:TYR:90    NaN
halogenbond:TYR:90     -1
Name: 9, dtype: object

>  <pication:TYR:90>  (10) 
pication:TYR:90    NaN
pication:TYR:90     -1
Name: 9, dtype: object

>  <hbond:PRO:91>  (10) 
hbond:PRO:91    NaN
hbond:PRO:91     -1
Name: 9, dtype: object

>  <hydroph_interaction:PRO:91>  (10) 
hydroph_interaction:PRO:91    NaN
hydroph_interaction:PRO:91     -1
Name: 9, dtype: object

>  <halogenbond:PRO:91>  (10) 
halogenbond:PRO:91    NaN
halogenbond:PRO:91     -1
Name: 9, dtype: object

>  <hbond:ALA:92>  (10) 
hbond:ALA:92    NaN
hbond:ALA:92     -1
Name: 9, dtype: object

>  <hydroph_interaction:ALA:92>  (10) 
hydroph_interaction:ALA:92    NaN
hydroph_interaction:ALA:92     -1
Name: 9, dtype: object

>  <saltbridge:ARG:93>  (10) 
saltbridge:ARG:93    NaN
saltbridge:ARG:93     -1
Name: 9, dtype: object

>  <hbond:ARG:93>  (10) 
hbond:ARG:93    NaN
hbond:ARG:93     -1
Name: 9, dtype: object

>  <hydroph_interaction:ARG:93>  (10) 
hydroph_interaction:ARG:93    NaN
hydroph_interaction:ARG:93     -1
Name: 9, dtype: object

>  <halogenbond:ARG:93>  (10) 
halogenbond:ARG:93    NaN
halogenbond:ARG:93     -1
Name: 9, dtype: object

>  <pication:ARG:93>  (10) 
pication:ARG:93    NaN
pication:ARG:93     -1
Name: 9, dtype: object

>  <hydroph_interaction:TYR:94>  (10) 
hydroph_interaction:TYR:94    NaN
hydroph_interaction:TYR:94     -1
Name: 9, dtype: object

>  <pistack:TYR:94>  (10) 
pistack:TYR:94    NaN
pistack:TYR:94     -1
Name: 9, dtype: object

>  <hbond:TYR:94>  (10) 
hbond:TYR:94    NaN
hbond:TYR:94     -1
Name: 9, dtype: object

>  <hbond:GLN:95>  (10) 
hbond:GLN:95    0.0
hbond:GLN:95      0
Name: 9, dtype: object

>  <hydroph_interaction:GLN:95>  (10) 
hydroph_interaction:GLN:95    NaN
hydroph_interaction:GLN:95     -1
Name: 9, dtype: object

>  <halogenbond:GLN:95>  (10) 
halogenbond:GLN:95    NaN
halogenbond:GLN:95     -1
Name: 9, dtype: object

>  <hbond:SER:96>  (10) 
hbond:SER:96    NaN
hbond:SER:96     -1
Name: 9, dtype: object

>  <halogenbond:HIS:97>  (10) 
halogenbond:HIS:97    NaN
halogenbond:HIS:97     -1
Name: 9, dtype: object

>  <hydroph_interaction:LEU:98>  (10) 
hydroph_interaction:LEU:98    NaN
hydroph_interaction:LEU:98     -1
Name: 9, dtype: object

>  <hbond:LEU:98>  (10) 
hbond:LEU:98    NaN
hbond:LEU:98     -1
Name: 9, dtype: object

>  <halogenbond:LEU:98>  (10) 
halogenbond:LEU:98    NaN
halogenbond:LEU:98     -1
Name: 9, dtype: object

>  <hbond:MET:99>  (10) 
hbond:MET:99    NaN
hbond:MET:99     -1
Name: 9, dtype: object

>  <hydroph_interaction:MET:99>  (10) 
hydroph_interaction:MET:99    NaN
hydroph_interaction:MET:99     -1
Name: 9, dtype: object

>  <halogenbond:MET:99>  (10) 
halogenbond:MET:99    NaN
halogenbond:MET:99     -1
Name: 9, dtype: object

>  <hydroph_interaction:LEU:100>  (10) 
hydroph_interaction:LEU:100    NaN
hydroph_interaction:LEU:100     -1
Name: 9, dtype: object

>  <hbond:LEU:100>  (10) 
hbond:LEU:100    NaN
hbond:LEU:100     -1
Name: 9, dtype: object

>  <hbond:ALA:101>  (10) 
hbond:ALA:101    NaN
hbond:ALA:101     -1
Name: 9, dtype: object

>  <hydroph_interaction:ALA:101>  (10) 
hydroph_interaction:ALA:101    NaN
hydroph_interaction:ALA:101     -1
Name: 9, dtype: object

>  <hydroph_interaction:VAL:102>  (10) 
hydroph_interaction:VAL:102    NaN
hydroph_interaction:VAL:102     -1
Name: 9, dtype: object

>  <hbond:VAL:102>  (10) 
hbond:VAL:102    NaN
hbond:VAL:102     -1
Name: 9, dtype: object

>  <hbond:GLY:103>  (10) 
hbond:GLY:103    NaN
hbond:GLY:103     -1
Name: 9, dtype: object

>  <halogenbond:GLY:103>  (10) 
halogenbond:GLY:103    NaN
halogenbond:GLY:103     -1
Name: 9, dtype: object

>  <hbond:HIS:104>  (10) 
hbond:HIS:104    NaN
hbond:HIS:104     -1
Name: 9, dtype: object

>  <saltbridge:HIS:104>  (10) 
saltbridge:HIS:104    NaN
saltbridge:HIS:104     -1
Name: 9, dtype: object

>  <pication:HIS:104>  (10) 
pication:HIS:104    NaN
pication:HIS:104     -1
Name: 9, dtype: object

>  <halogenbond:HIS:104>  (10) 
halogenbond:HIS:104    NaN
halogenbond:HIS:104     -1
Name: 9, dtype: object

>  <hydroph_interaction:HIS:104>  (10) 
hydroph_interaction:HIS:104    NaN
hydroph_interaction:HIS:104     -1
Name: 9, dtype: object

>  <pistack:HIS:104>  (10) 
pistack:HIS:104    NaN
pistack:HIS:104     -1
Name: 9, dtype: object

>  <halogenbond:SER:105>  (10) 
halogenbond:SER:105    0.0
halogenbond:SER:105      0
Name: 9, dtype: object

>  <hbond:SER:105>  (10) 
hbond:SER:105    0.0
hbond:SER:105      0
Name: 9, dtype: object

>  <hbond:GLU:106>  (10) 
hbond:GLU:106    0.0
hbond:GLU:106      0
Name: 9, dtype: object

>  <hydroph_interaction:GLU:106>  (10) 
hydroph_interaction:GLU:106    0.0
hydroph_interaction:GLU:106      0
Name: 9, dtype: object

>  <saltbridge:GLU:106>  (10) 
saltbridge:GLU:106    NaN
saltbridge:GLU:106     -1
Name: 9, dtype: object

>  <halogenbond:GLU:106>  (10) 
halogenbond:GLU:106    NaN
halogenbond:GLU:106     -1
Name: 9, dtype: object

>  <hydroph_interaction:PRO:107>  (10) 
hydroph_interaction:PRO:107    1
hydroph_interaction:PRO:107    1
Name: 9, dtype: object

>  <hbond:PRO:107>  (10) 
hbond:PRO:107    0.0
hbond:PRO:107      0
Name: 9, dtype: object

>  <halogenbond:PRO:107>  (10) 
halogenbond:PRO:107    NaN
halogenbond:PRO:107     -1
Name: 9, dtype: object

>  <hbond:GLY:108>  (10) 
hbond:GLY:108    NaN
hbond:GLY:108     -1
Name: 9, dtype: object

>  <halogenbond:GLY:108>  (10) 
halogenbond:GLY:108    NaN
halogenbond:GLY:108     -1
Name: 9, dtype: object

>  <hbond:ASP:109>  (10) 
hbond:ASP:109    0.0
hbond:ASP:109      0
Name: 9, dtype: object

>  <hydroph_interaction:ASP:109>  (10) 
hydroph_interaction:ASP:109    0.0
hydroph_interaction:ASP:109      0
Name: 9, dtype: object

>  <saltbridge:ASP:109>  (10) 
saltbridge:ASP:109    NaN
saltbridge:ASP:109     -1
Name: 9, dtype: object

>  <halogenbond:CYS:110>  (10) 
halogenbond:CYS:110    NaN
halogenbond:CYS:110     -1
Name: 9, dtype: object

>  <hbond:CYS:110>  (10) 
hbond:CYS:110    0.0
hbond:CYS:110      0
Name: 9, dtype: object

>  <hbond:GLY:111>  (10) 
hbond:GLY:111    NaN
hbond:GLY:111     -1
Name: 9, dtype: object

>  <hbond:GLY:112>  (10) 
hbond:GLY:112    NaN
hbond:GLY:112     -1
Name: 9, dtype: object

>  <hbond:ILE:113>  (10) 
hbond:ILE:113    NaN
hbond:ILE:113     -1
Name: 9, dtype: object

>  <hydroph_interaction:LEU:114>  (10) 
hydroph_interaction:LEU:114    NaN
hydroph_interaction:LEU:114     -1
Name: 9, dtype: object

>  <hbond:LEU:114>  (10) 
hbond:LEU:114    NaN
hbond:LEU:114     -1
Name: 9, dtype: object

>  <hydroph_interaction:ILE:123>  (10) 
hydroph_interaction:ILE:123    NaN
hydroph_interaction:ILE:123     -1
Name: 9, dtype: object

>  <hbond:ILE:123>  (10) 
hbond:ILE:123    NaN
hbond:ILE:123     -1
Name: 9, dtype: object

>  <hydroph_interaction:VAL:124>  (10) 
hydroph_interaction:VAL:124    0.0
hydroph_interaction:VAL:124      0
Name: 9, dtype: object

>  <hbond:VAL:124>  (10) 
hbond:VAL:124    NaN
hbond:VAL:124     -1
Name: 9, dtype: object

>  <halogenbond:VAL:124>  (10) 
halogenbond:VAL:124    NaN
halogenbond:VAL:124     -1
Name: 9, dtype: object

>  <hbond:SER:125>  (10) 
hbond:SER:125    0
hbond:SER:125    0
Name: 9, dtype: object

>  <halogenbond:SER:125>  (10) 
halogenbond:SER:125    NaN
halogenbond:SER:125     -1
Name: 9, dtype: object

>  <hydroph_interaction:THR:126>  (10) 
hydroph_interaction:THR:126    0.0
hydroph_interaction:THR:126      0
Name: 9, dtype: object

>  <hbond:THR:126>  (10) 
hbond:THR:126    0.0
hbond:THR:126      0
Name: 9, dtype: object

>  <halogenbond:THR:126>  (10) 
halogenbond:THR:126    NaN
halogenbond:THR:126     -1
Name: 9, dtype: object

>  <hbond:GLY:127>  (10) 
hbond:GLY:127    0
hbond:GLY:127    0
Name: 9, dtype: object

>  <halogenbond:GLY:127>  (10) 
halogenbond:GLY:127    NaN
halogenbond:GLY:127     -1
Name: 9, dtype: object

>  <hydroph_interaction:GLY:127>  (10) 
hydroph_interaction:GLY:127    NaN
hydroph_interaction:GLY:127     -1
Name: 9, dtype: object

>  <hbond:GLY:128>  (10) 
hbond:GLY:128    NaN
hbond:GLY:128     -1
Name: 9, dtype: object

>  <halogenbond:GLY:128>  (10) 
halogenbond:GLY:128    NaN
halogenbond:GLY:128     -1
Name: 9, dtype: object

>  <hydroph_interaction:GLY:128>  (10) 
hydroph_interaction:GLY:128    NaN
hydroph_interaction:GLY:128     -1
Name: 9, dtype: object

>  <hbond:ASN:129>  (10) 
hbond:ASN:129    0.0
hbond:ASN:129      0
Name: 9, dtype: object

>  <hydroph_interaction:ASN:129>  (10) 
hydroph_interaction:ASN:129    NaN
hydroph_interaction:ASN:129     -1
Name: 9, dtype: object

>  <halogenbond:ASN:129>  (10) 
halogenbond:ASN:129    NaN
halogenbond:ASN:129     -1
Name: 9, dtype: object

>  <hbond:GLY:130>  (10) 
hbond:GLY:130    NaN
hbond:GLY:130     -1
Name: 9, dtype: object

>  <hbond:LEU:131>  (10) 
hbond:LEU:131    NaN
hbond:LEU:131     -1
Name: 9, dtype: object

>  <hydroph_interaction:LEU:131>  (10) 
hydroph_interaction:LEU:131    NaN
hydroph_interaction:LEU:131     -1
Name: 9, dtype: object

>  <halogenbond:LEU:131>  (10) 
halogenbond:LEU:131    NaN
halogenbond:LEU:131     -1
Name: 9, dtype: object

>  <hydroph_interaction:VAL:132>  (10) 
hydroph_interaction:VAL:132    NaN
hydroph_interaction:VAL:132     -1
Name: 9, dtype: object

>  <hbond:VAL:132>  (10) 
hbond:VAL:132    NaN
hbond:VAL:132     -1
Name: 9, dtype: object

>  <hbond:GLY:133>  (10) 
hbond:GLY:133    NaN
hbond:GLY:133     -1
Name: 9, dtype: object

>  <halogenbond:GLY:133>  (10) 
halogenbond:GLY:133    NaN
halogenbond:GLY:133     -1
Name: 9, dtype: object

>  <hydroph_interaction:PHE:134>  (10) 
hydroph_interaction:PHE:134    NaN
hydroph_interaction:PHE:134     -1
Name: 9, dtype: object

>  <hbond:PHE:134>  (10) 
hbond:PHE:134    NaN
hbond:PHE:134     -1
Name: 9, dtype: object

>  <pistack:PHE:134>  (10) 
pistack:PHE:134    NaN
pistack:PHE:134     -1
Name: 9, dtype: object

>  <pication:PHE:134>  (10) 
pication:PHE:134    NaN
pication:PHE:134     -1
Name: 9, dtype: object

>  <halogenbond:PHE:134>  (10) 
halogenbond:PHE:134    NaN
halogenbond:PHE:134     -1
Name: 9, dtype: object

>  <hydroph_interaction:ALA:135>  (10) 
hydroph_interaction:ALA:135    NaN
hydroph_interaction:ALA:135     -1
Name: 9, dtype: object

>  <hbond:ALA:135>  (10) 
hbond:ALA:135    NaN
hbond:ALA:135     -1
Name: 9, dtype: object

$$$$
PV_002944459424
     RDKit          3D

 25 26  0  0  0  0  0  0  0  0999 V2000
   12.3530   15.2100   21.8500 C   0  0  0  0  0  0  0  0  0  0  0  0
   11.6030   14.2370   22.7490 C   0  0  0  0  0  0  0  0  0  0  0  0
   12.0280   14.2190   24.2040 C   0  0  0  0  0  0  0  0  0  0  0  0
   10.4660   13.2620   22.3810 C   0  0  0  0  0  0  0  0  0  0  0  0
    9.6770   12.2600   23.1920 C   0  0  0  0  0  0  0  0  0  0  0  0
    9.8470   10.8740   23.0540 C   0  0  0  0  0  0  0  0  0  0  0  0
    9.1860    9.8810   23.7310 N   0  0  0  0  0  0  0  0  0  0  0  0
    8.2730   10.3100   24.6300 C   0  0  0  0  0  0  0  0  0  0  0  0
    8.0470   11.6540   24.8270 C   0  0  0  0  0  0  0  0  0  0  0  0
    8.7320   12.6130   24.1210 C   0  0  0  0  0  0  0  0  0  0  0  0
    8.2960   13.8500   24.5240 N   0  0  0  0  0  0  0  0  0  0  0  0
    7.4630   13.7360   25.6100 C   0  0  0  0  0  0  0  0  0  0  0  0
    7.0660   14.6230   26.3590 O   0  0  0  0  0  0  0  0  0  0  0  0
    7.1770   12.3710   25.6840 N   0  0  0  0  0  0  0  0  0  0  0  0
   12.5610   14.7590   20.8720 H   0  0  0  0  0  0  0  0  0  0  0  0
   11.7580   16.1140   21.6860 H   0  0  0  0  0  0  0  0  0  0  0  0
   13.3060   15.5150   22.2940 H   0  0  0  0  0  0  0  0  0  0  0  0
   12.8640   13.5260   24.3330 H   0  0  0  0  0  0  0  0  0  0  0  0
   12.3270   15.2330   24.4970 H   0  0  0  0  0  0  0  0  0  0  0  0
   11.1880   13.9080   24.8320 H   0  0  0  0  0  0  0  0  0  0  0  0
   10.1980   13.3340   21.3310 H   0  0  0  0  0  0  0  0  0  0  0  0
   10.5950   10.5780   22.3150 H   0  0  0  0  0  0  0  0  0  0  0  0
    7.7420    9.5520   25.1720 H   0  0  0  0  0  0  0  0  0  0  0  0
    8.2930   14.6910   23.9250 H   0  0  0  0  0  0  0  0  0  0  0  0
    6.3790   12.0060   26.1780 H   0  0  0  0  0  0  0  0  0  0  0  0
  1  2  1  0
  2  3  1  0
  2  4  2  3
  4  5  1  0
  5  6  2  0
  6  7  1  0
  7  8  2  0
  8  9  1  0
  9 10  2  0
 10 11  1  0
 11 12  1  0
 12 13  2  0
 12 14  1  0
 10  5  1  0
 14  9  1  0
  1 15  1  0
  1 16  1  0
  1 17  1  0
  3 18  1  0
  3 19  1  0
  3 20  1  0
  4 21  1  0
  6 22  1  0
  8 23  1  0
 11 24  1  0
 14 25  1  0
A    1
 C1 
A    2
 C2 
A    3
 C3 
A    4
 C4 
A    5
 C5 
A    6
 C6 
A    7
 N1 
A    8
 C7 
A    9
 C8 
A   10
 C9 
A   11
 N2 
A   12
 C10
A   13
 O1 
A   14
 N3 
A   15
 H1 
A   16
 H2 
A   17
 H3 
A   18
 H4 
A   19
 H5 
A   20
 H6 
A   21
 H7 
A   22
 H8 
A   23
 H9 
A   24
 H10
A   25
 H11
M  END
>  <ref_pdb>  (11) 
x0310_0A

>  <ref_mols>  (11) 
x0554_0A,x0416_0A,x0446_0A

>  <original SMILES>  (11) 
CC(C)=Cc1cncc2[nH]c(=O)[nH]c12

>  <rationale>  (11) 
info halogenbond:G127+D39+S125+E85+Q95+E106+T126+P107+H104+Y64+C65+S87+N129+F83+R93+L131+I82+G128+P91+N19+H21+V84+G133+Y90+Y89+H97+L81+F134+L98+R20+G103+S66+S67+S7+G108+R38+V124+M99+S36; hbond:S87+Y90+Q95+G108+G103+G128+G130+L131+N129+N19+H104+R68+V124+R93+P91+F83+S67+S7+S66+G112+G133+V132+R20+Y89+S77+A135+Y63+A92+A101+M99+F134+L100+I82+Y64+S36+L98+V84+L81+Y94+S80+R38+S37+V102+G8+I123+G111+I113+L114+C65+L22+S96; hydroph_interaction:T126+H21+P107+L22+E88+D109+N129+D39+N19+L40+I123+A135+Q95+I82+L100+L98+L131+F83+R93+V132+Y63+F134+H104+R20+A86+V74+P91+A101+F76+M99+L114+A92+Y94+R68+Y72+Y64+V18+V102+W28+G127+G128+L81; pication:H21+H104+R93+Y63+F134+Y90+R68+F83+R20; pistack:H21+Y89+Y90+H104+F134+Y63+F83+Y94; saltbridge:R93+H104+E106+D109+E85+E88+R68+R20; 

>  <intxn_cluster>  (11) 
-1

>  <intxn_cluster_rank>  (11) 
-1

>  <N_interactions>  (11) 
2

>  <∆∆G>  (11) 
-8.743459

>  <$/mg>  (11) 
0.0

>  <comRMSD>  (11) 
0.798782

>  <N_rotatable_bonds>  (11) 
3

>  <deep_P1_sidechain>  (11) 
nan

>  <farthest_distance_to_substrate>  (11) 
2.631314

>  <hbond:SER:7>  (11) 
hbond:SER:7    NaN
hbond:SER:7     -1
Name: 10, dtype: object

>  <halogenbond:SER:7>  (11) 
halogenbond:SER:7    NaN
halogenbond:SER:7     -1
Name: 10, dtype: object

>  <hbond:GLY:8>  (11) 
hbond:GLY:8    NaN
hbond:GLY:8     -1
Name: 10, dtype: object

>  <hydroph_interaction:VAL:18>  (11) 
hydroph_interaction:VAL:18    NaN
hydroph_interaction:VAL:18     -1
Name: 10, dtype: object

>  <hbond:ASN:19>  (11) 
hbond:ASN:19    NaN
hbond:ASN:19     -1
Name: 10, dtype: object

>  <hydroph_interaction:ASN:19>  (11) 
hydroph_interaction:ASN:19    NaN
hydroph_interaction:ASN:19     -1
Name: 10, dtype: object

>  <halogenbond:ASN:19>  (11) 
halogenbond:ASN:19    NaN
halogenbond:ASN:19     -1
Name: 10, dtype: object

>  <hbond:ARG:20>  (11) 
hbond:ARG:20    NaN
hbond:ARG:20     -1
Name: 10, dtype: object

>  <hydroph_interaction:ARG:20>  (11) 
hydroph_interaction:ARG:20    NaN
hydroph_interaction:ARG:20     -1
Name: 10, dtype: object

>  <saltbridge:ARG:20>  (11) 
saltbridge:ARG:20    NaN
saltbridge:ARG:20     -1
Name: 10, dtype: object

>  <halogenbond:ARG:20>  (11) 
halogenbond:ARG:20    NaN
halogenbond:ARG:20     -1
Name: 10, dtype: object

>  <pication:ARG:20>  (11) 
pication:ARG:20    NaN
pication:ARG:20     -1
Name: 10, dtype: object

>  <hbond:HIS:21>  (11) 
hbond:HIS:21    0.0
hbond:HIS:21      0
Name: 10, dtype: object

>  <hydroph_interaction:HIS:21>  (11) 
hydroph_interaction:HIS:21    NaN
hydroph_interaction:HIS:21     -1
Name: 10, dtype: object

>  <pistack:HIS:21>  (11) 
pistack:HIS:21    NaN
pistack:HIS:21     -1
Name: 10, dtype: object

>  <pication:HIS:21>  (11) 
pication:HIS:21    NaN
pication:HIS:21     -1
Name: 10, dtype: object

>  <saltbridge:HIS:21>  (11) 
saltbridge:HIS:21    0.0
saltbridge:HIS:21      0
Name: 10, dtype: object

>  <halogenbond:HIS:21>  (11) 
halogenbond:HIS:21    NaN
halogenbond:HIS:21     -1
Name: 10, dtype: object

>  <hydroph_interaction:LEU:22>  (11) 
hydroph_interaction:LEU:22    NaN
hydroph_interaction:LEU:22     -1
Name: 10, dtype: object

>  <hbond:LEU:22>  (11) 
hbond:LEU:22    NaN
hbond:LEU:22     -1
Name: 10, dtype: object

>  <hydroph_interaction:TRP:28>  (11) 
hydroph_interaction:TRP:28    NaN
hydroph_interaction:TRP:28     -1
Name: 10, dtype: object

>  <hbond:SER:36>  (11) 
hbond:SER:36    NaN
hbond:SER:36     -1
Name: 10, dtype: object

>  <halogenbond:SER:36>  (11) 
halogenbond:SER:36    NaN
halogenbond:SER:36     -1
Name: 10, dtype: object

>  <hbond:SER:37>  (11) 
hbond:SER:37    NaN
hbond:SER:37     -1
Name: 10, dtype: object

>  <hbond:ARG:38>  (11) 
hbond:ARG:38    NaN
hbond:ARG:38     -1
Name: 10, dtype: object

>  <halogenbond:ARG:38>  (11) 
halogenbond:ARG:38    NaN
halogenbond:ARG:38     -1
Name: 10, dtype: object

>  <saltbridge:ASP:39>  (11) 
saltbridge:ASP:39    0.0
saltbridge:ASP:39      0
Name: 10, dtype: object

>  <halogenbond:ASP:39>  (11) 
halogenbond:ASP:39    NaN
halogenbond:ASP:39     -1
Name: 10, dtype: object

>  <hbond:ASP:39>  (11) 
hbond:ASP:39    0.0
hbond:ASP:39      0
Name: 10, dtype: object

>  <hydroph_interaction:ASP:39>  (11) 
hydroph_interaction:ASP:39    NaN
hydroph_interaction:ASP:39     -1
Name: 10, dtype: object

>  <hydroph_interaction:LEU:40>  (11) 
hydroph_interaction:LEU:40    NaN
hydroph_interaction:LEU:40     -1
Name: 10, dtype: object

>  <hydroph_interaction:TYR:63>  (11) 
hydroph_interaction:TYR:63    NaN
hydroph_interaction:TYR:63     -1
Name: 10, dtype: object

>  <hbond:TYR:63>  (11) 
hbond:TYR:63    NaN
hbond:TYR:63     -1
Name: 10, dtype: object

>  <pistack:TYR:63>  (11) 
pistack:TYR:63    NaN
pistack:TYR:63     -1
Name: 10, dtype: object

>  <pication:TYR:63>  (11) 
pication:TYR:63    NaN
pication:TYR:63     -1
Name: 10, dtype: object

>  <halogenbond:TYR:64>  (11) 
halogenbond:TYR:64    NaN
halogenbond:TYR:64     -1
Name: 10, dtype: object

>  <hbond:TYR:64>  (11) 
hbond:TYR:64    NaN
hbond:TYR:64     -1
Name: 10, dtype: object

>  <hydroph_interaction:TYR:64>  (11) 
hydroph_interaction:TYR:64    NaN
hydroph_interaction:TYR:64     -1
Name: 10, dtype: object

>  <halogenbond:CYS:65>  (11) 
halogenbond:CYS:65    NaN
halogenbond:CYS:65     -1
Name: 10, dtype: object

>  <hbond:CYS:65>  (11) 
hbond:CYS:65    NaN
hbond:CYS:65     -1
Name: 10, dtype: object

>  <hbond:SER:66>  (11) 
hbond:SER:66    NaN
hbond:SER:66     -1
Name: 10, dtype: object

>  <halogenbond:SER:66>  (11) 
halogenbond:SER:66    NaN
halogenbond:SER:66     -1
Name: 10, dtype: object

>  <hbond:SER:67>  (11) 
hbond:SER:67    NaN
hbond:SER:67     -1
Name: 10, dtype: object

>  <halogenbond:SER:67>  (11) 
halogenbond:SER:67    NaN
halogenbond:SER:67     -1
Name: 10, dtype: object

>  <hbond:ARG:68>  (11) 
hbond:ARG:68    NaN
hbond:ARG:68     -1
Name: 10, dtype: object

>  <saltbridge:ARG:68>  (11) 
saltbridge:ARG:68    NaN
saltbridge:ARG:68     -1
Name: 10, dtype: object

>  <hydroph_interaction:ARG:68>  (11) 
hydroph_interaction:ARG:68    NaN
hydroph_interaction:ARG:68     -1
Name: 10, dtype: object

>  <pication:ARG:68>  (11) 
pication:ARG:68    NaN
pication:ARG:68     -1
Name: 10, dtype: object

>  <hydroph_interaction:TYR:72>  (11) 
hydroph_interaction:TYR:72    NaN
hydroph_interaction:TYR:72     -1
Name: 10, dtype: object

>  <hydroph_interaction:VAL:74>  (11) 
hydroph_interaction:VAL:74    NaN
hydroph_interaction:VAL:74     -1
Name: 10, dtype: object

>  <hydroph_interaction:PHE:76>  (11) 
hydroph_interaction:PHE:76    NaN
hydroph_interaction:PHE:76     -1
Name: 10, dtype: object

>  <hbond:SER:77>  (11) 
hbond:SER:77    NaN
hbond:SER:77     -1
Name: 10, dtype: object

>  <hbond:SER:80>  (11) 
hbond:SER:80    NaN
hbond:SER:80     -1
Name: 10, dtype: object

>  <hbond:LEU:81>  (11) 
hbond:LEU:81    NaN
hbond:LEU:81     -1
Name: 10, dtype: object

>  <halogenbond:LEU:81>  (11) 
halogenbond:LEU:81    NaN
halogenbond:LEU:81     -1
Name: 10, dtype: object

>  <hydroph_interaction:LEU:81>  (11) 
hydroph_interaction:LEU:81    NaN
hydroph_interaction:LEU:81     -1
Name: 10, dtype: object

>  <hydroph_interaction:ILE:82>  (11) 
hydroph_interaction:ILE:82    NaN
hydroph_interaction:ILE:82     -1
Name: 10, dtype: object

>  <halogenbond:ILE:82>  (11) 
halogenbond:ILE:82    NaN
halogenbond:ILE:82     -1
Name: 10, dtype: object

>  <hbond:ILE:82>  (11) 
hbond:ILE:82    NaN
hbond:ILE:82     -1
Name: 10, dtype: object

>  <hbond:PHE:83>  (11) 
hbond:PHE:83    NaN
hbond:PHE:83     -1
Name: 10, dtype: object

>  <hydroph_interaction:PHE:83>  (11) 
hydroph_interaction:PHE:83    NaN
hydroph_interaction:PHE:83     -1
Name: 10, dtype: object

>  <halogenbond:PHE:83>  (11) 
halogenbond:PHE:83    NaN
halogenbond:PHE:83     -1
Name: 10, dtype: object

>  <pistack:PHE:83>  (11) 
pistack:PHE:83    NaN
pistack:PHE:83     -1
Name: 10, dtype: object

>  <pication:PHE:83>  (11) 
pication:PHE:83    NaN
pication:PHE:83     -1
Name: 10, dtype: object

>  <hydroph_interaction:VAL:84>  (11) 
hydroph_interaction:VAL:84    0.0
hydroph_interaction:VAL:84      0
Name: 10, dtype: object

>  <halogenbond:VAL:84>  (11) 
halogenbond:VAL:84    NaN
halogenbond:VAL:84     -1
Name: 10, dtype: object

>  <hbond:VAL:84>  (11) 
hbond:VAL:84    NaN
hbond:VAL:84     -1
Name: 10, dtype: object

>  <hydroph_interaction:GLU:85>  (11) 
hydroph_interaction:GLU:85    0.0
hydroph_interaction:GLU:85      0
Name: 10, dtype: object

>  <hbond:GLU:85>  (11) 
hbond:GLU:85    0.0
hbond:GLU:85      0
Name: 10, dtype: object

>  <halogenbond:GLU:85>  (11) 
halogenbond:GLU:85    NaN
halogenbond:GLU:85     -1
Name: 10, dtype: object

>  <saltbridge:GLU:85>  (11) 
saltbridge:GLU:85    NaN
saltbridge:GLU:85     -1
Name: 10, dtype: object

>  <halogenbond:ALA:86>  (11) 
halogenbond:ALA:86    0.0
halogenbond:ALA:86      0
Name: 10, dtype: object

>  <hbond:ALA:86>  (11) 
hbond:ALA:86    0.0
hbond:ALA:86      0
Name: 10, dtype: object

>  <hydroph_interaction:ALA:86>  (11) 
hydroph_interaction:ALA:86    NaN
hydroph_interaction:ALA:86     -1
Name: 10, dtype: object

>  <hbond:SER:87>  (11) 
hbond:SER:87    1
hbond:SER:87    1
Name: 10, dtype: object

>  <halogenbond:SER:87>  (11) 
halogenbond:SER:87    NaN
halogenbond:SER:87     -1
Name: 10, dtype: object

>  <hbond:GLU:88>  (11) 
hbond:GLU:88    0.0
hbond:GLU:88      0
Name: 10, dtype: object

>  <hydroph_interaction:GLU:88>  (11) 
hydroph_interaction:GLU:88    NaN
hydroph_interaction:GLU:88     -1
Name: 10, dtype: object

>  <halogenbond:GLU:88>  (11) 
halogenbond:GLU:88    0.0
halogenbond:GLU:88      0
Name: 10, dtype: object

>  <saltbridge:GLU:88>  (11) 
saltbridge:GLU:88    NaN
saltbridge:GLU:88     -1
Name: 10, dtype: object

>  <hydroph_interaction:TYR:89>  (11) 
hydroph_interaction:TYR:89    0.0
hydroph_interaction:TYR:89      0
Name: 10, dtype: object

>  <pistack:TYR:89>  (11) 
pistack:TYR:89    NaN
pistack:TYR:89     -1
Name: 10, dtype: object

>  <hbond:TYR:89>  (11) 
hbond:TYR:89    NaN
hbond:TYR:89     -1
Name: 10, dtype: object

>  <halogenbond:TYR:89>  (11) 
halogenbond:TYR:89    NaN
halogenbond:TYR:89     -1
Name: 10, dtype: object

>  <hydroph_interaction:TYR:90>  (11) 
hydroph_interaction:TYR:90    0.0
hydroph_interaction:TYR:90      0
Name: 10, dtype: object

>  <hbond:TYR:90>  (11) 
hbond:TYR:90    NaN
hbond:TYR:90     -1
Name: 10, dtype: object

>  <pistack:TYR:90>  (11) 
pistack:TYR:90    NaN
pistack:TYR:90     -1
Name: 10, dtype: object

>  <halogenbond:TYR:90>  (11) 
halogenbond:TYR:90    NaN
halogenbond:TYR:90     -1
Name: 10, dtype: object

>  <pication:TYR:90>  (11) 
pication:TYR:90    NaN
pication:TYR:90     -1
Name: 10, dtype: object

>  <hbond:PRO:91>  (11) 
hbond:PRO:91    NaN
hbond:PRO:91     -1
Name: 10, dtype: object

>  <hydroph_interaction:PRO:91>  (11) 
hydroph_interaction:PRO:91    NaN
hydroph_interaction:PRO:91     -1
Name: 10, dtype: object

>  <halogenbond:PRO:91>  (11) 
halogenbond:PRO:91    NaN
halogenbond:PRO:91     -1
Name: 10, dtype: object

>  <hbond:ALA:92>  (11) 
hbond:ALA:92    NaN
hbond:ALA:92     -1
Name: 10, dtype: object

>  <hydroph_interaction:ALA:92>  (11) 
hydroph_interaction:ALA:92    NaN
hydroph_interaction:ALA:92     -1
Name: 10, dtype: object

>  <saltbridge:ARG:93>  (11) 
saltbridge:ARG:93    NaN
saltbridge:ARG:93     -1
Name: 10, dtype: object

>  <hbond:ARG:93>  (11) 
hbond:ARG:93    NaN
hbond:ARG:93     -1
Name: 10, dtype: object

>  <hydroph_interaction:ARG:93>  (11) 
hydroph_interaction:ARG:93    NaN
hydroph_interaction:ARG:93     -1
Name: 10, dtype: object

>  <halogenbond:ARG:93>  (11) 
halogenbond:ARG:93    NaN
halogenbond:ARG:93     -1
Name: 10, dtype: object

>  <pication:ARG:93>  (11) 
pication:ARG:93    NaN
pication:ARG:93     -1
Name: 10, dtype: object

>  <hydroph_interaction:TYR:94>  (11) 
hydroph_interaction:TYR:94    NaN
hydroph_interaction:TYR:94     -1
Name: 10, dtype: object

>  <pistack:TYR:94>  (11) 
pistack:TYR:94    NaN
pistack:TYR:94     -1
Name: 10, dtype: object

>  <hbond:TYR:94>  (11) 
hbond:TYR:94    NaN
hbond:TYR:94     -1
Name: 10, dtype: object

>  <hbond:GLN:95>  (11) 
hbond:GLN:95    NaN
hbond:GLN:95     -1
Name: 10, dtype: object

>  <hydroph_interaction:GLN:95>  (11) 
hydroph_interaction:GLN:95    NaN
hydroph_interaction:GLN:95     -1
Name: 10, dtype: object

>  <halogenbond:GLN:95>  (11) 
halogenbond:GLN:95    NaN
halogenbond:GLN:95     -1
Name: 10, dtype: object

>  <hbond:SER:96>  (11) 
hbond:SER:96    NaN
hbond:SER:96     -1
Name: 10, dtype: object

>  <halogenbond:HIS:97>  (11) 
halogenbond:HIS:97    NaN
halogenbond:HIS:97     -1
Name: 10, dtype: object

>  <hydroph_interaction:LEU:98>  (11) 
hydroph_interaction:LEU:98    NaN
hydroph_interaction:LEU:98     -1
Name: 10, dtype: object

>  <hbond:LEU:98>  (11) 
hbond:LEU:98    NaN
hbond:LEU:98     -1
Name: 10, dtype: object

>  <halogenbond:LEU:98>  (11) 
halogenbond:LEU:98    NaN
halogenbond:LEU:98     -1
Name: 10, dtype: object

>  <hbond:MET:99>  (11) 
hbond:MET:99    NaN
hbond:MET:99     -1
Name: 10, dtype: object

>  <hydroph_interaction:MET:99>  (11) 
hydroph_interaction:MET:99    NaN
hydroph_interaction:MET:99     -1
Name: 10, dtype: object

>  <halogenbond:MET:99>  (11) 
halogenbond:MET:99    NaN
halogenbond:MET:99     -1
Name: 10, dtype: object

>  <hydroph_interaction:LEU:100>  (11) 
hydroph_interaction:LEU:100    NaN
hydroph_interaction:LEU:100     -1
Name: 10, dtype: object

>  <hbond:LEU:100>  (11) 
hbond:LEU:100    NaN
hbond:LEU:100     -1
Name: 10, dtype: object

>  <hbond:ALA:101>  (11) 
hbond:ALA:101    NaN
hbond:ALA:101     -1
Name: 10, dtype: object

>  <hydroph_interaction:ALA:101>  (11) 
hydroph_interaction:ALA:101    NaN
hydroph_interaction:ALA:101     -1
Name: 10, dtype: object

>  <hydroph_interaction:VAL:102>  (11) 
hydroph_interaction:VAL:102    NaN
hydroph_interaction:VAL:102     -1
Name: 10, dtype: object

>  <hbond:VAL:102>  (11) 
hbond:VAL:102    NaN
hbond:VAL:102     -1
Name: 10, dtype: object

>  <hbond:GLY:103>  (11) 
hbond:GLY:103    NaN
hbond:GLY:103     -1
Name: 10, dtype: object

>  <halogenbond:GLY:103>  (11) 
halogenbond:GLY:103    NaN
halogenbond:GLY:103     -1
Name: 10, dtype: object

>  <hbond:HIS:104>  (11) 
hbond:HIS:104    NaN
hbond:HIS:104     -1
Name: 10, dtype: object

>  <saltbridge:HIS:104>  (11) 
saltbridge:HIS:104    NaN
saltbridge:HIS:104     -1
Name: 10, dtype: object

>  <pication:HIS:104>  (11) 
pication:HIS:104    NaN
pication:HIS:104     -1
Name: 10, dtype: object

>  <halogenbond:HIS:104>  (11) 
halogenbond:HIS:104    NaN
halogenbond:HIS:104     -1
Name: 10, dtype: object

>  <hydroph_interaction:HIS:104>  (11) 
hydroph_interaction:HIS:104    NaN
hydroph_interaction:HIS:104     -1
Name: 10, dtype: object

>  <pistack:HIS:104>  (11) 
pistack:HIS:104    NaN
pistack:HIS:104     -1
Name: 10, dtype: object

>  <halogenbond:SER:105>  (11) 
halogenbond:SER:105    0.0
halogenbond:SER:105      0
Name: 10, dtype: object

>  <hbond:SER:105>  (11) 
hbond:SER:105    0.0
hbond:SER:105      0
Name: 10, dtype: object

>  <hbond:GLU:106>  (11) 
hbond:GLU:106    0.0
hbond:GLU:106      0
Name: 10, dtype: object

>  <hydroph_interaction:GLU:106>  (11) 
hydroph_interaction:GLU:106    0.0
hydroph_interaction:GLU:106      0
Name: 10, dtype: object

>  <saltbridge:GLU:106>  (11) 
saltbridge:GLU:106    NaN
saltbridge:GLU:106     -1
Name: 10, dtype: object

>  <halogenbond:GLU:106>  (11) 
halogenbond:GLU:106    NaN
halogenbond:GLU:106     -1
Name: 10, dtype: object

>  <hydroph_interaction:PRO:107>  (11) 
hydroph_interaction:PRO:107    1
hydroph_interaction:PRO:107    1
Name: 10, dtype: object

>  <hbond:PRO:107>  (11) 
hbond:PRO:107    0.0
hbond:PRO:107      0
Name: 10, dtype: object

>  <halogenbond:PRO:107>  (11) 
halogenbond:PRO:107    NaN
halogenbond:PRO:107     -1
Name: 10, dtype: object

>  <hbond:GLY:108>  (11) 
hbond:GLY:108    NaN
hbond:GLY:108     -1
Name: 10, dtype: object

>  <halogenbond:GLY:108>  (11) 
halogenbond:GLY:108    NaN
halogenbond:GLY:108     -1
Name: 10, dtype: object

>  <hbond:ASP:109>  (11) 
hbond:ASP:109    0.0
hbond:ASP:109      0
Name: 10, dtype: object

>  <hydroph_interaction:ASP:109>  (11) 
hydroph_interaction:ASP:109    NaN
hydroph_interaction:ASP:109     -1
Name: 10, dtype: object

>  <saltbridge:ASP:109>  (11) 
saltbridge:ASP:109    NaN
saltbridge:ASP:109     -1
Name: 10, dtype: object

>  <halogenbond:CYS:110>  (11) 
halogenbond:CYS:110    0.0
halogenbond:CYS:110      0
Name: 10, dtype: object

>  <hbond:CYS:110>  (11) 
hbond:CYS:110    0.0
hbond:CYS:110      0
Name: 10, dtype: object

>  <hbond:GLY:111>  (11) 
hbond:GLY:111    NaN
hbond:GLY:111     -1
Name: 10, dtype: object

>  <hbond:GLY:112>  (11) 
hbond:GLY:112    NaN
hbond:GLY:112     -1
Name: 10, dtype: object

>  <hbond:ILE:113>  (11) 
hbond:ILE:113    NaN
hbond:ILE:113     -1
Name: 10, dtype: object

>  <hydroph_interaction:LEU:114>  (11) 
hydroph_interaction:LEU:114    NaN
hydroph_interaction:LEU:114     -1
Name: 10, dtype: object

>  <hbond:LEU:114>  (11) 
hbond:LEU:114    NaN
hbond:LEU:114     -1
Name: 10, dtype: object

>  <hydroph_interaction:ILE:123>  (11) 
hydroph_interaction:ILE:123    NaN
hydroph_interaction:ILE:123     -1
Name: 10, dtype: object

>  <hbond:ILE:123>  (11) 
hbond:ILE:123    NaN
hbond:ILE:123     -1
Name: 10, dtype: object

>  <hydroph_interaction:VAL:124>  (11) 
hydroph_interaction:VAL:124    0.0
hydroph_interaction:VAL:124      0
Name: 10, dtype: object

>  <hbond:VAL:124>  (11) 
hbond:VAL:124    NaN
hbond:VAL:124     -1
Name: 10, dtype: object

>  <halogenbond:VAL:124>  (11) 
halogenbond:VAL:124    NaN
halogenbond:VAL:124     -1
Name: 10, dtype: object

>  <hbond:SER:125>  (11) 
hbond:SER:125    0
hbond:SER:125    0
Name: 10, dtype: object

>  <halogenbond:SER:125>  (11) 
halogenbond:SER:125    NaN
halogenbond:SER:125     -1
Name: 10, dtype: object

>  <hydroph_interaction:THR:126>  (11) 
hydroph_interaction:THR:126    NaN
hydroph_interaction:THR:126     -1
Name: 10, dtype: object

>  <hbond:THR:126>  (11) 
hbond:THR:126    0.0
hbond:THR:126      0
Name: 10, dtype: object

>  <halogenbond:THR:126>  (11) 
halogenbond:THR:126    NaN
halogenbond:THR:126     -1
Name: 10, dtype: object

>  <hbond:GLY:127>  (11) 
hbond:GLY:127    0
hbond:GLY:127    0
Name: 10, dtype: object

>  <halogenbond:GLY:127>  (11) 
halogenbond:GLY:127    NaN
halogenbond:GLY:127     -1
Name: 10, dtype: object

>  <hydroph_interaction:GLY:127>  (11) 
hydroph_interaction:GLY:127    NaN
hydroph_interaction:GLY:127     -1
Name: 10, dtype: object

>  <hbond:GLY:128>  (11) 
hbond:GLY:128    NaN
hbond:GLY:128     -1
Name: 10, dtype: object

>  <halogenbond:GLY:128>  (11) 
halogenbond:GLY:128    NaN
halogenbond:GLY:128     -1
Name: 10, dtype: object

>  <hydroph_interaction:GLY:128>  (11) 
hydroph_interaction:GLY:128    NaN
hydroph_interaction:GLY:128     -1
Name: 10, dtype: object

>  <hbond:ASN:129>  (11) 
hbond:ASN:129    NaN
hbond:ASN:129     -1
Name: 10, dtype: object

>  <hydroph_interaction:ASN:129>  (11) 
hydroph_interaction:ASN:129    NaN
hydroph_interaction:ASN:129     -1
Name: 10, dtype: object

>  <halogenbond:ASN:129>  (11) 
halogenbond:ASN:129    NaN
halogenbond:ASN:129     -1
Name: 10, dtype: object

>  <hbond:GLY:130>  (11) 
hbond:GLY:130    NaN
hbond:GLY:130     -1
Name: 10, dtype: object

>  <hbond:LEU:131>  (11) 
hbond:LEU:131    NaN
hbond:LEU:131     -1
Name: 10, dtype: object

>  <hydroph_interaction:LEU:131>  (11) 
hydroph_interaction:LEU:131    NaN
hydroph_interaction:LEU:131     -1
Name: 10, dtype: object

>  <halogenbond:LEU:131>  (11) 
halogenbond:LEU:131    NaN
halogenbond:LEU:131     -1
Name: 10, dtype: object

>  <hydroph_interaction:VAL:132>  (11) 
hydroph_interaction:VAL:132    NaN
hydroph_interaction:VAL:132     -1
Name: 10, dtype: object

>  <hbond:VAL:132>  (11) 
hbond:VAL:132    NaN
hbond:VAL:132     -1
Name: 10, dtype: object

>  <hbond:GLY:133>  (11) 
hbond:GLY:133    NaN
hbond:GLY:133     -1
Name: 10, dtype: object

>  <halogenbond:GLY:133>  (11) 
halogenbond:GLY:133    NaN
halogenbond:GLY:133     -1
Name: 10, dtype: object

>  <hydroph_interaction:PHE:134>  (11) 
hydroph_interaction:PHE:134    NaN
hydroph_interaction:PHE:134     -1
Name: 10, dtype: object

>  <hbond:PHE:134>  (11) 
hbond:PHE:134    NaN
hbond:PHE:134     -1
Name: 10, dtype: object

>  <pistack:PHE:134>  (11) 
pistack:PHE:134    NaN
pistack:PHE:134     -1
Name: 10, dtype: object

>  <pication:PHE:134>  (11) 
pication:PHE:134    NaN
pication:PHE:134     -1
Name: 10, dtype: object

>  <halogenbond:PHE:134>  (11) 
halogenbond:PHE:134    NaN
halogenbond:PHE:134     -1
Name: 10, dtype: object

>  <hydroph_interaction:ALA:135>  (11) 
hydroph_interaction:ALA:135    NaN
hydroph_interaction:ALA:135     -1
Name: 10, dtype: object

>  <hbond:ALA:135>  (11) 
hbond:ALA:135    NaN
hbond:ALA:135     -1
Name: 10, dtype: object

$$$$
PV_005945810086
     RDKit          3D

 25 25  0  0  0  0  0  0  0  0999 V2000
   12.8750   15.2200   22.1430 C   0  0  0  0  0  0  0  0  0  0  0  0
   11.6920   15.6490   22.7920 O   0  0  0  0  0  0  0  0  0  0  0  0
   11.2300   14.5790   23.5810 N   0  0  0  0  0  0  0  0  0  0  0  0
   10.4030   13.8170   22.7910 C   0  0  0  0  0  0  0  0  0  0  0  0
    9.7310   12.5680   23.2780 C   0  0  0  0  0  0  0  0  0  0  0  0
    8.5950   12.5340   24.2720 C   0  0  0  0  0  0  0  0  0  0  0  0
    8.0730   11.1840   24.6320 C   0  0  0  0  0  0  0  0  0  0  0  0
    6.9200   11.1520   25.6380 C   0  0  0  0  0  0  0  0  0  0  0  0
    8.6360   10.0470   24.0540 C   0  0  0  0  0  0  0  0  0  0  0  0
    9.6730   10.1460   23.1370 C   0  0  0  0  0  0  0  0  0  0  0  0
   10.2200    9.0140   22.5490 C   0  0  0  0  0  0  0  0  0  0  0  0
   10.1980   11.3790   22.7720 C   0  0  0  0  0  0  0  0  0  0  0  0
   12.7420   14.2170   21.7280 H   0  0  0  0  0  0  0  0  0  0  0  0
   13.1020   15.9100   21.3270 H   0  0  0  0  0  0  0  0  0  0  0  0
   13.7060   15.2250   22.8500 H   0  0  0  0  0  0  0  0  0  0  0  0
   10.2810   14.1840   21.7650 H   0  0  0  0  0  0  0  0  0  0  0  0
    8.1760   13.4400   24.7080 H   0  0  0  0  0  0  0  0  0  0  0  0
    7.1610   11.4260   26.6570 H   0  0  0  0  0  0  0  0  0  0  0  0
    6.4010   10.1980   25.7100 H   0  0  0  0  0  0  0  0  0  0  0  0
    6.1800   11.8780   25.3120 H   0  0  0  0  0  0  0  0  0  0  0  0
    8.2480    9.0660   24.3240 H   0  0  0  0  0  0  0  0  0  0  0  0
    9.4090    8.3720   22.2180 H   0  0  0  0  0  0  0  0  0  0  0  0
   10.8610    9.2180   21.6940 H   0  0  0  0  0  0  0  0  0  0  0  0
   10.8320    8.4610   23.2660 H   0  0  0  0  0  0  0  0  0  0  0  0
   11.0070   11.4030   22.0610 H   0  0  0  0  0  0  0  0  0  0  0  0
  1  2  1  0
  2  3  1  0
  3  4  2  3
  4  5  1  0
  5  6  2  0
  6  7  1  0
  7  8  1  0
  7  9  2  0
  9 10  1  0
 10 11  1  0
 10 12  2  0
 12  5  1  0
  1 13  1  0
  1 14  1  0
  1 15  1  0
  4 16  1  0
  6 17  1  0
  8 18  1  0
  8 19  1  0
  8 20  1  0
  9 21  1  0
 11 22  1  0
 11 23  1  0
 11 24  1  0
 12 25  1  0
A    1
 C1 
A    2
 O1 
A    3
 N1 
A    4
 C2 
A    5
 C3 
A    6
 C4 
A    7
 C5 
A    8
 C6 
A    9
 C7 
A   10
 C8 
A   11
 C9 
A   12
 C10
A   13
 H1 
A   14
 H2 
A   15
 H3 
A   16
 H4 
A   17
 H5 
A   18
 H6 
A   19
 H7 
A   20
 H8 
A   21
 H9 
A   22
 H10
A   23
 H11
A   24
 H12
A   25
 H13
M  END
>  <ref_pdb>  (12) 
x0310_0A

>  <ref_mols>  (12) 
x0451_0A,x0739_0A

>  <original SMILES>  (12) 
CON=Cc1cc(C)cc(C)c1

>  <rationale>  (12) 
info halogenbond:C110+G127+D39+S125+E85+Q95+E106+E88+T126+P107+H104+Y64+C65+S87+N129+F83+R93+L131+I82+G128+P91+N19+H21+V84+G133+Y90+Y89+H97+L81+F134+L98+R20+G103+S66+S67+S7+G108+R38+V124+M99+S36; hbond:S87+Q95+A86+E85+G108+G103+G128+G130+L131+N129+N19+H104+R68+V124+R93+P91+F83+S67+S7+S66+G112+V132+R20+Y89+S77+A135+Y63+A92+A101+M99+F134+L100+I82+Y64+S36+L98+V84+L81+Y94+S80+R38+S37+V102+G8+I123+G111+I113+L114+C65+L22+S96; hydroph_interaction:V124+H21+P107+L22+E106+N129+D39+N19+L40+I123+A135+Q95+I82+L100+L98+L131+F83+R93+V132+Y63+F134+H104+R20+A86+V74+P91+A101+F76+M99+L114+A92+Y94+R68+Y72+Y64+V18+V102+W28+G127+G128+L81; pication:H104+R93+Y63+F134+Y90+R68+F83+R20; pistack:H21+Y89+Y90+H104+F134+Y63+F83+Y94; saltbridge:D39+R93+H104+E106+D109+E85+E88+R68+R20; 

>  <intxn_cluster>  (12) 
-1

>  <intxn_cluster_rank>  (12) 
-1

>  <N_interactions>  (12) 
3

>  <∆∆G>  (12) 
-11.884775

>  <$/mg>  (12) 
163.0

>  <comRMSD>  (12) 
0.642761

>  <N_rotatable_bonds>  (12) 
5

>  <deep_P1_sidechain>  (12) 
nan

>  <farthest_distance_to_substrate>  (12) 
2.397902

>  <hbond:SER:7>  (12) 
hbond:SER:7    NaN
hbond:SER:7     -1
Name: 11, dtype: object

>  <halogenbond:SER:7>  (12) 
halogenbond:SER:7    NaN
halogenbond:SER:7     -1
Name: 11, dtype: object

>  <hbond:GLY:8>  (12) 
hbond:GLY:8    NaN
hbond:GLY:8     -1
Name: 11, dtype: object

>  <hydroph_interaction:VAL:18>  (12) 
hydroph_interaction:VAL:18    NaN
hydroph_interaction:VAL:18     -1
Name: 11, dtype: object

>  <hbond:ASN:19>  (12) 
hbond:ASN:19    NaN
hbond:ASN:19     -1
Name: 11, dtype: object

>  <hydroph_interaction:ASN:19>  (12) 
hydroph_interaction:ASN:19    NaN
hydroph_interaction:ASN:19     -1
Name: 11, dtype: object

>  <halogenbond:ASN:19>  (12) 
halogenbond:ASN:19    NaN
halogenbond:ASN:19     -1
Name: 11, dtype: object

>  <hbond:ARG:20>  (12) 
hbond:ARG:20    NaN
hbond:ARG:20     -1
Name: 11, dtype: object

>  <hydroph_interaction:ARG:20>  (12) 
hydroph_interaction:ARG:20    NaN
hydroph_interaction:ARG:20     -1
Name: 11, dtype: object

>  <saltbridge:ARG:20>  (12) 
saltbridge:ARG:20    NaN
saltbridge:ARG:20     -1
Name: 11, dtype: object

>  <halogenbond:ARG:20>  (12) 
halogenbond:ARG:20    NaN
halogenbond:ARG:20     -1
Name: 11, dtype: object

>  <pication:ARG:20>  (12) 
pication:ARG:20    NaN
pication:ARG:20     -1
Name: 11, dtype: object

>  <hbond:HIS:21>  (12) 
hbond:HIS:21    0.0
hbond:HIS:21      0
Name: 11, dtype: object

>  <hydroph_interaction:HIS:21>  (12) 
hydroph_interaction:HIS:21    NaN
hydroph_interaction:HIS:21     -1
Name: 11, dtype: object

>  <pistack:HIS:21>  (12) 
pistack:HIS:21    NaN
pistack:HIS:21     -1
Name: 11, dtype: object

>  <pication:HIS:21>  (12) 
pication:HIS:21    0.0
pication:HIS:21      0
Name: 11, dtype: object

>  <saltbridge:HIS:21>  (12) 
saltbridge:HIS:21    0.0
saltbridge:HIS:21      0
Name: 11, dtype: object

>  <halogenbond:HIS:21>  (12) 
halogenbond:HIS:21    NaN
halogenbond:HIS:21     -1
Name: 11, dtype: object

>  <hydroph_interaction:LEU:22>  (12) 
hydroph_interaction:LEU:22    NaN
hydroph_interaction:LEU:22     -1
Name: 11, dtype: object

>  <hbond:LEU:22>  (12) 
hbond:LEU:22    NaN
hbond:LEU:22     -1
Name: 11, dtype: object

>  <hydroph_interaction:TRP:28>  (12) 
hydroph_interaction:TRP:28    NaN
hydroph_interaction:TRP:28     -1
Name: 11, dtype: object

>  <hbond:SER:36>  (12) 
hbond:SER:36    NaN
hbond:SER:36     -1
Name: 11, dtype: object

>  <halogenbond:SER:36>  (12) 
halogenbond:SER:36    NaN
halogenbond:SER:36     -1
Name: 11, dtype: object

>  <hbond:SER:37>  (12) 
hbond:SER:37    NaN
hbond:SER:37     -1
Name: 11, dtype: object

>  <hbond:ARG:38>  (12) 
hbond:ARG:38    NaN
hbond:ARG:38     -1
Name: 11, dtype: object

>  <halogenbond:ARG:38>  (12) 
halogenbond:ARG:38    NaN
halogenbond:ARG:38     -1
Name: 11, dtype: object

>  <saltbridge:ASP:39>  (12) 
saltbridge:ASP:39    NaN
saltbridge:ASP:39     -1
Name: 11, dtype: object

>  <halogenbond:ASP:39>  (12) 
halogenbond:ASP:39    NaN
halogenbond:ASP:39     -1
Name: 11, dtype: object

>  <hbond:ASP:39>  (12) 
hbond:ASP:39    0.0
hbond:ASP:39      0
Name: 11, dtype: object

>  <hydroph_interaction:ASP:39>  (12) 
hydroph_interaction:ASP:39    NaN
hydroph_interaction:ASP:39     -1
Name: 11, dtype: object

>  <hydroph_interaction:LEU:40>  (12) 
hydroph_interaction:LEU:40    NaN
hydroph_interaction:LEU:40     -1
Name: 11, dtype: object

>  <hydroph_interaction:TYR:63>  (12) 
hydroph_interaction:TYR:63    NaN
hydroph_interaction:TYR:63     -1
Name: 11, dtype: object

>  <hbond:TYR:63>  (12) 
hbond:TYR:63    NaN
hbond:TYR:63     -1
Name: 11, dtype: object

>  <pistack:TYR:63>  (12) 
pistack:TYR:63    NaN
pistack:TYR:63     -1
Name: 11, dtype: object

>  <pication:TYR:63>  (12) 
pication:TYR:63    NaN
pication:TYR:63     -1
Name: 11, dtype: object

>  <halogenbond:TYR:64>  (12) 
halogenbond:TYR:64    NaN
halogenbond:TYR:64     -1
Name: 11, dtype: object

>  <hbond:TYR:64>  (12) 
hbond:TYR:64    NaN
hbond:TYR:64     -1
Name: 11, dtype: object

>  <hydroph_interaction:TYR:64>  (12) 
hydroph_interaction:TYR:64    NaN
hydroph_interaction:TYR:64     -1
Name: 11, dtype: object

>  <halogenbond:CYS:65>  (12) 
halogenbond:CYS:65    NaN
halogenbond:CYS:65     -1
Name: 11, dtype: object

>  <hbond:CYS:65>  (12) 
hbond:CYS:65    NaN
hbond:CYS:65     -1
Name: 11, dtype: object

>  <hbond:SER:66>  (12) 
hbond:SER:66    NaN
hbond:SER:66     -1
Name: 11, dtype: object

>  <halogenbond:SER:66>  (12) 
halogenbond:SER:66    NaN
halogenbond:SER:66     -1
Name: 11, dtype: object

>  <hbond:SER:67>  (12) 
hbond:SER:67    NaN
hbond:SER:67     -1
Name: 11, dtype: object

>  <halogenbond:SER:67>  (12) 
halogenbond:SER:67    NaN
halogenbond:SER:67     -1
Name: 11, dtype: object

>  <hbond:ARG:68>  (12) 
hbond:ARG:68    NaN
hbond:ARG:68     -1
Name: 11, dtype: object

>  <saltbridge:ARG:68>  (12) 
saltbridge:ARG:68    NaN
saltbridge:ARG:68     -1
Name: 11, dtype: object

>  <hydroph_interaction:ARG:68>  (12) 
hydroph_interaction:ARG:68    NaN
hydroph_interaction:ARG:68     -1
Name: 11, dtype: object

>  <pication:ARG:68>  (12) 
pication:ARG:68    NaN
pication:ARG:68     -1
Name: 11, dtype: object

>  <hydroph_interaction:TYR:72>  (12) 
hydroph_interaction:TYR:72    NaN
hydroph_interaction:TYR:72     -1
Name: 11, dtype: object

>  <hydroph_interaction:VAL:74>  (12) 
hydroph_interaction:VAL:74    NaN
hydroph_interaction:VAL:74     -1
Name: 11, dtype: object

>  <hydroph_interaction:PHE:76>  (12) 
hydroph_interaction:PHE:76    NaN
hydroph_interaction:PHE:76     -1
Name: 11, dtype: object

>  <hbond:SER:77>  (12) 
hbond:SER:77    NaN
hbond:SER:77     -1
Name: 11, dtype: object

>  <hbond:SER:80>  (12) 
hbond:SER:80    NaN
hbond:SER:80     -1
Name: 11, dtype: object

>  <hbond:LEU:81>  (12) 
hbond:LEU:81    NaN
hbond:LEU:81     -1
Name: 11, dtype: object

>  <halogenbond:LEU:81>  (12) 
halogenbond:LEU:81    NaN
halogenbond:LEU:81     -1
Name: 11, dtype: object

>  <hydroph_interaction:LEU:81>  (12) 
hydroph_interaction:LEU:81    NaN
hydroph_interaction:LEU:81     -1
Name: 11, dtype: object

>  <hydroph_interaction:ILE:82>  (12) 
hydroph_interaction:ILE:82    NaN
hydroph_interaction:ILE:82     -1
Name: 11, dtype: object

>  <halogenbond:ILE:82>  (12) 
halogenbond:ILE:82    NaN
halogenbond:ILE:82     -1
Name: 11, dtype: object

>  <hbond:ILE:82>  (12) 
hbond:ILE:82    NaN
hbond:ILE:82     -1
Name: 11, dtype: object

>  <hbond:PHE:83>  (12) 
hbond:PHE:83    NaN
hbond:PHE:83     -1
Name: 11, dtype: object

>  <hydroph_interaction:PHE:83>  (12) 
hydroph_interaction:PHE:83    NaN
hydroph_interaction:PHE:83     -1
Name: 11, dtype: object

>  <halogenbond:PHE:83>  (12) 
halogenbond:PHE:83    NaN
halogenbond:PHE:83     -1
Name: 11, dtype: object

>  <pistack:PHE:83>  (12) 
pistack:PHE:83    NaN
pistack:PHE:83     -1
Name: 11, dtype: object

>  <pication:PHE:83>  (12) 
pication:PHE:83    NaN
pication:PHE:83     -1
Name: 11, dtype: object

>  <hydroph_interaction:VAL:84>  (12) 
hydroph_interaction:VAL:84    0.0
hydroph_interaction:VAL:84      0
Name: 11, dtype: object

>  <halogenbond:VAL:84>  (12) 
halogenbond:VAL:84    NaN
halogenbond:VAL:84     -1
Name: 11, dtype: object

>  <hbond:VAL:84>  (12) 
hbond:VAL:84    NaN
hbond:VAL:84     -1
Name: 11, dtype: object

>  <hydroph_interaction:GLU:85>  (12) 
hydroph_interaction:GLU:85    0.0
hydroph_interaction:GLU:85      0
Name: 11, dtype: object

>  <hbond:GLU:85>  (12) 
hbond:GLU:85    NaN
hbond:GLU:85     -1
Name: 11, dtype: object

>  <halogenbond:GLU:85>  (12) 
halogenbond:GLU:85    NaN
halogenbond:GLU:85     -1
Name: 11, dtype: object

>  <saltbridge:GLU:85>  (12) 
saltbridge:GLU:85    NaN
saltbridge:GLU:85     -1
Name: 11, dtype: object

>  <halogenbond:ALA:86>  (12) 
halogenbond:ALA:86    0.0
halogenbond:ALA:86      0
Name: 11, dtype: object

>  <hbond:ALA:86>  (12) 
hbond:ALA:86    NaN
hbond:ALA:86     -1
Name: 11, dtype: object

>  <hydroph_interaction:ALA:86>  (12) 
hydroph_interaction:ALA:86    NaN
hydroph_interaction:ALA:86     -1
Name: 11, dtype: object

>  <hbond:SER:87>  (12) 
hbond:SER:87    1
hbond:SER:87    1
Name: 11, dtype: object

>  <halogenbond:SER:87>  (12) 
halogenbond:SER:87    NaN
halogenbond:SER:87     -1
Name: 11, dtype: object

>  <hbond:GLU:88>  (12) 
hbond:GLU:88    0.0
hbond:GLU:88      0
Name: 11, dtype: object

>  <hydroph_interaction:GLU:88>  (12) 
hydroph_interaction:GLU:88    0.0
hydroph_interaction:GLU:88      0
Name: 11, dtype: object

>  <halogenbond:GLU:88>  (12) 
halogenbond:GLU:88    NaN
halogenbond:GLU:88     -1
Name: 11, dtype: object

>  <saltbridge:GLU:88>  (12) 
saltbridge:GLU:88    NaN
saltbridge:GLU:88     -1
Name: 11, dtype: object

>  <hydroph_interaction:TYR:89>  (12) 
hydroph_interaction:TYR:89    0.0
hydroph_interaction:TYR:89      0
Name: 11, dtype: object

>  <pistack:TYR:89>  (12) 
pistack:TYR:89    NaN
pistack:TYR:89     -1
Name: 11, dtype: object

>  <hbond:TYR:89>  (12) 
hbond:TYR:89    NaN
hbond:TYR:89     -1
Name: 11, dtype: object

>  <halogenbond:TYR:89>  (12) 
halogenbond:TYR:89    NaN
halogenbond:TYR:89     -1
Name: 11, dtype: object

>  <hydroph_interaction:TYR:90>  (12) 
hydroph_interaction:TYR:90    0.0
hydroph_interaction:TYR:90      0
Name: 11, dtype: object

>  <hbond:TYR:90>  (12) 
hbond:TYR:90    0.0
hbond:TYR:90      0
Name: 11, dtype: object

>  <pistack:TYR:90>  (12) 
pistack:TYR:90    NaN
pistack:TYR:90     -1
Name: 11, dtype: object

>  <halogenbond:TYR:90>  (12) 
halogenbond:TYR:90    NaN
halogenbond:TYR:90     -1
Name: 11, dtype: object

>  <pication:TYR:90>  (12) 
pication:TYR:90    NaN
pication:TYR:90     -1
Name: 11, dtype: object

>  <hbond:PRO:91>  (12) 
hbond:PRO:91    NaN
hbond:PRO:91     -1
Name: 11, dtype: object

>  <hydroph_interaction:PRO:91>  (12) 
hydroph_interaction:PRO:91    NaN
hydroph_interaction:PRO:91     -1
Name: 11, dtype: object

>  <halogenbond:PRO:91>  (12) 
halogenbond:PRO:91    NaN
halogenbond:PRO:91     -1
Name: 11, dtype: object

>  <hbond:ALA:92>  (12) 
hbond:ALA:92    NaN
hbond:ALA:92     -1
Name: 11, dtype: object

>  <hydroph_interaction:ALA:92>  (12) 
hydroph_interaction:ALA:92    NaN
hydroph_interaction:ALA:92     -1
Name: 11, dtype: object

>  <saltbridge:ARG:93>  (12) 
saltbridge:ARG:93    NaN
saltbridge:ARG:93     -1
Name: 11, dtype: object

>  <hbond:ARG:93>  (12) 
hbond:ARG:93    NaN
hbond:ARG:93     -1
Name: 11, dtype: object

>  <hydroph_interaction:ARG:93>  (12) 
hydroph_interaction:ARG:93    NaN
hydroph_interaction:ARG:93     -1
Name: 11, dtype: object

>  <halogenbond:ARG:93>  (12) 
halogenbond:ARG:93    NaN
halogenbond:ARG:93     -1
Name: 11, dtype: object

>  <pication:ARG:93>  (12) 
pication:ARG:93    NaN
pication:ARG:93     -1
Name: 11, dtype: object

>  <hydroph_interaction:TYR:94>  (12) 
hydroph_interaction:TYR:94    NaN
hydroph_interaction:TYR:94     -1
Name: 11, dtype: object

>  <pistack:TYR:94>  (12) 
pistack:TYR:94    NaN
pistack:TYR:94     -1
Name: 11, dtype: object

>  <hbond:TYR:94>  (12) 
hbond:TYR:94    NaN
hbond:TYR:94     -1
Name: 11, dtype: object

>  <hbond:GLN:95>  (12) 
hbond:GLN:95    NaN
hbond:GLN:95     -1
Name: 11, dtype: object

>  <hydroph_interaction:GLN:95>  (12) 
hydroph_interaction:GLN:95    NaN
hydroph_interaction:GLN:95     -1
Name: 11, dtype: object

>  <halogenbond:GLN:95>  (12) 
halogenbond:GLN:95    NaN
halogenbond:GLN:95     -1
Name: 11, dtype: object

>  <hbond:SER:96>  (12) 
hbond:SER:96    NaN
hbond:SER:96     -1
Name: 11, dtype: object

>  <halogenbond:HIS:97>  (12) 
halogenbond:HIS:97    NaN
halogenbond:HIS:97     -1
Name: 11, dtype: object

>  <hydroph_interaction:LEU:98>  (12) 
hydroph_interaction:LEU:98    NaN
hydroph_interaction:LEU:98     -1
Name: 11, dtype: object

>  <hbond:LEU:98>  (12) 
hbond:LEU:98    NaN
hbond:LEU:98     -1
Name: 11, dtype: object

>  <halogenbond:LEU:98>  (12) 
halogenbond:LEU:98    NaN
halogenbond:LEU:98     -1
Name: 11, dtype: object

>  <hbond:MET:99>  (12) 
hbond:MET:99    NaN
hbond:MET:99     -1
Name: 11, dtype: object

>  <hydroph_interaction:MET:99>  (12) 
hydroph_interaction:MET:99    NaN
hydroph_interaction:MET:99     -1
Name: 11, dtype: object

>  <halogenbond:MET:99>  (12) 
halogenbond:MET:99    NaN
halogenbond:MET:99     -1
Name: 11, dtype: object

>  <hydroph_interaction:LEU:100>  (12) 
hydroph_interaction:LEU:100    NaN
hydroph_interaction:LEU:100     -1
Name: 11, dtype: object

>  <hbond:LEU:100>  (12) 
hbond:LEU:100    NaN
hbond:LEU:100     -1
Name: 11, dtype: object

>  <hbond:ALA:101>  (12) 
hbond:ALA:101    NaN
hbond:ALA:101     -1
Name: 11, dtype: object

>  <hydroph_interaction:ALA:101>  (12) 
hydroph_interaction:ALA:101    NaN
hydroph_interaction:ALA:101     -1
Name: 11, dtype: object

>  <hydroph_interaction:VAL:102>  (12) 
hydroph_interaction:VAL:102    NaN
hydroph_interaction:VAL:102     -1
Name: 11, dtype: object

>  <hbond:VAL:102>  (12) 
hbond:VAL:102    NaN
hbond:VAL:102     -1
Name: 11, dtype: object

>  <hbond:GLY:103>  (12) 
hbond:GLY:103    NaN
hbond:GLY:103     -1
Name: 11, dtype: object

>  <halogenbond:GLY:103>  (12) 
halogenbond:GLY:103    NaN
halogenbond:GLY:103     -1
Name: 11, dtype: object

>  <hbond:HIS:104>  (12) 
hbond:HIS:104    NaN
hbond:HIS:104     -1
Name: 11, dtype: object

>  <saltbridge:HIS:104>  (12) 
saltbridge:HIS:104    NaN
saltbridge:HIS:104     -1
Name: 11, dtype: object

>  <pication:HIS:104>  (12) 
pication:HIS:104    NaN
pication:HIS:104     -1
Name: 11, dtype: object

>  <halogenbond:HIS:104>  (12) 
halogenbond:HIS:104    NaN
halogenbond:HIS:104     -1
Name: 11, dtype: object

>  <hydroph_interaction:HIS:104>  (12) 
hydroph_interaction:HIS:104    NaN
hydroph_interaction:HIS:104     -1
Name: 11, dtype: object

>  <pistack:HIS:104>  (12) 
pistack:HIS:104    NaN
pistack:HIS:104     -1
Name: 11, dtype: object

>  <halogenbond:SER:105>  (12) 
halogenbond:SER:105    0.0
halogenbond:SER:105      0
Name: 11, dtype: object

>  <hbond:SER:105>  (12) 
hbond:SER:105    0.0
hbond:SER:105      0
Name: 11, dtype: object

>  <hbond:GLU:106>  (12) 
hbond:GLU:106    0.0
hbond:GLU:106      0
Name: 11, dtype: object

>  <hydroph_interaction:GLU:106>  (12) 
hydroph_interaction:GLU:106    NaN
hydroph_interaction:GLU:106     -1
Name: 11, dtype: object

>  <saltbridge:GLU:106>  (12) 
saltbridge:GLU:106    NaN
saltbridge:GLU:106     -1
Name: 11, dtype: object

>  <halogenbond:GLU:106>  (12) 
halogenbond:GLU:106    NaN
halogenbond:GLU:106     -1
Name: 11, dtype: object

>  <hydroph_interaction:PRO:107>  (12) 
hydroph_interaction:PRO:107    1
hydroph_interaction:PRO:107    1
Name: 11, dtype: object

>  <hbond:PRO:107>  (12) 
hbond:PRO:107    0.0
hbond:PRO:107      0
Name: 11, dtype: object

>  <halogenbond:PRO:107>  (12) 
halogenbond:PRO:107    NaN
halogenbond:PRO:107     -1
Name: 11, dtype: object

>  <hbond:GLY:108>  (12) 
hbond:GLY:108    NaN
hbond:GLY:108     -1
Name: 11, dtype: object

>  <halogenbond:GLY:108>  (12) 
halogenbond:GLY:108    NaN
halogenbond:GLY:108     -1
Name: 11, dtype: object

>  <hbond:ASP:109>  (12) 
hbond:ASP:109    0.0
hbond:ASP:109      0
Name: 11, dtype: object

>  <hydroph_interaction:ASP:109>  (12) 
hydroph_interaction:ASP:109    0.0
hydroph_interaction:ASP:109      0
Name: 11, dtype: object

>  <saltbridge:ASP:109>  (12) 
saltbridge:ASP:109    NaN
saltbridge:ASP:109     -1
Name: 11, dtype: object

>  <halogenbond:CYS:110>  (12) 
halogenbond:CYS:110    NaN
halogenbond:CYS:110     -1
Name: 11, dtype: object

>  <hbond:CYS:110>  (12) 
hbond:CYS:110    0.0
hbond:CYS:110      0
Name: 11, dtype: object

>  <hbond:GLY:111>  (12) 
hbond:GLY:111    NaN
hbond:GLY:111     -1
Name: 11, dtype: object

>  <hbond:GLY:112>  (12) 
hbond:GLY:112    NaN
hbond:GLY:112     -1
Name: 11, dtype: object

>  <hbond:ILE:113>  (12) 
hbond:ILE:113    NaN
hbond:ILE:113     -1
Name: 11, dtype: object

>  <hydroph_interaction:LEU:114>  (12) 
hydroph_interaction:LEU:114    NaN
hydroph_interaction:LEU:114     -1
Name: 11, dtype: object

>  <hbond:LEU:114>  (12) 
hbond:LEU:114    NaN
hbond:LEU:114     -1
Name: 11, dtype: object

>  <hydroph_interaction:ILE:123>  (12) 
hydroph_interaction:ILE:123    NaN
hydroph_interaction:ILE:123     -1
Name: 11, dtype: object

>  <hbond:ILE:123>  (12) 
hbond:ILE:123    NaN
hbond:ILE:123     -1
Name: 11, dtype: object

>  <hydroph_interaction:VAL:124>  (12) 
hydroph_interaction:VAL:124    1.0
hydroph_interaction:VAL:124      1
Name: 11, dtype: object

>  <hbond:VAL:124>  (12) 
hbond:VAL:124    NaN
hbond:VAL:124     -1
Name: 11, dtype: object

>  <halogenbond:VAL:124>  (12) 
halogenbond:VAL:124    NaN
halogenbond:VAL:124     -1
Name: 11, dtype: object

>  <hbond:SER:125>  (12) 
hbond:SER:125    0
hbond:SER:125    0
Name: 11, dtype: object

>  <halogenbond:SER:125>  (12) 
halogenbond:SER:125    NaN
halogenbond:SER:125     -1
Name: 11, dtype: object

>  <hydroph_interaction:THR:126>  (12) 
hydroph_interaction:THR:126    0.0
hydroph_interaction:THR:126      0
Name: 11, dtype: object

>  <hbond:THR:126>  (12) 
hbond:THR:126    0.0
hbond:THR:126      0
Name: 11, dtype: object

>  <halogenbond:THR:126>  (12) 
halogenbond:THR:126    NaN
halogenbond:THR:126     -1
Name: 11, dtype: object

>  <hbond:GLY:127>  (12) 
hbond:GLY:127    0
hbond:GLY:127    0
Name: 11, dtype: object

>  <halogenbond:GLY:127>  (12) 
halogenbond:GLY:127    NaN
halogenbond:GLY:127     -1
Name: 11, dtype: object

>  <hydroph_interaction:GLY:127>  (12) 
hydroph_interaction:GLY:127    NaN
hydroph_interaction:GLY:127     -1
Name: 11, dtype: object

>  <hbond:GLY:128>  (12) 
hbond:GLY:128    NaN
hbond:GLY:128     -1
Name: 11, dtype: object

>  <halogenbond:GLY:128>  (12) 
halogenbond:GLY:128    NaN
halogenbond:GLY:128     -1
Name: 11, dtype: object

>  <hydroph_interaction:GLY:128>  (12) 
hydroph_interaction:GLY:128    NaN
hydroph_interaction:GLY:128     -1
Name: 11, dtype: object

>  <hbond:ASN:129>  (12) 
hbond:ASN:129    NaN
hbond:ASN:129     -1
Name: 11, dtype: object

>  <hydroph_interaction:ASN:129>  (12) 
hydroph_interaction:ASN:129    NaN
hydroph_interaction:ASN:129     -1
Name: 11, dtype: object

>  <halogenbond:ASN:129>  (12) 
halogenbond:ASN:129    NaN
halogenbond:ASN:129     -1
Name: 11, dtype: object

>  <hbond:GLY:130>  (12) 
hbond:GLY:130    NaN
hbond:GLY:130     -1
Name: 11, dtype: object

>  <hbond:LEU:131>  (12) 
hbond:LEU:131    NaN
hbond:LEU:131     -1
Name: 11, dtype: object

>  <hydroph_interaction:LEU:131>  (12) 
hydroph_interaction:LEU:131    NaN
hydroph_interaction:LEU:131     -1
Name: 11, dtype: object

>  <halogenbond:LEU:131>  (12) 
halogenbond:LEU:131    NaN
halogenbond:LEU:131     -1
Name: 11, dtype: object

>  <hydroph_interaction:VAL:132>  (12) 
hydroph_interaction:VAL:132    NaN
hydroph_interaction:VAL:132     -1
Name: 11, dtype: object

>  <hbond:VAL:132>  (12) 
hbond:VAL:132    NaN
hbond:VAL:132     -1
Name: 11, dtype: object

>  <hbond:GLY:133>  (12) 
hbond:GLY:133    0.0
hbond:GLY:133      0
Name: 11, dtype: object

>  <halogenbond:GLY:133>  (12) 
halogenbond:GLY:133    NaN
halogenbond:GLY:133     -1
Name: 11, dtype: object

>  <hydroph_interaction:PHE:134>  (12) 
hydroph_interaction:PHE:134    NaN
hydroph_interaction:PHE:134     -1
Name: 11, dtype: object

>  <hbond:PHE:134>  (12) 
hbond:PHE:134    NaN
hbond:PHE:134     -1
Name: 11, dtype: object

>  <pistack:PHE:134>  (12) 
pistack:PHE:134    NaN
pistack:PHE:134     -1
Name: 11, dtype: object

>  <pication:PHE:134>  (12) 
pication:PHE:134    NaN
pication:PHE:134     -1
Name: 11, dtype: object

>  <halogenbond:PHE:134>  (12) 
halogenbond:PHE:134    NaN
halogenbond:PHE:134     -1
Name: 11, dtype: object

>  <hydroph_interaction:ALA:135>  (12) 
hydroph_interaction:ALA:135    NaN
hydroph_interaction:ALA:135     -1
Name: 11, dtype: object

>  <hbond:ALA:135>  (12) 
hbond:ALA:135    NaN
hbond:ALA:135     -1
Name: 11, dtype: object

$$$$
PV_002747266492
     RDKit          3D

 20 21  0  0  0  0  0  0  0  0999 V2000
   10.3060    9.1280   22.5880 C   0  0  0  0  0  0  0  0  0  0  0  0
    9.5290   10.1120   23.4380 C   0  0  0  0  0  0  0  0  0  0  0  0
    8.4550    9.5240   24.2000 N   0  0  0  0  0  0  0  0  0  0  0  0
    7.9770   10.6410   24.8180 N   0  0  0  0  0  0  0  0  0  0  0  0
    6.8380   10.5910   25.7110 C   0  0  0  0  0  0  0  0  0  0  0  0
    8.6680   11.7810   24.5100 C   0  0  0  0  0  0  0  0  0  0  0  0
    8.5500   13.2170   24.9330 C   0  0  0  0  0  0  0  0  0  0  0  0
    9.5460   14.1310   24.3500 C   0  0  0  0  0  0  0  0  0  0  0  0
   10.5080   13.7690   23.4660 N   0  0  0  0  0  0  0  0  0  0  0  0
   10.5720   12.3480   23.0660 C   0  0  0  0  0  0  0  0  0  0  0  0
    9.6640   11.4450   23.6150 C   0  0  0  0  0  0  0  0  0  0  0  0
   10.7670    9.6320   21.7380 H   0  0  0  0  0  0  0  0  0  0  0  0
    9.6480    8.3500   22.1900 H   0  0  0  0  0  0  0  0  0  0  0  0
   11.0960    8.6450   23.1680 H   0  0  0  0  0  0  0  0  0  0  0  0
    6.1620    9.7860   25.4220 H   0  0  0  0  0  0  0  0  0  0  0  0
    6.2910   11.5380   25.6200 H   0  0  0  0  0  0  0  0  0  0  0  0
    7.1370   10.4710   26.7470 H   0  0  0  0  0  0  0  0  0  0  0  0
    7.8190   13.6390   25.6290 H   0  0  0  0  0  0  0  0  0  0  0  0
    9.5190   15.1580   24.6370 H   0  0  0  0  0  0  0  0  0  0  0  0
   11.3380   12.0820   22.3630 H   0  0  0  0  0  0  0  0  0  0  0  0
  1  2  1  0
  2  3  2  0
  3  4  1  0
  4  5  1  0
  4  6  1  0
  6  7  2  0
  7  8  1  0
  8  9  2  0
  9 10  1  0
 10 11  2  0
 11  2  1  0
 11  6  1  0
  1 12  1  0
  1 13  1  0
  1 14  1  0
  5 15  1  0
  5 16  1  0
  5 17  1  0
  7 18  1  0
  8 19  1  0
 10 20  1  0
A    1
 C1 
A    2
 C2 
A    3
 N1 
A    4
 N2 
A    5
 C3 
A    6
 C4 
A    7
 C5 
A    8
 C6 
A    9
 N3 
A   10
 C7 
A   11
 C8 
A   12
 H1 
A   13
 H2 
A   14
 H3 
A   15
 H4 
A   16
 H5 
A   17
 H6 
A   18
 H7 
A   19
 H8 
A   20
 H9 
M  END
>  <ref_pdb>  (13) 
x0310_0A

>  <ref_mols>  (13) 
x0310_0A,x0556_0A,x0884_0A

>  <original SMILES>  (13) 
Cc1nn(C)c2ccncc12

>  <rationale>  (13) 
info halogenbond:G127+D39+A86+S125+E85+Q95+E106+P107+H104+Y64+C65+F83+R93+L131+I82+G128+P91+N19+H21+V84+G133+Y90+Y89+H97+L81+F134+L98+R20+G103+S66+S67+S7+G108+R38+V124+M99+S36; hbond:S87+G108+G103+H104+R68+V124+P91+F83+S67+S7+S66+G112+G133+V132+R20+Y89+S77+A135+Y63+A92+A101+M99+F134+L100+I82+Y64+S36+L98+V84+L81+Y94+S80+R38+S37+V102+G8+I123+G111+I113+L114+C65+L22+S96; hydroph_interaction:V124+P107+N129+D39+N19+L40+I123+A135+Q95+I82+L100+L98+F83+R93+Y63+F134+H104+R20+A86+V74+P91+A101+F76+M99+L114+A92+Y94+R68+Y72+Y64+V18+V102+W28+G127+G128+L81; pication:H104+R93+Y63+F134+Y90+R68+F83+R20; pistack:H104+F134+Y63+F83+Y94; saltbridge:D39+R93+H104+E106+D109+E85+R68+R20; 

>  <intxn_cluster>  (13) 
-1

>  <intxn_cluster_rank>  (13) 
-1

>  <N_interactions>  (13) 
3

>  <∆∆G>  (13) 
-7.304729

>  <$/mg>  (13) 
0.0

>  <comRMSD>  (13) 
0.897406

>  <N_rotatable_bonds>  (13) 
2

>  <deep_P1_sidechain>  (13) 
nan

>  <farthest_distance_to_substrate>  (13) 
2.915147

>  <hbond:SER:7>  (13) 
hbond:SER:7    NaN
hbond:SER:7     -1
Name: 12, dtype: object

>  <halogenbond:SER:7>  (13) 
halogenbond:SER:7    NaN
halogenbond:SER:7     -1
Name: 12, dtype: object

>  <hbond:GLY:8>  (13) 
hbond:GLY:8    NaN
hbond:GLY:8     -1
Name: 12, dtype: object

>  <hydroph_interaction:VAL:18>  (13) 
hydroph_interaction:VAL:18    NaN
hydroph_interaction:VAL:18     -1
Name: 12, dtype: object

>  <hbond:ASN:19>  (13) 
hbond:ASN:19    0.0
hbond:ASN:19      0
Name: 12, dtype: object

>  <hydroph_interaction:ASN:19>  (13) 
hydroph_interaction:ASN:19    NaN
hydroph_interaction:ASN:19     -1
Name: 12, dtype: object

>  <halogenbond:ASN:19>  (13) 
halogenbond:ASN:19    NaN
halogenbond:ASN:19     -1
Name: 12, dtype: object

>  <hbond:ARG:20>  (13) 
hbond:ARG:20    NaN
hbond:ARG:20     -1
Name: 12, dtype: object

>  <hydroph_interaction:ARG:20>  (13) 
hydroph_interaction:ARG:20    NaN
hydroph_interaction:ARG:20     -1
Name: 12, dtype: object

>  <saltbridge:ARG:20>  (13) 
saltbridge:ARG:20    NaN
saltbridge:ARG:20     -1
Name: 12, dtype: object

>  <halogenbond:ARG:20>  (13) 
halogenbond:ARG:20    NaN
halogenbond:ARG:20     -1
Name: 12, dtype: object

>  <pication:ARG:20>  (13) 
pication:ARG:20    NaN
pication:ARG:20     -1
Name: 12, dtype: object

>  <hbond:HIS:21>  (13) 
hbond:HIS:21    0.0
hbond:HIS:21      0
Name: 12, dtype: object

>  <hydroph_interaction:HIS:21>  (13) 
hydroph_interaction:HIS:21    0.0
hydroph_interaction:HIS:21      0
Name: 12, dtype: object

>  <pistack:HIS:21>  (13) 
pistack:HIS:21    0.0
pistack:HIS:21      0
Name: 12, dtype: object

>  <pication:HIS:21>  (13) 
pication:HIS:21    0.0
pication:HIS:21      0
Name: 12, dtype: object

>  <saltbridge:HIS:21>  (13) 
saltbridge:HIS:21    0.0
saltbridge:HIS:21      0
Name: 12, dtype: object

>  <halogenbond:HIS:21>  (13) 
halogenbond:HIS:21    NaN
halogenbond:HIS:21     -1
Name: 12, dtype: object

>  <hydroph_interaction:LEU:22>  (13) 
hydroph_interaction:LEU:22    0.0
hydroph_interaction:LEU:22      0
Name: 12, dtype: object

>  <hbond:LEU:22>  (13) 
hbond:LEU:22    NaN
hbond:LEU:22     -1
Name: 12, dtype: object

>  <hydroph_interaction:TRP:28>  (13) 
hydroph_interaction:TRP:28    NaN
hydroph_interaction:TRP:28     -1
Name: 12, dtype: object

>  <hbond:SER:36>  (13) 
hbond:SER:36    NaN
hbond:SER:36     -1
Name: 12, dtype: object

>  <halogenbond:SER:36>  (13) 
halogenbond:SER:36    NaN
halogenbond:SER:36     -1
Name: 12, dtype: object

>  <hbond:SER:37>  (13) 
hbond:SER:37    NaN
hbond:SER:37     -1
Name: 12, dtype: object

>  <hbond:ARG:38>  (13) 
hbond:ARG:38    NaN
hbond:ARG:38     -1
Name: 12, dtype: object

>  <halogenbond:ARG:38>  (13) 
halogenbond:ARG:38    NaN
halogenbond:ARG:38     -1
Name: 12, dtype: object

>  <saltbridge:ASP:39>  (13) 
saltbridge:ASP:39    NaN
saltbridge:ASP:39     -1
Name: 12, dtype: object

>  <halogenbond:ASP:39>  (13) 
halogenbond:ASP:39    NaN
halogenbond:ASP:39     -1
Name: 12, dtype: object

>  <hbond:ASP:39>  (13) 
hbond:ASP:39    0.0
hbond:ASP:39      0
Name: 12, dtype: object

>  <hydroph_interaction:ASP:39>  (13) 
hydroph_interaction:ASP:39    NaN
hydroph_interaction:ASP:39     -1
Name: 12, dtype: object

>  <hydroph_interaction:LEU:40>  (13) 
hydroph_interaction:LEU:40    NaN
hydroph_interaction:LEU:40     -1
Name: 12, dtype: object

>  <hydroph_interaction:TYR:63>  (13) 
hydroph_interaction:TYR:63    NaN
hydroph_interaction:TYR:63     -1
Name: 12, dtype: object

>  <hbond:TYR:63>  (13) 
hbond:TYR:63    NaN
hbond:TYR:63     -1
Name: 12, dtype: object

>  <pistack:TYR:63>  (13) 
pistack:TYR:63    NaN
pistack:TYR:63     -1
Name: 12, dtype: object

>  <pication:TYR:63>  (13) 
pication:TYR:63    NaN
pication:TYR:63     -1
Name: 12, dtype: object

>  <halogenbond:TYR:64>  (13) 
halogenbond:TYR:64    NaN
halogenbond:TYR:64     -1
Name: 12, dtype: object

>  <hbond:TYR:64>  (13) 
hbond:TYR:64    NaN
hbond:TYR:64     -1
Name: 12, dtype: object

>  <hydroph_interaction:TYR:64>  (13) 
hydroph_interaction:TYR:64    NaN
hydroph_interaction:TYR:64     -1
Name: 12, dtype: object

>  <halogenbond:CYS:65>  (13) 
halogenbond:CYS:65    NaN
halogenbond:CYS:65     -1
Name: 12, dtype: object

>  <hbond:CYS:65>  (13) 
hbond:CYS:65    NaN
hbond:CYS:65     -1
Name: 12, dtype: object

>  <hbond:SER:66>  (13) 
hbond:SER:66    NaN
hbond:SER:66     -1
Name: 12, dtype: object

>  <halogenbond:SER:66>  (13) 
halogenbond:SER:66    NaN
halogenbond:SER:66     -1
Name: 12, dtype: object

>  <hbond:SER:67>  (13) 
hbond:SER:67    NaN
hbond:SER:67     -1
Name: 12, dtype: object

>  <halogenbond:SER:67>  (13) 
halogenbond:SER:67    NaN
halogenbond:SER:67     -1
Name: 12, dtype: object

>  <hbond:ARG:68>  (13) 
hbond:ARG:68    NaN
hbond:ARG:68     -1
Name: 12, dtype: object

>  <saltbridge:ARG:68>  (13) 
saltbridge:ARG:68    NaN
saltbridge:ARG:68     -1
Name: 12, dtype: object

>  <hydroph_interaction:ARG:68>  (13) 
hydroph_interaction:ARG:68    NaN
hydroph_interaction:ARG:68     -1
Name: 12, dtype: object

>  <pication:ARG:68>  (13) 
pication:ARG:68    NaN
pication:ARG:68     -1
Name: 12, dtype: object

>  <hydroph_interaction:TYR:72>  (13) 
hydroph_interaction:TYR:72    NaN
hydroph_interaction:TYR:72     -1
Name: 12, dtype: object

>  <hydroph_interaction:VAL:74>  (13) 
hydroph_interaction:VAL:74    NaN
hydroph_interaction:VAL:74     -1
Name: 12, dtype: object

>  <hydroph_interaction:PHE:76>  (13) 
hydroph_interaction:PHE:76    NaN
hydroph_interaction:PHE:76     -1
Name: 12, dtype: object

>  <hbond:SER:77>  (13) 
hbond:SER:77    NaN
hbond:SER:77     -1
Name: 12, dtype: object

>  <hbond:SER:80>  (13) 
hbond:SER:80    NaN
hbond:SER:80     -1
Name: 12, dtype: object

>  <hbond:LEU:81>  (13) 
hbond:LEU:81    NaN
hbond:LEU:81     -1
Name: 12, dtype: object

>  <halogenbond:LEU:81>  (13) 
halogenbond:LEU:81    NaN
halogenbond:LEU:81     -1
Name: 12, dtype: object

>  <hydroph_interaction:LEU:81>  (13) 
hydroph_interaction:LEU:81    NaN
hydroph_interaction:LEU:81     -1
Name: 12, dtype: object

>  <hydroph_interaction:ILE:82>  (13) 
hydroph_interaction:ILE:82    NaN
hydroph_interaction:ILE:82     -1
Name: 12, dtype: object

>  <halogenbond:ILE:82>  (13) 
halogenbond:ILE:82    NaN
halogenbond:ILE:82     -1
Name: 12, dtype: object

>  <hbond:ILE:82>  (13) 
hbond:ILE:82    NaN
hbond:ILE:82     -1
Name: 12, dtype: object

>  <hbond:PHE:83>  (13) 
hbond:PHE:83    NaN
hbond:PHE:83     -1
Name: 12, dtype: object

>  <hydroph_interaction:PHE:83>  (13) 
hydroph_interaction:PHE:83    NaN
hydroph_interaction:PHE:83     -1
Name: 12, dtype: object

>  <halogenbond:PHE:83>  (13) 
halogenbond:PHE:83    NaN
halogenbond:PHE:83     -1
Name: 12, dtype: object

>  <pistack:PHE:83>  (13) 
pistack:PHE:83    NaN
pistack:PHE:83     -1
Name: 12, dtype: object

>  <pication:PHE:83>  (13) 
pication:PHE:83    NaN
pication:PHE:83     -1
Name: 12, dtype: object

>  <hydroph_interaction:VAL:84>  (13) 
hydroph_interaction:VAL:84    0.0
hydroph_interaction:VAL:84      0
Name: 12, dtype: object

>  <halogenbond:VAL:84>  (13) 
halogenbond:VAL:84    NaN
halogenbond:VAL:84     -1
Name: 12, dtype: object

>  <hbond:VAL:84>  (13) 
hbond:VAL:84    NaN
hbond:VAL:84     -1
Name: 12, dtype: object

>  <hydroph_interaction:GLU:85>  (13) 
hydroph_interaction:GLU:85    0.0
hydroph_interaction:GLU:85      0
Name: 12, dtype: object

>  <hbond:GLU:85>  (13) 
hbond:GLU:85    0.0
hbond:GLU:85      0
Name: 12, dtype: object

>  <halogenbond:GLU:85>  (13) 
halogenbond:GLU:85    NaN
halogenbond:GLU:85     -1
Name: 12, dtype: object

>  <saltbridge:GLU:85>  (13) 
saltbridge:GLU:85    NaN
saltbridge:GLU:85     -1
Name: 12, dtype: object

>  <halogenbond:ALA:86>  (13) 
halogenbond:ALA:86    NaN
halogenbond:ALA:86     -1
Name: 12, dtype: object

>  <hbond:ALA:86>  (13) 
hbond:ALA:86    0.0
hbond:ALA:86      0
Name: 12, dtype: object

>  <hydroph_interaction:ALA:86>  (13) 
hydroph_interaction:ALA:86    NaN
hydroph_interaction:ALA:86     -1
Name: 12, dtype: object

>  <hbond:SER:87>  (13) 
hbond:SER:87    1
hbond:SER:87    1
Name: 12, dtype: object

>  <halogenbond:SER:87>  (13) 
halogenbond:SER:87    0.0
halogenbond:SER:87      0
Name: 12, dtype: object

>  <hbond:GLU:88>  (13) 
hbond:GLU:88    0.0
hbond:GLU:88      0
Name: 12, dtype: object

>  <hydroph_interaction:GLU:88>  (13) 
hydroph_interaction:GLU:88    0.0
hydroph_interaction:GLU:88      0
Name: 12, dtype: object

>  <halogenbond:GLU:88>  (13) 
halogenbond:GLU:88    0.0
halogenbond:GLU:88      0
Name: 12, dtype: object

>  <saltbridge:GLU:88>  (13) 
saltbridge:GLU:88    0.0
saltbridge:GLU:88      0
Name: 12, dtype: object

>  <hydroph_interaction:TYR:89>  (13) 
hydroph_interaction:TYR:89    0.0
hydroph_interaction:TYR:89      0
Name: 12, dtype: object

>  <pistack:TYR:89>  (13) 
pistack:TYR:89    0.0
pistack:TYR:89      0
Name: 12, dtype: object

>  <hbond:TYR:89>  (13) 
hbond:TYR:89    NaN
hbond:TYR:89     -1
Name: 12, dtype: object

>  <halogenbond:TYR:89>  (13) 
halogenbond:TYR:89    NaN
halogenbond:TYR:89     -1
Name: 12, dtype: object

>  <hydroph_interaction:TYR:90>  (13) 
hydroph_interaction:TYR:90    0.0
hydroph_interaction:TYR:90      0
Name: 12, dtype: object

>  <hbond:TYR:90>  (13) 
hbond:TYR:90    0.0
hbond:TYR:90      0
Name: 12, dtype: object

>  <pistack:TYR:90>  (13) 
pistack:TYR:90    0.0
pistack:TYR:90      0
Name: 12, dtype: object

>  <halogenbond:TYR:90>  (13) 
halogenbond:TYR:90    NaN
halogenbond:TYR:90     -1
Name: 12, dtype: object

>  <pication:TYR:90>  (13) 
pication:TYR:90    NaN
pication:TYR:90     -1
Name: 12, dtype: object

>  <hbond:PRO:91>  (13) 
hbond:PRO:91    NaN
hbond:PRO:91     -1
Name: 12, dtype: object

>  <hydroph_interaction:PRO:91>  (13) 
hydroph_interaction:PRO:91    NaN
hydroph_interaction:PRO:91     -1
Name: 12, dtype: object

>  <halogenbond:PRO:91>  (13) 
halogenbond:PRO:91    NaN
halogenbond:PRO:91     -1
Name: 12, dtype: object

>  <hbond:ALA:92>  (13) 
hbond:ALA:92    NaN
hbond:ALA:92     -1
Name: 12, dtype: object

>  <hydroph_interaction:ALA:92>  (13) 
hydroph_interaction:ALA:92    NaN
hydroph_interaction:ALA:92     -1
Name: 12, dtype: object

>  <saltbridge:ARG:93>  (13) 
saltbridge:ARG:93    NaN
saltbridge:ARG:93     -1
Name: 12, dtype: object

>  <hbond:ARG:93>  (13) 
hbond:ARG:93    0.0
hbond:ARG:93      0
Name: 12, dtype: object

>  <hydroph_interaction:ARG:93>  (13) 
hydroph_interaction:ARG:93    NaN
hydroph_interaction:ARG:93     -1
Name: 12, dtype: object

>  <halogenbond:ARG:93>  (13) 
halogenbond:ARG:93    NaN
halogenbond:ARG:93     -1
Name: 12, dtype: object

>  <pication:ARG:93>  (13) 
pication:ARG:93    NaN
pication:ARG:93     -1
Name: 12, dtype: object

>  <hydroph_interaction:TYR:94>  (13) 
hydroph_interaction:TYR:94    NaN
hydroph_interaction:TYR:94     -1
Name: 12, dtype: object

>  <pistack:TYR:94>  (13) 
pistack:TYR:94    NaN
pistack:TYR:94     -1
Name: 12, dtype: object

>  <hbond:TYR:94>  (13) 
hbond:TYR:94    NaN
hbond:TYR:94     -1
Name: 12, dtype: object

>  <hbond:GLN:95>  (13) 
hbond:GLN:95    0.0
hbond:GLN:95      0
Name: 12, dtype: object

>  <hydroph_interaction:GLN:95>  (13) 
hydroph_interaction:GLN:95    NaN
hydroph_interaction:GLN:95     -1
Name: 12, dtype: object

>  <halogenbond:GLN:95>  (13) 
halogenbond:GLN:95    NaN
halogenbond:GLN:95     -1
Name: 12, dtype: object

>  <hbond:SER:96>  (13) 
hbond:SER:96    NaN
hbond:SER:96     -1
Name: 12, dtype: object

>  <halogenbond:HIS:97>  (13) 
halogenbond:HIS:97    NaN
halogenbond:HIS:97     -1
Name: 12, dtype: object

>  <hydroph_interaction:LEU:98>  (13) 
hydroph_interaction:LEU:98    NaN
hydroph_interaction:LEU:98     -1
Name: 12, dtype: object

>  <hbond:LEU:98>  (13) 
hbond:LEU:98    NaN
hbond:LEU:98     -1
Name: 12, dtype: object

>  <halogenbond:LEU:98>  (13) 
halogenbond:LEU:98    NaN
halogenbond:LEU:98     -1
Name: 12, dtype: object

>  <hbond:MET:99>  (13) 
hbond:MET:99    NaN
hbond:MET:99     -1
Name: 12, dtype: object

>  <hydroph_interaction:MET:99>  (13) 
hydroph_interaction:MET:99    NaN
hydroph_interaction:MET:99     -1
Name: 12, dtype: object

>  <halogenbond:MET:99>  (13) 
halogenbond:MET:99    NaN
halogenbond:MET:99     -1
Name: 12, dtype: object

>  <hydroph_interaction:LEU:100>  (13) 
hydroph_interaction:LEU:100    NaN
hydroph_interaction:LEU:100     -1
Name: 12, dtype: object

>  <hbond:LEU:100>  (13) 
hbond:LEU:100    NaN
hbond:LEU:100     -1
Name: 12, dtype: object

>  <hbond:ALA:101>  (13) 
hbond:ALA:101    NaN
hbond:ALA:101     -1
Name: 12, dtype: object

>  <hydroph_interaction:ALA:101>  (13) 
hydroph_interaction:ALA:101    NaN
hydroph_interaction:ALA:101     -1
Name: 12, dtype: object

>  <hydroph_interaction:VAL:102>  (13) 
hydroph_interaction:VAL:102    NaN
hydroph_interaction:VAL:102     -1
Name: 12, dtype: object

>  <hbond:VAL:102>  (13) 
hbond:VAL:102    NaN
hbond:VAL:102     -1
Name: 12, dtype: object

>  <hbond:GLY:103>  (13) 
hbond:GLY:103    NaN
hbond:GLY:103     -1
Name: 12, dtype: object

>  <halogenbond:GLY:103>  (13) 
halogenbond:GLY:103    NaN
halogenbond:GLY:103     -1
Name: 12, dtype: object

>  <hbond:HIS:104>  (13) 
hbond:HIS:104    NaN
hbond:HIS:104     -1
Name: 12, dtype: object

>  <saltbridge:HIS:104>  (13) 
saltbridge:HIS:104    NaN
saltbridge:HIS:104     -1
Name: 12, dtype: object

>  <pication:HIS:104>  (13) 
pication:HIS:104    NaN
pication:HIS:104     -1
Name: 12, dtype: object

>  <halogenbond:HIS:104>  (13) 
halogenbond:HIS:104    NaN
halogenbond:HIS:104     -1
Name: 12, dtype: object

>  <hydroph_interaction:HIS:104>  (13) 
hydroph_interaction:HIS:104    NaN
hydroph_interaction:HIS:104     -1
Name: 12, dtype: object

>  <pistack:HIS:104>  (13) 
pistack:HIS:104    NaN
pistack:HIS:104     -1
Name: 12, dtype: object

>  <halogenbond:SER:105>  (13) 
halogenbond:SER:105    0.0
halogenbond:SER:105      0
Name: 12, dtype: object

>  <hbond:SER:105>  (13) 
hbond:SER:105    0.0
hbond:SER:105      0
Name: 12, dtype: object

>  <hbond:GLU:106>  (13) 
hbond:GLU:106    0.0
hbond:GLU:106      0
Name: 12, dtype: object

>  <hydroph_interaction:GLU:106>  (13) 
hydroph_interaction:GLU:106    0.0
hydroph_interaction:GLU:106      0
Name: 12, dtype: object

>  <saltbridge:GLU:106>  (13) 
saltbridge:GLU:106    NaN
saltbridge:GLU:106     -1
Name: 12, dtype: object

>  <halogenbond:GLU:106>  (13) 
halogenbond:GLU:106    NaN
halogenbond:GLU:106     -1
Name: 12, dtype: object

>  <hydroph_interaction:PRO:107>  (13) 
hydroph_interaction:PRO:107    1
hydroph_interaction:PRO:107    1
Name: 12, dtype: object

>  <hbond:PRO:107>  (13) 
hbond:PRO:107    0.0
hbond:PRO:107      0
Name: 12, dtype: object

>  <halogenbond:PRO:107>  (13) 
halogenbond:PRO:107    NaN
halogenbond:PRO:107     -1
Name: 12, dtype: object

>  <hbond:GLY:108>  (13) 
hbond:GLY:108    NaN
hbond:GLY:108     -1
Name: 12, dtype: object

>  <halogenbond:GLY:108>  (13) 
halogenbond:GLY:108    NaN
halogenbond:GLY:108     -1
Name: 12, dtype: object

>  <hbond:ASP:109>  (13) 
hbond:ASP:109    0.0
hbond:ASP:109      0
Name: 12, dtype: object

>  <hydroph_interaction:ASP:109>  (13) 
hydroph_interaction:ASP:109    0.0
hydroph_interaction:ASP:109      0
Name: 12, dtype: object

>  <saltbridge:ASP:109>  (13) 
saltbridge:ASP:109    NaN
saltbridge:ASP:109     -1
Name: 12, dtype: object

>  <halogenbond:CYS:110>  (13) 
halogenbond:CYS:110    0.0
halogenbond:CYS:110      0
Name: 12, dtype: object

>  <hbond:CYS:110>  (13) 
hbond:CYS:110    0.0
hbond:CYS:110      0
Name: 12, dtype: object

>  <hbond:GLY:111>  (13) 
hbond:GLY:111    NaN
hbond:GLY:111     -1
Name: 12, dtype: object

>  <hbond:GLY:112>  (13) 
hbond:GLY:112    NaN
hbond:GLY:112     -1
Name: 12, dtype: object

>  <hbond:ILE:113>  (13) 
hbond:ILE:113    NaN
hbond:ILE:113     -1
Name: 12, dtype: object

>  <hydroph_interaction:LEU:114>  (13) 
hydroph_interaction:LEU:114    NaN
hydroph_interaction:LEU:114     -1
Name: 12, dtype: object

>  <hbond:LEU:114>  (13) 
hbond:LEU:114    NaN
hbond:LEU:114     -1
Name: 12, dtype: object

>  <hydroph_interaction:ILE:123>  (13) 
hydroph_interaction:ILE:123    NaN
hydroph_interaction:ILE:123     -1
Name: 12, dtype: object

>  <hbond:ILE:123>  (13) 
hbond:ILE:123    NaN
hbond:ILE:123     -1
Name: 12, dtype: object

>  <hydroph_interaction:VAL:124>  (13) 
hydroph_interaction:VAL:124    1.0
hydroph_interaction:VAL:124      1
Name: 12, dtype: object

>  <hbond:VAL:124>  (13) 
hbond:VAL:124    NaN
hbond:VAL:124     -1
Name: 12, dtype: object

>  <halogenbond:VAL:124>  (13) 
halogenbond:VAL:124    NaN
halogenbond:VAL:124     -1
Name: 12, dtype: object

>  <hbond:SER:125>  (13) 
hbond:SER:125    0
hbond:SER:125    0
Name: 12, dtype: object

>  <halogenbond:SER:125>  (13) 
halogenbond:SER:125    NaN
halogenbond:SER:125     -1
Name: 12, dtype: object

>  <hydroph_interaction:THR:126>  (13) 
hydroph_interaction:THR:126    0.0
hydroph_interaction:THR:126      0
Name: 12, dtype: object

>  <hbond:THR:126>  (13) 
hbond:THR:126    0.0
hbond:THR:126      0
Name: 12, dtype: object

>  <halogenbond:THR:126>  (13) 
halogenbond:THR:126    0.0
halogenbond:THR:126      0
Name: 12, dtype: object

>  <hbond:GLY:127>  (13) 
hbond:GLY:127    0
hbond:GLY:127    0
Name: 12, dtype: object

>  <halogenbond:GLY:127>  (13) 
halogenbond:GLY:127    NaN
halogenbond:GLY:127     -1
Name: 12, dtype: object

>  <hydroph_interaction:GLY:127>  (13) 
hydroph_interaction:GLY:127    NaN
hydroph_interaction:GLY:127     -1
Name: 12, dtype: object

>  <hbond:GLY:128>  (13) 
hbond:GLY:128    0.0
hbond:GLY:128      0
Name: 12, dtype: object

>  <halogenbond:GLY:128>  (13) 
halogenbond:GLY:128    NaN
halogenbond:GLY:128     -1
Name: 12, dtype: object

>  <hydroph_interaction:GLY:128>  (13) 
hydroph_interaction:GLY:128    NaN
hydroph_interaction:GLY:128     -1
Name: 12, dtype: object

>  <hbond:ASN:129>  (13) 
hbond:ASN:129    0.0
hbond:ASN:129      0
Name: 12, dtype: object

>  <hydroph_interaction:ASN:129>  (13) 
hydroph_interaction:ASN:129    NaN
hydroph_interaction:ASN:129     -1
Name: 12, dtype: object

>  <halogenbond:ASN:129>  (13) 
halogenbond:ASN:129    0.0
halogenbond:ASN:129      0
Name: 12, dtype: object

>  <hbond:GLY:130>  (13) 
hbond:GLY:130    0.0
hbond:GLY:130      0
Name: 12, dtype: object

>  <hbond:LEU:131>  (13) 
hbond:LEU:131    0.0
hbond:LEU:131      0
Name: 12, dtype: object

>  <hydroph_interaction:LEU:131>  (13) 
hydroph_interaction:LEU:131    0.0
hydroph_interaction:LEU:131      0
Name: 12, dtype: object

>  <halogenbond:LEU:131>  (13) 
halogenbond:LEU:131    NaN
halogenbond:LEU:131     -1
Name: 12, dtype: object

>  <hydroph_interaction:VAL:132>  (13) 
hydroph_interaction:VAL:132    0.0
hydroph_interaction:VAL:132      0
Name: 12, dtype: object

>  <hbond:VAL:132>  (13) 
hbond:VAL:132    NaN
hbond:VAL:132     -1
Name: 12, dtype: object

>  <hbond:GLY:133>  (13) 
hbond:GLY:133    NaN
hbond:GLY:133     -1
Name: 12, dtype: object

>  <halogenbond:GLY:133>  (13) 
halogenbond:GLY:133    NaN
halogenbond:GLY:133     -1
Name: 12, dtype: object

>  <hydroph_interaction:PHE:134>  (13) 
hydroph_interaction:PHE:134    NaN
hydroph_interaction:PHE:134     -1
Name: 12, dtype: object

>  <hbond:PHE:134>  (13) 
hbond:PHE:134    NaN
hbond:PHE:134     -1
Name: 12, dtype: object

>  <pistack:PHE:134>  (13) 
pistack:PHE:134    NaN
pistack:PHE:134     -1
Name: 12, dtype: object

>  <pication:PHE:134>  (13) 
pication:PHE:134    NaN
pication:PHE:134     -1
Name: 12, dtype: object

>  <halogenbond:PHE:134>  (13) 
halogenbond:PHE:134    NaN
halogenbond:PHE:134     -1
Name: 12, dtype: object

>  <hydroph_interaction:ALA:135>  (13) 
hydroph_interaction:ALA:135    NaN
hydroph_interaction:ALA:135     -1
Name: 12, dtype: object

>  <hbond:ALA:135>  (13) 
hbond:ALA:135    NaN
hbond:ALA:135     -1
Name: 12, dtype: object

$$$$
PV_002136014710
     RDKit          3D

 28 28  0  0  0  0  0  0  0  0999 V2000
   11.9780   14.4710   21.1220 C   0  0  0  0  0  0  0  0  0  0  0  0
   10.6680   15.0430   21.3360 N   0  0  0  0  0  0  0  0  0  0  0  0
    9.6420   14.3220   21.9540 C   0  0  0  0  0  0  0  0  0  0  0  0
    8.5510   14.1560   21.4170 O   0  0  0  0  0  0  0  0  0  0  0  0
    9.9410   13.8600   23.2420 C   0  0  0  0  0  0  0  0  0  0  0  0
    9.4150   12.4880   23.6370 C   0  0  0  0  0  0  0  0  0  0  0  0
    9.9740   11.4280   22.9890 C   0  0  0  0  0  0  0  0  0  0  0  0
    9.5450   10.0560   23.3000 C   0  0  0  0  0  0  0  0  0  0  0  0
   10.1180    8.9890   22.6320 C   0  0  0  0  0  0  0  0  0  0  0  0
    8.5690    9.8900   24.2580 C   0  0  0  0  0  0  0  0  0  0  0  0
    8.0040   10.9810   24.9130 C   0  0  0  0  0  0  0  0  0  0  0  0
    8.4140   12.2840   24.6150 C   0  0  0  0  0  0  0  0  0  0  0  0
    7.7540   13.4070   25.3680 C   0  0  0  0  0  0  0  0  0  0  0  0
   12.7680   15.1480   21.4680 H   0  0  0  0  0  0  0  0  0  0  0  0
   12.0640   13.5200   21.6550 H   0  0  0  0  0  0  0  0  0  0  0  0
   12.1260   14.2830   20.0530 H   0  0  0  0  0  0  0  0  0  0  0  0
   10.6050   16.0580   21.3970 H   0  0  0  0  0  0  0  0  0  0  0  0
   10.9510   14.0520   23.5900 H   0  0  0  0  0  0  0  0  0  0  0  0
    9.3390   14.5020   23.8910 H   0  0  0  0  0  0  0  0  0  0  0  0
   10.7410   11.5770   22.2370 H   0  0  0  0  0  0  0  0  0  0  0  0
    9.3350    8.3720   22.1880 H   0  0  0  0  0  0  0  0  0  0  0  0
   10.6720    8.3590   23.3290 H   0  0  0  0  0  0  0  0  0  0  0  0
   10.8160    9.2260   21.8360 H   0  0  0  0  0  0  0  0  0  0  0  0
    8.2420    8.9050   24.4950 H   0  0  0  0  0  0  0  0  0  0  0  0
    7.2340   10.7990   25.6600 H   0  0  0  0  0  0  0  0  0  0  0  0
    6.8500   13.7470   24.8500 H   0  0  0  0  0  0  0  0  0  0  0  0
    7.4960   13.0830   26.3800 H   0  0  0  0  0  0  0  0  0  0  0  0
    8.4130   14.2710   25.4520 H   0  0  0  0  0  0  0  0  0  0  0  0
  1  2  1  0
  2  3  1  0
  3  4  2  0
  3  5  1  0
  5  6  1  0
  6  7  2  0
  7  8  1  0
  8  9  1  0
  8 10  2  0
 10 11  1  0
 11 12  2  0
 12 13  1  0
 12  6  1  0
  1 14  1  0
  1 15  1  0
  1 16  1  0
  2 17  1  0
  5 18  1  0
  5 19  1  0
  7 20  1  0
  9 21  1  0
  9 22  1  0
  9 23  1  0
 10 24  1  0
 11 25  1  0
 13 26  1  0
 13 27  1  0
 13 28  1  0
A    1
 C1 
A    2
 N1 
A    3
 C2 
A    4
 O1 
A    5
 C3 
A    6
 C4 
A    7
 C5 
A    8
 C6 
A    9
 C7 
A   10
 C8 
A   11
 C9 
A   12
 C10
A   13
 C11
A   14
 H1 
A   15
 H2 
A   16
 H3 
A   17
 H4 
A   18
 H5 
A   19
 H6 
A   20
 H7 
A   21
 H8 
A   22
 H9 
A   23
 H10
A   24
 H11
A   25
 H12
A   26
 H13
A   27
 H14
A   28
 H15
M  END
>  <ref_pdb>  (14) 
x0310_0A

>  <ref_mols>  (14) 
x0416_0A,x0732_0A

>  <original SMILES>  (14) 
CNC(=O)Cc1cc(C)ccc1C

>  <rationale>  (14) 
info halogenbond:G127+D39+A86+E85+Q95+E106+E88+T126+P107+H104+Y64+C65+S87+N129+F83+R93+L131+I82+G128+P91+N19+H21+V84+G133+Y90+Y89+H97+L81+F134+L98+R20+G103+S66+S67+S7+G108+R38+V124+M99+S36; hbond:S87+G127+D39+G108+G103+G128+G130+L131+N129+N19+H104+R68+V124+R93+P91+F83+S67+S7+S66+G112+G133+V132+R20+Y89+S77+A135+Y63+A92+A101+M99+F134+L100+I82+Y64+S36+L98+V84+L81+Y94+S80+R38+S37+V102+G8+I123+G111+I113+L114+C65+L22+S96; hydroph_interaction:V124+P107+N129+L40+I123+A135+Q95+I82+L100+L98+L131+F83+R93+V132+Y63+F134+H104+R20+A86+V74+P91+A101+F76+M99+L114+A92+Y94+R68+Y72+Y64+V18+V102+W28+G127+G128+L81; pication:H104+R93+Y63+F134+Y90+R68+F83+R20; pistack:Y90+H104+F134+Y63+F83+Y94; saltbridge:D39+R93+H104+E106+D109+E88+R68+R20; 

>  <intxn_cluster>  (14) 
-1

>  <intxn_cluster_rank>  (14) 
-1

>  <N_interactions>  (14) 
5

>  <∆∆G>  (14) 
-10.225977

>  <$/mg>  (14) 
104.0

>  <comRMSD>  (14) 
0.809775

>  <N_rotatable_bonds>  (14) 
5

>  <deep_P1_sidechain>  (14) 
nan

>  <farthest_distance_to_substrate>  (14) 
2.326342

>  <hbond:SER:7>  (14) 
hbond:SER:7    NaN
hbond:SER:7     -1
Name: 13, dtype: object

>  <halogenbond:SER:7>  (14) 
halogenbond:SER:7    NaN
halogenbond:SER:7     -1
Name: 13, dtype: object

>  <hbond:GLY:8>  (14) 
hbond:GLY:8    NaN
hbond:GLY:8     -1
Name: 13, dtype: object

>  <hydroph_interaction:VAL:18>  (14) 
hydroph_interaction:VAL:18    NaN
hydroph_interaction:VAL:18     -1
Name: 13, dtype: object

>  <hbond:ASN:19>  (14) 
hbond:ASN:19    NaN
hbond:ASN:19     -1
Name: 13, dtype: object

>  <hydroph_interaction:ASN:19>  (14) 
hydroph_interaction:ASN:19    0.0
hydroph_interaction:ASN:19      0
Name: 13, dtype: object

>  <halogenbond:ASN:19>  (14) 
halogenbond:ASN:19    NaN
halogenbond:ASN:19     -1
Name: 13, dtype: object

>  <hbond:ARG:20>  (14) 
hbond:ARG:20    NaN
hbond:ARG:20     -1
Name: 13, dtype: object

>  <hydroph_interaction:ARG:20>  (14) 
hydroph_interaction:ARG:20    NaN
hydroph_interaction:ARG:20     -1
Name: 13, dtype: object

>  <saltbridge:ARG:20>  (14) 
saltbridge:ARG:20    NaN
saltbridge:ARG:20     -1
Name: 13, dtype: object

>  <halogenbond:ARG:20>  (14) 
halogenbond:ARG:20    NaN
halogenbond:ARG:20     -1
Name: 13, dtype: object

>  <pication:ARG:20>  (14) 
pication:ARG:20    NaN
pication:ARG:20     -1
Name: 13, dtype: object

>  <hbond:HIS:21>  (14) 
hbond:HIS:21    0.0
hbond:HIS:21      0
Name: 13, dtype: object

>  <hydroph_interaction:HIS:21>  (14) 
hydroph_interaction:HIS:21    0.0
hydroph_interaction:HIS:21      0
Name: 13, dtype: object

>  <pistack:HIS:21>  (14) 
pistack:HIS:21    0.0
pistack:HIS:21      0
Name: 13, dtype: object

>  <pication:HIS:21>  (14) 
pication:HIS:21    0.0
pication:HIS:21      0
Name: 13, dtype: object

>  <saltbridge:HIS:21>  (14) 
saltbridge:HIS:21    0.0
saltbridge:HIS:21      0
Name: 13, dtype: object

>  <halogenbond:HIS:21>  (14) 
halogenbond:HIS:21    NaN
halogenbond:HIS:21     -1
Name: 13, dtype: object

>  <hydroph_interaction:LEU:22>  (14) 
hydroph_interaction:LEU:22    0.0
hydroph_interaction:LEU:22      0
Name: 13, dtype: object

>  <hbond:LEU:22>  (14) 
hbond:LEU:22    NaN
hbond:LEU:22     -1
Name: 13, dtype: object

>  <hydroph_interaction:TRP:28>  (14) 
hydroph_interaction:TRP:28    NaN
hydroph_interaction:TRP:28     -1
Name: 13, dtype: object

>  <hbond:SER:36>  (14) 
hbond:SER:36    NaN
hbond:SER:36     -1
Name: 13, dtype: object

>  <halogenbond:SER:36>  (14) 
halogenbond:SER:36    NaN
halogenbond:SER:36     -1
Name: 13, dtype: object

>  <hbond:SER:37>  (14) 
hbond:SER:37    NaN
hbond:SER:37     -1
Name: 13, dtype: object

>  <hbond:ARG:38>  (14) 
hbond:ARG:38    NaN
hbond:ARG:38     -1
Name: 13, dtype: object

>  <halogenbond:ARG:38>  (14) 
halogenbond:ARG:38    NaN
halogenbond:ARG:38     -1
Name: 13, dtype: object

>  <saltbridge:ASP:39>  (14) 
saltbridge:ASP:39    NaN
saltbridge:ASP:39     -1
Name: 13, dtype: object

>  <halogenbond:ASP:39>  (14) 
halogenbond:ASP:39    NaN
halogenbond:ASP:39     -1
Name: 13, dtype: object

>  <hbond:ASP:39>  (14) 
hbond:ASP:39    NaN
hbond:ASP:39     -1
Name: 13, dtype: object

>  <hydroph_interaction:ASP:39>  (14) 
hydroph_interaction:ASP:39    0.0
hydroph_interaction:ASP:39      0
Name: 13, dtype: object

>  <hydroph_interaction:LEU:40>  (14) 
hydroph_interaction:LEU:40    NaN
hydroph_interaction:LEU:40     -1
Name: 13, dtype: object

>  <hydroph_interaction:TYR:63>  (14) 
hydroph_interaction:TYR:63    NaN
hydroph_interaction:TYR:63     -1
Name: 13, dtype: object

>  <hbond:TYR:63>  (14) 
hbond:TYR:63    NaN
hbond:TYR:63     -1
Name: 13, dtype: object

>  <pistack:TYR:63>  (14) 
pistack:TYR:63    NaN
pistack:TYR:63     -1
Name: 13, dtype: object

>  <pication:TYR:63>  (14) 
pication:TYR:63    NaN
pication:TYR:63     -1
Name: 13, dtype: object

>  <halogenbond:TYR:64>  (14) 
halogenbond:TYR:64    NaN
halogenbond:TYR:64     -1
Name: 13, dtype: object

>  <hbond:TYR:64>  (14) 
hbond:TYR:64    NaN
hbond:TYR:64     -1
Name: 13, dtype: object

>  <hydroph_interaction:TYR:64>  (14) 
hydroph_interaction:TYR:64    NaN
hydroph_interaction:TYR:64     -1
Name: 13, dtype: object

>  <halogenbond:CYS:65>  (14) 
halogenbond:CYS:65    NaN
halogenbond:CYS:65     -1
Name: 13, dtype: object

>  <hbond:CYS:65>  (14) 
hbond:CYS:65    NaN
hbond:CYS:65     -1
Name: 13, dtype: object

>  <hbond:SER:66>  (14) 
hbond:SER:66    NaN
hbond:SER:66     -1
Name: 13, dtype: object

>  <halogenbond:SER:66>  (14) 
halogenbond:SER:66    NaN
halogenbond:SER:66     -1
Name: 13, dtype: object

>  <hbond:SER:67>  (14) 
hbond:SER:67    NaN
hbond:SER:67     -1
Name: 13, dtype: object

>  <halogenbond:SER:67>  (14) 
halogenbond:SER:67    NaN
halogenbond:SER:67     -1
Name: 13, dtype: object

>  <hbond:ARG:68>  (14) 
hbond:ARG:68    NaN
hbond:ARG:68     -1
Name: 13, dtype: object

>  <saltbridge:ARG:68>  (14) 
saltbridge:ARG:68    NaN
saltbridge:ARG:68     -1
Name: 13, dtype: object

>  <hydroph_interaction:ARG:68>  (14) 
hydroph_interaction:ARG:68    NaN
hydroph_interaction:ARG:68     -1
Name: 13, dtype: object

>  <pication:ARG:68>  (14) 
pication:ARG:68    NaN
pication:ARG:68     -1
Name: 13, dtype: object

>  <hydroph_interaction:TYR:72>  (14) 
hydroph_interaction:TYR:72    NaN
hydroph_interaction:TYR:72     -1
Name: 13, dtype: object

>  <hydroph_interaction:VAL:74>  (14) 
hydroph_interaction:VAL:74    NaN
hydroph_interaction:VAL:74     -1
Name: 13, dtype: object

>  <hydroph_interaction:PHE:76>  (14) 
hydroph_interaction:PHE:76    NaN
hydroph_interaction:PHE:76     -1
Name: 13, dtype: object

>  <hbond:SER:77>  (14) 
hbond:SER:77    NaN
hbond:SER:77     -1
Name: 13, dtype: object

>  <hbond:SER:80>  (14) 
hbond:SER:80    NaN
hbond:SER:80     -1
Name: 13, dtype: object

>  <hbond:LEU:81>  (14) 
hbond:LEU:81    NaN
hbond:LEU:81     -1
Name: 13, dtype: object

>  <halogenbond:LEU:81>  (14) 
halogenbond:LEU:81    NaN
halogenbond:LEU:81     -1
Name: 13, dtype: object

>  <hydroph_interaction:LEU:81>  (14) 
hydroph_interaction:LEU:81    NaN
hydroph_interaction:LEU:81     -1
Name: 13, dtype: object

>  <hydroph_interaction:ILE:82>  (14) 
hydroph_interaction:ILE:82    NaN
hydroph_interaction:ILE:82     -1
Name: 13, dtype: object

>  <halogenbond:ILE:82>  (14) 
halogenbond:ILE:82    NaN
halogenbond:ILE:82     -1
Name: 13, dtype: object

>  <hbond:ILE:82>  (14) 
hbond:ILE:82    NaN
hbond:ILE:82     -1
Name: 13, dtype: object

>  <hbond:PHE:83>  (14) 
hbond:PHE:83    NaN
hbond:PHE:83     -1
Name: 13, dtype: object

>  <hydroph_interaction:PHE:83>  (14) 
hydroph_interaction:PHE:83    NaN
hydroph_interaction:PHE:83     -1
Name: 13, dtype: object

>  <halogenbond:PHE:83>  (14) 
halogenbond:PHE:83    NaN
halogenbond:PHE:83     -1
Name: 13, dtype: object

>  <pistack:PHE:83>  (14) 
pistack:PHE:83    NaN
pistack:PHE:83     -1
Name: 13, dtype: object

>  <pication:PHE:83>  (14) 
pication:PHE:83    NaN
pication:PHE:83     -1
Name: 13, dtype: object

>  <hydroph_interaction:VAL:84>  (14) 
hydroph_interaction:VAL:84    0.0
hydroph_interaction:VAL:84      0
Name: 13, dtype: object

>  <halogenbond:VAL:84>  (14) 
halogenbond:VAL:84    NaN
halogenbond:VAL:84     -1
Name: 13, dtype: object

>  <hbond:VAL:84>  (14) 
hbond:VAL:84    NaN
hbond:VAL:84     -1
Name: 13, dtype: object

>  <hydroph_interaction:GLU:85>  (14) 
hydroph_interaction:GLU:85    0.0
hydroph_interaction:GLU:85      0
Name: 13, dtype: object

>  <hbond:GLU:85>  (14) 
hbond:GLU:85    0.0
hbond:GLU:85      0
Name: 13, dtype: object

>  <halogenbond:GLU:85>  (14) 
halogenbond:GLU:85    NaN
halogenbond:GLU:85     -1
Name: 13, dtype: object

>  <saltbridge:GLU:85>  (14) 
saltbridge:GLU:85    0.0
saltbridge:GLU:85      0
Name: 13, dtype: object

>  <halogenbond:ALA:86>  (14) 
halogenbond:ALA:86    NaN
halogenbond:ALA:86     -1
Name: 13, dtype: object

>  <hbond:ALA:86>  (14) 
hbond:ALA:86    0.0
hbond:ALA:86      0
Name: 13, dtype: object

>  <hydroph_interaction:ALA:86>  (14) 
hydroph_interaction:ALA:86    NaN
hydroph_interaction:ALA:86     -1
Name: 13, dtype: object

>  <hbond:SER:87>  (14) 
hbond:SER:87    2
hbond:SER:87    2
Name: 13, dtype: object

>  <halogenbond:SER:87>  (14) 
halogenbond:SER:87    NaN
halogenbond:SER:87     -1
Name: 13, dtype: object

>  <hbond:GLU:88>  (14) 
hbond:GLU:88    0.0
hbond:GLU:88      0
Name: 13, dtype: object

>  <hydroph_interaction:GLU:88>  (14) 
hydroph_interaction:GLU:88    0.0
hydroph_interaction:GLU:88      0
Name: 13, dtype: object

>  <halogenbond:GLU:88>  (14) 
halogenbond:GLU:88    NaN
halogenbond:GLU:88     -1
Name: 13, dtype: object

>  <saltbridge:GLU:88>  (14) 
saltbridge:GLU:88    NaN
saltbridge:GLU:88     -1
Name: 13, dtype: object

>  <hydroph_interaction:TYR:89>  (14) 
hydroph_interaction:TYR:89    0.0
hydroph_interaction:TYR:89      0
Name: 13, dtype: object

>  <pistack:TYR:89>  (14) 
pistack:TYR:89    0.0
pistack:TYR:89      0
Name: 13, dtype: object

>  <hbond:TYR:89>  (14) 
hbond:TYR:89    NaN
hbond:TYR:89     -1
Name: 13, dtype: object

>  <halogenbond:TYR:89>  (14) 
halogenbond:TYR:89    NaN
halogenbond:TYR:89     -1
Name: 13, dtype: object

>  <hydroph_interaction:TYR:90>  (14) 
hydroph_interaction:TYR:90    0.0
hydroph_interaction:TYR:90      0
Name: 13, dtype: object

>  <hbond:TYR:90>  (14) 
hbond:TYR:90    0.0
hbond:TYR:90      0
Name: 13, dtype: object

>  <pistack:TYR:90>  (14) 
pistack:TYR:90    NaN
pistack:TYR:90     -1
Name: 13, dtype: object

>  <halogenbond:TYR:90>  (14) 
halogenbond:TYR:90    NaN
halogenbond:TYR:90     -1
Name: 13, dtype: object

>  <pication:TYR:90>  (14) 
pication:TYR:90    NaN
pication:TYR:90     -1
Name: 13, dtype: object

>  <hbond:PRO:91>  (14) 
hbond:PRO:91    NaN
hbond:PRO:91     -1
Name: 13, dtype: object

>  <hydroph_interaction:PRO:91>  (14) 
hydroph_interaction:PRO:91    NaN
hydroph_interaction:PRO:91     -1
Name: 13, dtype: object

>  <halogenbond:PRO:91>  (14) 
halogenbond:PRO:91    NaN
halogenbond:PRO:91     -1
Name: 13, dtype: object

>  <hbond:ALA:92>  (14) 
hbond:ALA:92    NaN
hbond:ALA:92     -1
Name: 13, dtype: object

>  <hydroph_interaction:ALA:92>  (14) 
hydroph_interaction:ALA:92    NaN
hydroph_interaction:ALA:92     -1
Name: 13, dtype: object

>  <saltbridge:ARG:93>  (14) 
saltbridge:ARG:93    NaN
saltbridge:ARG:93     -1
Name: 13, dtype: object

>  <hbond:ARG:93>  (14) 
hbond:ARG:93    NaN
hbond:ARG:93     -1
Name: 13, dtype: object

>  <hydroph_interaction:ARG:93>  (14) 
hydroph_interaction:ARG:93    NaN
hydroph_interaction:ARG:93     -1
Name: 13, dtype: object

>  <halogenbond:ARG:93>  (14) 
halogenbond:ARG:93    NaN
halogenbond:ARG:93     -1
Name: 13, dtype: object

>  <pication:ARG:93>  (14) 
pication:ARG:93    NaN
pication:ARG:93     -1
Name: 13, dtype: object

>  <hydroph_interaction:TYR:94>  (14) 
hydroph_interaction:TYR:94    NaN
hydroph_interaction:TYR:94     -1
Name: 13, dtype: object

>  <pistack:TYR:94>  (14) 
pistack:TYR:94    NaN
pistack:TYR:94     -1
Name: 13, dtype: object

>  <hbond:TYR:94>  (14) 
hbond:TYR:94    NaN
hbond:TYR:94     -1
Name: 13, dtype: object

>  <hbond:GLN:95>  (14) 
hbond:GLN:95    0.0
hbond:GLN:95      0
Name: 13, dtype: object

>  <hydroph_interaction:GLN:95>  (14) 
hydroph_interaction:GLN:95    NaN
hydroph_interaction:GLN:95     -1
Name: 13, dtype: object

>  <halogenbond:GLN:95>  (14) 
halogenbond:GLN:95    NaN
halogenbond:GLN:95     -1
Name: 13, dtype: object

>  <hbond:SER:96>  (14) 
hbond:SER:96    NaN
hbond:SER:96     -1
Name: 13, dtype: object

>  <halogenbond:HIS:97>  (14) 
halogenbond:HIS:97    NaN
halogenbond:HIS:97     -1
Name: 13, dtype: object

>  <hydroph_interaction:LEU:98>  (14) 
hydroph_interaction:LEU:98    NaN
hydroph_interaction:LEU:98     -1
Name: 13, dtype: object

>  <hbond:LEU:98>  (14) 
hbond:LEU:98    NaN
hbond:LEU:98     -1
Name: 13, dtype: object

>  <halogenbond:LEU:98>  (14) 
halogenbond:LEU:98    NaN
halogenbond:LEU:98     -1
Name: 13, dtype: object

>  <hbond:MET:99>  (14) 
hbond:MET:99    NaN
hbond:MET:99     -1
Name: 13, dtype: object

>  <hydroph_interaction:MET:99>  (14) 
hydroph_interaction:MET:99    NaN
hydroph_interaction:MET:99     -1
Name: 13, dtype: object

>  <halogenbond:MET:99>  (14) 
halogenbond:MET:99    NaN
halogenbond:MET:99     -1
Name: 13, dtype: object

>  <hydroph_interaction:LEU:100>  (14) 
hydroph_interaction:LEU:100    NaN
hydroph_interaction:LEU:100     -1
Name: 13, dtype: object

>  <hbond:LEU:100>  (14) 
hbond:LEU:100    NaN
hbond:LEU:100     -1
Name: 13, dtype: object

>  <hbond:ALA:101>  (14) 
hbond:ALA:101    NaN
hbond:ALA:101     -1
Name: 13, dtype: object

>  <hydroph_interaction:ALA:101>  (14) 
hydroph_interaction:ALA:101    NaN
hydroph_interaction:ALA:101     -1
Name: 13, dtype: object

>  <hydroph_interaction:VAL:102>  (14) 
hydroph_interaction:VAL:102    NaN
hydroph_interaction:VAL:102     -1
Name: 13, dtype: object

>  <hbond:VAL:102>  (14) 
hbond:VAL:102    NaN
hbond:VAL:102     -1
Name: 13, dtype: object

>  <hbond:GLY:103>  (14) 
hbond:GLY:103    NaN
hbond:GLY:103     -1
Name: 13, dtype: object

>  <halogenbond:GLY:103>  (14) 
halogenbond:GLY:103    NaN
halogenbond:GLY:103     -1
Name: 13, dtype: object

>  <hbond:HIS:104>  (14) 
hbond:HIS:104    NaN
hbond:HIS:104     -1
Name: 13, dtype: object

>  <saltbridge:HIS:104>  (14) 
saltbridge:HIS:104    NaN
saltbridge:HIS:104     -1
Name: 13, dtype: object

>  <pication:HIS:104>  (14) 
pication:HIS:104    NaN
pication:HIS:104     -1
Name: 13, dtype: object

>  <halogenbond:HIS:104>  (14) 
halogenbond:HIS:104    NaN
halogenbond:HIS:104     -1
Name: 13, dtype: object

>  <hydroph_interaction:HIS:104>  (14) 
hydroph_interaction:HIS:104    NaN
hydroph_interaction:HIS:104     -1
Name: 13, dtype: object

>  <pistack:HIS:104>  (14) 
pistack:HIS:104    NaN
pistack:HIS:104     -1
Name: 13, dtype: object

>  <halogenbond:SER:105>  (14) 
halogenbond:SER:105    0.0
halogenbond:SER:105      0
Name: 13, dtype: object

>  <hbond:SER:105>  (14) 
hbond:SER:105    0.0
hbond:SER:105      0
Name: 13, dtype: object

>  <hbond:GLU:106>  (14) 
hbond:GLU:106    0.0
hbond:GLU:106      0
Name: 13, dtype: object

>  <hydroph_interaction:GLU:106>  (14) 
hydroph_interaction:GLU:106    0.0
hydroph_interaction:GLU:106      0
Name: 13, dtype: object

>  <saltbridge:GLU:106>  (14) 
saltbridge:GLU:106    NaN
saltbridge:GLU:106     -1
Name: 13, dtype: object

>  <halogenbond:GLU:106>  (14) 
halogenbond:GLU:106    NaN
halogenbond:GLU:106     -1
Name: 13, dtype: object

>  <hydroph_interaction:PRO:107>  (14) 
hydroph_interaction:PRO:107    1
hydroph_interaction:PRO:107    1
Name: 13, dtype: object

>  <hbond:PRO:107>  (14) 
hbond:PRO:107    0.0
hbond:PRO:107      0
Name: 13, dtype: object

>  <halogenbond:PRO:107>  (14) 
halogenbond:PRO:107    NaN
halogenbond:PRO:107     -1
Name: 13, dtype: object

>  <hbond:GLY:108>  (14) 
hbond:GLY:108    NaN
hbond:GLY:108     -1
Name: 13, dtype: object

>  <halogenbond:GLY:108>  (14) 
halogenbond:GLY:108    NaN
halogenbond:GLY:108     -1
Name: 13, dtype: object

>  <hbond:ASP:109>  (14) 
hbond:ASP:109    0.0
hbond:ASP:109      0
Name: 13, dtype: object

>  <hydroph_interaction:ASP:109>  (14) 
hydroph_interaction:ASP:109    0.0
hydroph_interaction:ASP:109      0
Name: 13, dtype: object

>  <saltbridge:ASP:109>  (14) 
saltbridge:ASP:109    NaN
saltbridge:ASP:109     -1
Name: 13, dtype: object

>  <halogenbond:CYS:110>  (14) 
halogenbond:CYS:110    0.0
halogenbond:CYS:110      0
Name: 13, dtype: object

>  <hbond:CYS:110>  (14) 
hbond:CYS:110    0.0
hbond:CYS:110      0
Name: 13, dtype: object

>  <hbond:GLY:111>  (14) 
hbond:GLY:111    NaN
hbond:GLY:111     -1
Name: 13, dtype: object

>  <hbond:GLY:112>  (14) 
hbond:GLY:112    NaN
hbond:GLY:112     -1
Name: 13, dtype: object

>  <hbond:ILE:113>  (14) 
hbond:ILE:113    NaN
hbond:ILE:113     -1
Name: 13, dtype: object

>  <hydroph_interaction:LEU:114>  (14) 
hydroph_interaction:LEU:114    NaN
hydroph_interaction:LEU:114     -1
Name: 13, dtype: object

>  <hbond:LEU:114>  (14) 
hbond:LEU:114    NaN
hbond:LEU:114     -1
Name: 13, dtype: object

>  <hydroph_interaction:ILE:123>  (14) 
hydroph_interaction:ILE:123    NaN
hydroph_interaction:ILE:123     -1
Name: 13, dtype: object

>  <hbond:ILE:123>  (14) 
hbond:ILE:123    NaN
hbond:ILE:123     -1
Name: 13, dtype: object

>  <hydroph_interaction:VAL:124>  (14) 
hydroph_interaction:VAL:124    1.0
hydroph_interaction:VAL:124      1
Name: 13, dtype: object

>  <hbond:VAL:124>  (14) 
hbond:VAL:124    NaN
hbond:VAL:124     -1
Name: 13, dtype: object

>  <halogenbond:VAL:124>  (14) 
halogenbond:VAL:124    NaN
halogenbond:VAL:124     -1
Name: 13, dtype: object

>  <hbond:SER:125>  (14) 
hbond:SER:125    0
hbond:SER:125    0
Name: 13, dtype: object

>  <halogenbond:SER:125>  (14) 
halogenbond:SER:125    0.0
halogenbond:SER:125      0
Name: 13, dtype: object

>  <hydroph_interaction:THR:126>  (14) 
hydroph_interaction:THR:126    0.0
hydroph_interaction:THR:126      0
Name: 13, dtype: object

>  <hbond:THR:126>  (14) 
hbond:THR:126    0.0
hbond:THR:126      0
Name: 13, dtype: object

>  <halogenbond:THR:126>  (14) 
halogenbond:THR:126    NaN
halogenbond:THR:126     -1
Name: 13, dtype: object

>  <hbond:GLY:127>  (14) 
hbond:GLY:127    1
hbond:GLY:127    1
Name: 13, dtype: object

>  <halogenbond:GLY:127>  (14) 
halogenbond:GLY:127    NaN
halogenbond:GLY:127     -1
Name: 13, dtype: object

>  <hydroph_interaction:GLY:127>  (14) 
hydroph_interaction:GLY:127    NaN
hydroph_interaction:GLY:127     -1
Name: 13, dtype: object

>  <hbond:GLY:128>  (14) 
hbond:GLY:128    NaN
hbond:GLY:128     -1
Name: 13, dtype: object

>  <halogenbond:GLY:128>  (14) 
halogenbond:GLY:128    NaN
halogenbond:GLY:128     -1
Name: 13, dtype: object

>  <hydroph_interaction:GLY:128>  (14) 
hydroph_interaction:GLY:128    NaN
hydroph_interaction:GLY:128     -1
Name: 13, dtype: object

>  <hbond:ASN:129>  (14) 
hbond:ASN:129    NaN
hbond:ASN:129     -1
Name: 13, dtype: object

>  <hydroph_interaction:ASN:129>  (14) 
hydroph_interaction:ASN:129    NaN
hydroph_interaction:ASN:129     -1
Name: 13, dtype: object

>  <halogenbond:ASN:129>  (14) 
halogenbond:ASN:129    NaN
halogenbond:ASN:129     -1
Name: 13, dtype: object

>  <hbond:GLY:130>  (14) 
hbond:GLY:130    NaN
hbond:GLY:130     -1
Name: 13, dtype: object

>  <hbond:LEU:131>  (14) 
hbond:LEU:131    NaN
hbond:LEU:131     -1
Name: 13, dtype: object

>  <hydroph_interaction:LEU:131>  (14) 
hydroph_interaction:LEU:131    NaN
hydroph_interaction:LEU:131     -1
Name: 13, dtype: object

>  <halogenbond:LEU:131>  (14) 
halogenbond:LEU:131    NaN
halogenbond:LEU:131     -1
Name: 13, dtype: object

>  <hydroph_interaction:VAL:132>  (14) 
hydroph_interaction:VAL:132    NaN
hydroph_interaction:VAL:132     -1
Name: 13, dtype: object

>  <hbond:VAL:132>  (14) 
hbond:VAL:132    NaN
hbond:VAL:132     -1
Name: 13, dtype: object

>  <hbond:GLY:133>  (14) 
hbond:GLY:133    NaN
hbond:GLY:133     -1
Name: 13, dtype: object

>  <halogenbond:GLY:133>  (14) 
halogenbond:GLY:133    NaN
halogenbond:GLY:133     -1
Name: 13, dtype: object

>  <hydroph_interaction:PHE:134>  (14) 
hydroph_interaction:PHE:134    NaN
hydroph_interaction:PHE:134     -1
Name: 13, dtype: object

>  <hbond:PHE:134>  (14) 
hbond:PHE:134    NaN
hbond:PHE:134     -1
Name: 13, dtype: object

>  <pistack:PHE:134>  (14) 
pistack:PHE:134    NaN
pistack:PHE:134     -1
Name: 13, dtype: object

>  <pication:PHE:134>  (14) 
pication:PHE:134    NaN
pication:PHE:134     -1
Name: 13, dtype: object

>  <halogenbond:PHE:134>  (14) 
halogenbond:PHE:134    NaN
halogenbond:PHE:134     -1
Name: 13, dtype: object

>  <hydroph_interaction:ALA:135>  (14) 
hydroph_interaction:ALA:135    NaN
hydroph_interaction:ALA:135     -1
Name: 13, dtype: object

>  <hbond:ALA:135>  (14) 
hbond:ALA:135    NaN
hbond:ALA:135     -1
Name: 13, dtype: object

$$$$
PV_003066919920
     RDKit          3D

 43 45  0  0  0  0  0  0  0  0999 V2000
   13.5620   16.0530   19.4850 C   0  0  0  0  0  0  0  0  0  0  0  0
   12.6030   16.8010   20.3530 C   0  0  0  0  0  0  0  0  0  0  0  0
   12.1840   16.1620   21.5120 C   0  0  0  0  0  0  0  0  0  0  0  0
   13.0290   15.3820   22.2990 C   0  0  0  0  0  0  0  0  0  0  0  0
   12.6430   14.0750   22.5160 C   0  0  0  0  0  0  0  0  0  0  0  0
   11.2340   14.0580   22.1300 N   0  0  0  0  0  0  0  0  0  0  0  0
   10.3840   14.0930   23.3050 C   0  0  0  0  0  0  0  0  0  0  0  0
    9.7980   12.7950   23.5660 C   0  0  0  0  0  0  0  0  0  0  0  0
   10.2850   11.5930   22.8910 C   0  0  0  0  0  0  0  0  0  0  0  0
    9.5320   10.5860   23.3570 N   0  0  0  0  0  0  0  0  0  0  0  0
    9.7010    9.2250   22.9330 C   0  0  0  0  0  0  0  0  0  0  0  0
    8.5980   11.0690   24.2760 C   0  0  0  0  0  0  0  0  0  0  0  0
    7.5400   10.3810   25.0670 C   0  0  0  0  0  0  0  0  0  0  0  0
    6.7330   11.1300   25.9190 C   0  0  0  0  0  0  0  0  0  0  0  0
    6.9120   12.5170   26.0320 C   0  0  0  0  0  0  0  0  0  0  0  0
    7.9050   13.1510   25.2880 C   0  0  0  0  0  0  0  0  0  0  0  0
    8.7500   12.4380   24.4130 C   0  0  0  0  0  0  0  0  0  0  0  0
   10.9940   15.2330   21.2850 C   0  0  0  0  0  0  0  0  0  0  0  0
   10.7570   14.8480   19.8600 C   0  0  0  0  0  0  0  0  0  0  0  0
   13.8970   15.1460   19.9860 H   0  0  0  0  0  0  0  0  0  0  0  0
   14.3980   16.6940   19.1950 H   0  0  0  0  0  0  0  0  0  0  0  0
   13.0610   15.7350   18.5660 H   0  0  0  0  0  0  0  0  0  0  0  0
   11.6850   17.0030   19.8050 H   0  0  0  0  0  0  0  0  0  0  0  0
   13.0110   17.7790   20.5850 H   0  0  0  0  0  0  0  0  0  0  0  0
   11.8380   16.9740   22.1660 H   0  0  0  0  0  0  0  0  0  0  0  0
   14.0190   15.3650   21.8440 H   0  0  0  0  0  0  0  0  0  0  0  0
   13.1510   15.8590   23.2680 H   0  0  0  0  0  0  0  0  0  0  0  0
   12.7920   13.8110   23.5730 H   0  0  0  0  0  0  0  0  0  0  0  0
   13.2240   13.3900   21.9000 H   0  0  0  0  0  0  0  0  0  0  0  0
   10.9510   14.4020   24.1940 H   0  0  0  0  0  0  0  0  0  0  0  0
    9.5720   14.7860   23.1710 H   0  0  0  0  0  0  0  0  0  0  0  0
   11.0640   11.4570   22.1700 H   0  0  0  0  0  0  0  0  0  0  0  0
    8.7630    8.7240   23.1140 H   0  0  0  0  0  0  0  0  0  0  0  0
   10.5070    8.7480   23.4870 H   0  0  0  0  0  0  0  0  0  0  0  0
    9.9490    9.2210   21.8660 H   0  0  0  0  0  0  0  0  0  0  0  0
    7.4130    9.3320   24.9650 H   0  0  0  0  0  0  0  0  0  0  0  0
    5.9590   10.6300   26.4960 H   0  0  0  0  0  0  0  0  0  0  0  0
    6.2790   13.0990   26.6960 H   0  0  0  0  0  0  0  0  0  0  0  0
    7.9740   14.2350   25.4370 H   0  0  0  0  0  0  0  0  0  0  0  0
   10.0930   15.7180   21.5550 H   0  0  0  0  0  0  0  0  0  0  0  0
   11.6600   14.4580   19.3750 H   0  0  0  0  0  0  0  0  0  0  0  0
   10.0050   14.0720   19.8240 H   0  0  0  0  0  0  0  0  0  0  0  0
   10.3720   15.6860   19.2700 H   0  0  0  0  0  0  0  0  0  0  0  0
  1  2  1  0
  2  3  1  0
  3  4  1  0
  4  5  1  0
  5  6  1  0
  6  7  1  0
  7  8  1  0
  8  9  2  0
  9 10  1  0
 10 11  1  0
 10 12  1  0
 12 13  2  0
 13 14  1  0
 14 15  2  0
 15 16  1  0
 16 17  2  0
  6 18  1  0
 18 19  1  0
 18  3  1  0
 17  8  1  0
 17 12  1  0
  1 20  1  0
  1 21  1  0
  1 22  1  0
  2 23  1  0
  2 24  1  0
  3 25  1  0
  4 26  1  0
  4 27  1  0
  5 28  1  0
  5 29  1  0
  7 30  1  0
  7 31  1  0
  9 32  1  0
 11 33  1  0
 11 34  1  0
 11 35  1  0
 13 36  1  0
 14 37  1  0
 15 38  1  0
 16 39  1  0
 18 40  1  0
 19 41  1  0
 19 42  1  0
 19 43  1  0
A    1
 C1 
A    2
 C2 
A    3
 C3 
A    4
 C4 
A    5
 C5 
A    6
 N1 
A    7
 C6 
A    8
 C7 
A    9
 C8 
A   10
 N2 
A   11
 C9 
A   12
 C10
A   13
 C11
A   14
 C12
A   15
 C13
A   16
 C14
A   17
 C15
A   18
 C16
A   19
 C17
A   20
 H1 
A   21
 H2 
A   22
 H3 
A   23
 H4 
A   24
 H5 
A   25
 H6 
A   26
 H7 
A   27
 H8 
A   28
 H9 
A   29
 H10
A   30
 H11
A   31
 H12
A   32
 H13
A   33
 H14
A   34
 H15
A   35
 H16
A   36
 H17
A   37
 H18
A   38
 H19
A   39
 H20
A   40
 H21
A   41
 H22
A   42
 H23
A   43
 H24
M  END
>  <ref_pdb>  (15) 
x0310_0A

>  <ref_mols>  (15) 
x0451_0A,x0528_0A

>  <original SMILES>  (15) 
CCC1CCN(Cc2cn(C)c3ccccc23)C1C

>  <rationale>  (15) 
info halogenbond:G127+D39+A86+E85+E106+E88+T126+H104+Y64+C65+S87+N129+F83+R93+L131+I82+G128+P91+N19+H21+V84+G133+Y90+Y89+H97+L81+F134+L98+R20+G103+S66+S67+S7+G108+R38+V124+M99+S36; hbond:S87+A86+E85+G108+G103+G128+G130+L131+N129+N19+H104+R68+V124+R93+P91+F83+S67+S7+S66+G112+G133+V132+R20+Y89+S77+A135+Y63+A92+A101+M99+F134+L100+I82+Y64+S36+L98+V84+L81+Y94+S80+R38+S37+V102+G8+I123+G111+I113+L114+C65+L22+S96; hydroph_interaction:Y90+Y89+T126+H21+P107+L22+E106+N129+D39+N19+L40+I123+A135+Q95+I82+L100+L98+L131+F83+R93+F134+H104+R20+A86+V74+P91+A101+F76+M99+L114+A92+Y94+R68+Y72+Y64+V18+V102+W28+G127+G128+L81; pication:H104+R93+Y63+F134+Y90+R68+F83+R20; pistack:Y89+Y90+H104+F134+Y63+F83+Y94; saltbridge:R93+H104+E106+D109+E85+E88+R68+R20; 

>  <intxn_cluster>  (15) 
-1

>  <intxn_cluster_rank>  (15) 
-1

>  <N_interactions>  (15) 
6

>  <∆∆G>  (15) 
-10.303621

>  <$/mg>  (15) 
0.0

>  <comRMSD>  (15) 
0.689247

>  <N_rotatable_bonds>  (15) 
6

>  <deep_P1_sidechain>  (15) 
nan

>  <farthest_distance_to_substrate>  (15) 
2.791506

>  <hbond:SER:7>  (15) 
hbond:SER:7    NaN
hbond:SER:7     -1
Name: 14, dtype: object

>  <halogenbond:SER:7>  (15) 
halogenbond:SER:7    NaN
halogenbond:SER:7     -1
Name: 14, dtype: object

>  <hbond:GLY:8>  (15) 
hbond:GLY:8    NaN
hbond:GLY:8     -1
Name: 14, dtype: object

>  <hydroph_interaction:VAL:18>  (15) 
hydroph_interaction:VAL:18    NaN
hydroph_interaction:VAL:18     -1
Name: 14, dtype: object

>  <hbond:ASN:19>  (15) 
hbond:ASN:19    NaN
hbond:ASN:19     -1
Name: 14, dtype: object

>  <hydroph_interaction:ASN:19>  (15) 
hydroph_interaction:ASN:19    NaN
hydroph_interaction:ASN:19     -1
Name: 14, dtype: object

>  <halogenbond:ASN:19>  (15) 
halogenbond:ASN:19    NaN
halogenbond:ASN:19     -1
Name: 14, dtype: object

>  <hbond:ARG:20>  (15) 
hbond:ARG:20    NaN
hbond:ARG:20     -1
Name: 14, dtype: object

>  <hydroph_interaction:ARG:20>  (15) 
hydroph_interaction:ARG:20    NaN
hydroph_interaction:ARG:20     -1
Name: 14, dtype: object

>  <saltbridge:ARG:20>  (15) 
saltbridge:ARG:20    NaN
saltbridge:ARG:20     -1
Name: 14, dtype: object

>  <halogenbond:ARG:20>  (15) 
halogenbond:ARG:20    NaN
halogenbond:ARG:20     -1
Name: 14, dtype: object

>  <pication:ARG:20>  (15) 
pication:ARG:20    NaN
pication:ARG:20     -1
Name: 14, dtype: object

>  <hbond:HIS:21>  (15) 
hbond:HIS:21    0.0
hbond:HIS:21      0
Name: 14, dtype: object

>  <hydroph_interaction:HIS:21>  (15) 
hydroph_interaction:HIS:21    1.0
hydroph_interaction:HIS:21      1
Name: 14, dtype: object

>  <pistack:HIS:21>  (15) 
pistack:HIS:21    0.0
pistack:HIS:21      0
Name: 14, dtype: object

>  <pication:HIS:21>  (15) 
pication:HIS:21    0.0
pication:HIS:21      0
Name: 14, dtype: object

>  <saltbridge:HIS:21>  (15) 
saltbridge:HIS:21    0.0
saltbridge:HIS:21      0
Name: 14, dtype: object

>  <halogenbond:HIS:21>  (15) 
halogenbond:HIS:21    NaN
halogenbond:HIS:21     -1
Name: 14, dtype: object

>  <hydroph_interaction:LEU:22>  (15) 
hydroph_interaction:LEU:22    NaN
hydroph_interaction:LEU:22     -1
Name: 14, dtype: object

>  <hbond:LEU:22>  (15) 
hbond:LEU:22    NaN
hbond:LEU:22     -1
Name: 14, dtype: object

>  <hydroph_interaction:TRP:28>  (15) 
hydroph_interaction:TRP:28    NaN
hydroph_interaction:TRP:28     -1
Name: 14, dtype: object

>  <hbond:SER:36>  (15) 
hbond:SER:36    NaN
hbond:SER:36     -1
Name: 14, dtype: object

>  <halogenbond:SER:36>  (15) 
halogenbond:SER:36    NaN
halogenbond:SER:36     -1
Name: 14, dtype: object

>  <hbond:SER:37>  (15) 
hbond:SER:37    NaN
hbond:SER:37     -1
Name: 14, dtype: object

>  <hbond:ARG:38>  (15) 
hbond:ARG:38    NaN
hbond:ARG:38     -1
Name: 14, dtype: object

>  <halogenbond:ARG:38>  (15) 
halogenbond:ARG:38    NaN
halogenbond:ARG:38     -1
Name: 14, dtype: object

>  <saltbridge:ASP:39>  (15) 
saltbridge:ASP:39    0.0
saltbridge:ASP:39      0
Name: 14, dtype: object

>  <halogenbond:ASP:39>  (15) 
halogenbond:ASP:39    NaN
halogenbond:ASP:39     -1
Name: 14, dtype: object

>  <hbond:ASP:39>  (15) 
hbond:ASP:39    0.0
hbond:ASP:39      0
Name: 14, dtype: object

>  <hydroph_interaction:ASP:39>  (15) 
hydroph_interaction:ASP:39    NaN
hydroph_interaction:ASP:39     -1
Name: 14, dtype: object

>  <hydroph_interaction:LEU:40>  (15) 
hydroph_interaction:LEU:40    NaN
hydroph_interaction:LEU:40     -1
Name: 14, dtype: object

>  <hydroph_interaction:TYR:63>  (15) 
hydroph_interaction:TYR:63    0.0
hydroph_interaction:TYR:63      0
Name: 14, dtype: object

>  <hbond:TYR:63>  (15) 
hbond:TYR:63    NaN
hbond:TYR:63     -1
Name: 14, dtype: object

>  <pistack:TYR:63>  (15) 
pistack:TYR:63    NaN
pistack:TYR:63     -1
Name: 14, dtype: object

>  <pication:TYR:63>  (15) 
pication:TYR:63    NaN
pication:TYR:63     -1
Name: 14, dtype: object

>  <halogenbond:TYR:64>  (15) 
halogenbond:TYR:64    NaN
halogenbond:TYR:64     -1
Name: 14, dtype: object

>  <hbond:TYR:64>  (15) 
hbond:TYR:64    NaN
hbond:TYR:64     -1
Name: 14, dtype: object

>  <hydroph_interaction:TYR:64>  (15) 
hydroph_interaction:TYR:64    NaN
hydroph_interaction:TYR:64     -1
Name: 14, dtype: object

>  <halogenbond:CYS:65>  (15) 
halogenbond:CYS:65    NaN
halogenbond:CYS:65     -1
Name: 14, dtype: object

>  <hbond:CYS:65>  (15) 
hbond:CYS:65    NaN
hbond:CYS:65     -1
Name: 14, dtype: object

>  <hbond:SER:66>  (15) 
hbond:SER:66    NaN
hbond:SER:66     -1
Name: 14, dtype: object

>  <halogenbond:SER:66>  (15) 
halogenbond:SER:66    NaN
halogenbond:SER:66     -1
Name: 14, dtype: object

>  <hbond:SER:67>  (15) 
hbond:SER:67    NaN
hbond:SER:67     -1
Name: 14, dtype: object

>  <halogenbond:SER:67>  (15) 
halogenbond:SER:67    NaN
halogenbond:SER:67     -1
Name: 14, dtype: object

>  <hbond:ARG:68>  (15) 
hbond:ARG:68    NaN
hbond:ARG:68     -1
Name: 14, dtype: object

>  <saltbridge:ARG:68>  (15) 
saltbridge:ARG:68    NaN
saltbridge:ARG:68     -1
Name: 14, dtype: object

>  <hydroph_interaction:ARG:68>  (15) 
hydroph_interaction:ARG:68    NaN
hydroph_interaction:ARG:68     -1
Name: 14, dtype: object

>  <pication:ARG:68>  (15) 
pication:ARG:68    NaN
pication:ARG:68     -1
Name: 14, dtype: object

>  <hydroph_interaction:TYR:72>  (15) 
hydroph_interaction:TYR:72    NaN
hydroph_interaction:TYR:72     -1
Name: 14, dtype: object

>  <hydroph_interaction:VAL:74>  (15) 
hydroph_interaction:VAL:74    NaN
hydroph_interaction:VAL:74     -1
Name: 14, dtype: object

>  <hydroph_interaction:PHE:76>  (15) 
hydroph_interaction:PHE:76    NaN
hydroph_interaction:PHE:76     -1
Name: 14, dtype: object

>  <hbond:SER:77>  (15) 
hbond:SER:77    NaN
hbond:SER:77     -1
Name: 14, dtype: object

>  <hbond:SER:80>  (15) 
hbond:SER:80    NaN
hbond:SER:80     -1
Name: 14, dtype: object

>  <hbond:LEU:81>  (15) 
hbond:LEU:81    NaN
hbond:LEU:81     -1
Name: 14, dtype: object

>  <halogenbond:LEU:81>  (15) 
halogenbond:LEU:81    NaN
halogenbond:LEU:81     -1
Name: 14, dtype: object

>  <hydroph_interaction:LEU:81>  (15) 
hydroph_interaction:LEU:81    NaN
hydroph_interaction:LEU:81     -1
Name: 14, dtype: object

>  <hydroph_interaction:ILE:82>  (15) 
hydroph_interaction:ILE:82    NaN
hydroph_interaction:ILE:82     -1
Name: 14, dtype: object

>  <halogenbond:ILE:82>  (15) 
halogenbond:ILE:82    NaN
halogenbond:ILE:82     -1
Name: 14, dtype: object

>  <hbond:ILE:82>  (15) 
hbond:ILE:82    NaN
hbond:ILE:82     -1
Name: 14, dtype: object

>  <hbond:PHE:83>  (15) 
hbond:PHE:83    NaN
hbond:PHE:83     -1
Name: 14, dtype: object

>  <hydroph_interaction:PHE:83>  (15) 
hydroph_interaction:PHE:83    NaN
hydroph_interaction:PHE:83     -1
Name: 14, dtype: object

>  <halogenbond:PHE:83>  (15) 
halogenbond:PHE:83    NaN
halogenbond:PHE:83     -1
Name: 14, dtype: object

>  <pistack:PHE:83>  (15) 
pistack:PHE:83    NaN
pistack:PHE:83     -1
Name: 14, dtype: object

>  <pication:PHE:83>  (15) 
pication:PHE:83    NaN
pication:PHE:83     -1
Name: 14, dtype: object

>  <hydroph_interaction:VAL:84>  (15) 
hydroph_interaction:VAL:84    0.0
hydroph_interaction:VAL:84      0
Name: 14, dtype: object

>  <halogenbond:VAL:84>  (15) 
halogenbond:VAL:84    NaN
halogenbond:VAL:84     -1
Name: 14, dtype: object

>  <hbond:VAL:84>  (15) 
hbond:VAL:84    NaN
hbond:VAL:84     -1
Name: 14, dtype: object

>  <hydroph_interaction:GLU:85>  (15) 
hydroph_interaction:GLU:85    0.0
hydroph_interaction:GLU:85      0
Name: 14, dtype: object

>  <hbond:GLU:85>  (15) 
hbond:GLU:85    NaN
hbond:GLU:85     -1
Name: 14, dtype: object

>  <halogenbond:GLU:85>  (15) 
halogenbond:GLU:85    NaN
halogenbond:GLU:85     -1
Name: 14, dtype: object

>  <saltbridge:GLU:85>  (15) 
saltbridge:GLU:85    NaN
saltbridge:GLU:85     -1
Name: 14, dtype: object

>  <halogenbond:ALA:86>  (15) 
halogenbond:ALA:86    NaN
halogenbond:ALA:86     -1
Name: 14, dtype: object

>  <hbond:ALA:86>  (15) 
hbond:ALA:86    NaN
hbond:ALA:86     -1
Name: 14, dtype: object

>  <hydroph_interaction:ALA:86>  (15) 
hydroph_interaction:ALA:86    NaN
hydroph_interaction:ALA:86     -1
Name: 14, dtype: object

>  <hbond:SER:87>  (15) 
hbond:SER:87    1
hbond:SER:87    1
Name: 14, dtype: object

>  <halogenbond:SER:87>  (15) 
halogenbond:SER:87    NaN
halogenbond:SER:87     -1
Name: 14, dtype: object

>  <hbond:GLU:88>  (15) 
hbond:GLU:88    0.0
hbond:GLU:88      0
Name: 14, dtype: object

>  <hydroph_interaction:GLU:88>  (15) 
hydroph_interaction:GLU:88    0.0
hydroph_interaction:GLU:88      0
Name: 14, dtype: object

>  <halogenbond:GLU:88>  (15) 
halogenbond:GLU:88    NaN
halogenbond:GLU:88     -1
Name: 14, dtype: object

>  <saltbridge:GLU:88>  (15) 
saltbridge:GLU:88    NaN
saltbridge:GLU:88     -1
Name: 14, dtype: object

>  <hydroph_interaction:TYR:89>  (15) 
hydroph_interaction:TYR:89    1.0
hydroph_interaction:TYR:89      1
Name: 14, dtype: object

>  <pistack:TYR:89>  (15) 
pistack:TYR:89    NaN
pistack:TYR:89     -1
Name: 14, dtype: object

>  <hbond:TYR:89>  (15) 
hbond:TYR:89    NaN
hbond:TYR:89     -1
Name: 14, dtype: object

>  <halogenbond:TYR:89>  (15) 
halogenbond:TYR:89    NaN
halogenbond:TYR:89     -1
Name: 14, dtype: object

>  <hydroph_interaction:TYR:90>  (15) 
hydroph_interaction:TYR:90    1.0
hydroph_interaction:TYR:90      1
Name: 14, dtype: object

>  <hbond:TYR:90>  (15) 
hbond:TYR:90    0.0
hbond:TYR:90      0
Name: 14, dtype: object

>  <pistack:TYR:90>  (15) 
pistack:TYR:90    NaN
pistack:TYR:90     -1
Name: 14, dtype: object

>  <halogenbond:TYR:90>  (15) 
halogenbond:TYR:90    NaN
halogenbond:TYR:90     -1
Name: 14, dtype: object

>  <pication:TYR:90>  (15) 
pication:TYR:90    NaN
pication:TYR:90     -1
Name: 14, dtype: object

>  <hbond:PRO:91>  (15) 
hbond:PRO:91    NaN
hbond:PRO:91     -1
Name: 14, dtype: object

>  <hydroph_interaction:PRO:91>  (15) 
hydroph_interaction:PRO:91    NaN
hydroph_interaction:PRO:91     -1
Name: 14, dtype: object

>  <halogenbond:PRO:91>  (15) 
halogenbond:PRO:91    NaN
halogenbond:PRO:91     -1
Name: 14, dtype: object

>  <hbond:ALA:92>  (15) 
hbond:ALA:92    NaN
hbond:ALA:92     -1
Name: 14, dtype: object

>  <hydroph_interaction:ALA:92>  (15) 
hydroph_interaction:ALA:92    NaN
hydroph_interaction:ALA:92     -1
Name: 14, dtype: object

>  <saltbridge:ARG:93>  (15) 
saltbridge:ARG:93    NaN
saltbridge:ARG:93     -1
Name: 14, dtype: object

>  <hbond:ARG:93>  (15) 
hbond:ARG:93    NaN
hbond:ARG:93     -1
Name: 14, dtype: object

>  <hydroph_interaction:ARG:93>  (15) 
hydroph_interaction:ARG:93    NaN
hydroph_interaction:ARG:93     -1
Name: 14, dtype: object

>  <halogenbond:ARG:93>  (15) 
halogenbond:ARG:93    NaN
halogenbond:ARG:93     -1
Name: 14, dtype: object

>  <pication:ARG:93>  (15) 
pication:ARG:93    NaN
pication:ARG:93     -1
Name: 14, dtype: object

>  <hydroph_interaction:TYR:94>  (15) 
hydroph_interaction:TYR:94    NaN
hydroph_interaction:TYR:94     -1
Name: 14, dtype: object

>  <pistack:TYR:94>  (15) 
pistack:TYR:94    NaN
pistack:TYR:94     -1
Name: 14, dtype: object

>  <hbond:TYR:94>  (15) 
hbond:TYR:94    NaN
hbond:TYR:94     -1
Name: 14, dtype: object

>  <hbond:GLN:95>  (15) 
hbond:GLN:95    0.0
hbond:GLN:95      0
Name: 14, dtype: object

>  <hydroph_interaction:GLN:95>  (15) 
hydroph_interaction:GLN:95    NaN
hydroph_interaction:GLN:95     -1
Name: 14, dtype: object

>  <halogenbond:GLN:95>  (15) 
halogenbond:GLN:95    0.0
halogenbond:GLN:95      0
Name: 14, dtype: object

>  <hbond:SER:96>  (15) 
hbond:SER:96    NaN
hbond:SER:96     -1
Name: 14, dtype: object

>  <halogenbond:HIS:97>  (15) 
halogenbond:HIS:97    NaN
halogenbond:HIS:97     -1
Name: 14, dtype: object

>  <hydroph_interaction:LEU:98>  (15) 
hydroph_interaction:LEU:98    NaN
hydroph_interaction:LEU:98     -1
Name: 14, dtype: object

>  <hbond:LEU:98>  (15) 
hbond:LEU:98    NaN
hbond:LEU:98     -1
Name: 14, dtype: object

>  <halogenbond:LEU:98>  (15) 
halogenbond:LEU:98    NaN
halogenbond:LEU:98     -1
Name: 14, dtype: object

>  <hbond:MET:99>  (15) 
hbond:MET:99    NaN
hbond:MET:99     -1
Name: 14, dtype: object

>  <hydroph_interaction:MET:99>  (15) 
hydroph_interaction:MET:99    NaN
hydroph_interaction:MET:99     -1
Name: 14, dtype: object

>  <halogenbond:MET:99>  (15) 
halogenbond:MET:99    NaN
halogenbond:MET:99     -1
Name: 14, dtype: object

>  <hydroph_interaction:LEU:100>  (15) 
hydroph_interaction:LEU:100    NaN
hydroph_interaction:LEU:100     -1
Name: 14, dtype: object

>  <hbond:LEU:100>  (15) 
hbond:LEU:100    NaN
hbond:LEU:100     -1
Name: 14, dtype: object

>  <hbond:ALA:101>  (15) 
hbond:ALA:101    NaN
hbond:ALA:101     -1
Name: 14, dtype: object

>  <hydroph_interaction:ALA:101>  (15) 
hydroph_interaction:ALA:101    NaN
hydroph_interaction:ALA:101     -1
Name: 14, dtype: object

>  <hydroph_interaction:VAL:102>  (15) 
hydroph_interaction:VAL:102    NaN
hydroph_interaction:VAL:102     -1
Name: 14, dtype: object

>  <hbond:VAL:102>  (15) 
hbond:VAL:102    NaN
hbond:VAL:102     -1
Name: 14, dtype: object

>  <hbond:GLY:103>  (15) 
hbond:GLY:103    NaN
hbond:GLY:103     -1
Name: 14, dtype: object

>  <halogenbond:GLY:103>  (15) 
halogenbond:GLY:103    NaN
halogenbond:GLY:103     -1
Name: 14, dtype: object

>  <hbond:HIS:104>  (15) 
hbond:HIS:104    NaN
hbond:HIS:104     -1
Name: 14, dtype: object

>  <saltbridge:HIS:104>  (15) 
saltbridge:HIS:104    NaN
saltbridge:HIS:104     -1
Name: 14, dtype: object

>  <pication:HIS:104>  (15) 
pication:HIS:104    NaN
pication:HIS:104     -1
Name: 14, dtype: object

>  <halogenbond:HIS:104>  (15) 
halogenbond:HIS:104    NaN
halogenbond:HIS:104     -1
Name: 14, dtype: object

>  <hydroph_interaction:HIS:104>  (15) 
hydroph_interaction:HIS:104    NaN
hydroph_interaction:HIS:104     -1
Name: 14, dtype: object

>  <pistack:HIS:104>  (15) 
pistack:HIS:104    NaN
pistack:HIS:104     -1
Name: 14, dtype: object

>  <halogenbond:SER:105>  (15) 
halogenbond:SER:105    0.0
halogenbond:SER:105      0
Name: 14, dtype: object

>  <hbond:SER:105>  (15) 
hbond:SER:105    0.0
hbond:SER:105      0
Name: 14, dtype: object

>  <hbond:GLU:106>  (15) 
hbond:GLU:106    0.0
hbond:GLU:106      0
Name: 14, dtype: object

>  <hydroph_interaction:GLU:106>  (15) 
hydroph_interaction:GLU:106    NaN
hydroph_interaction:GLU:106     -1
Name: 14, dtype: object

>  <saltbridge:GLU:106>  (15) 
saltbridge:GLU:106    NaN
saltbridge:GLU:106     -1
Name: 14, dtype: object

>  <halogenbond:GLU:106>  (15) 
halogenbond:GLU:106    NaN
halogenbond:GLU:106     -1
Name: 14, dtype: object

>  <hydroph_interaction:PRO:107>  (15) 
hydroph_interaction:PRO:107    1
hydroph_interaction:PRO:107    1
Name: 14, dtype: object

>  <hbond:PRO:107>  (15) 
hbond:PRO:107    0.0
hbond:PRO:107      0
Name: 14, dtype: object

>  <halogenbond:PRO:107>  (15) 
halogenbond:PRO:107    0.0
halogenbond:PRO:107      0
Name: 14, dtype: object

>  <hbond:GLY:108>  (15) 
hbond:GLY:108    NaN
hbond:GLY:108     -1
Name: 14, dtype: object

>  <halogenbond:GLY:108>  (15) 
halogenbond:GLY:108    NaN
halogenbond:GLY:108     -1
Name: 14, dtype: object

>  <hbond:ASP:109>  (15) 
hbond:ASP:109    0.0
hbond:ASP:109      0
Name: 14, dtype: object

>  <hydroph_interaction:ASP:109>  (15) 
hydroph_interaction:ASP:109    0.0
hydroph_interaction:ASP:109      0
Name: 14, dtype: object

>  <saltbridge:ASP:109>  (15) 
saltbridge:ASP:109    NaN
saltbridge:ASP:109     -1
Name: 14, dtype: object

>  <halogenbond:CYS:110>  (15) 
halogenbond:CYS:110    0.0
halogenbond:CYS:110      0
Name: 14, dtype: object

>  <hbond:CYS:110>  (15) 
hbond:CYS:110    0.0
hbond:CYS:110      0
Name: 14, dtype: object

>  <hbond:GLY:111>  (15) 
hbond:GLY:111    NaN
hbond:GLY:111     -1
Name: 14, dtype: object

>  <hbond:GLY:112>  (15) 
hbond:GLY:112    NaN
hbond:GLY:112     -1
Name: 14, dtype: object

>  <hbond:ILE:113>  (15) 
hbond:ILE:113    NaN
hbond:ILE:113     -1
Name: 14, dtype: object

>  <hydroph_interaction:LEU:114>  (15) 
hydroph_interaction:LEU:114    NaN
hydroph_interaction:LEU:114     -1
Name: 14, dtype: object

>  <hbond:LEU:114>  (15) 
hbond:LEU:114    NaN
hbond:LEU:114     -1
Name: 14, dtype: object

>  <hydroph_interaction:ILE:123>  (15) 
hydroph_interaction:ILE:123    NaN
hydroph_interaction:ILE:123     -1
Name: 14, dtype: object

>  <hbond:ILE:123>  (15) 
hbond:ILE:123    NaN
hbond:ILE:123     -1
Name: 14, dtype: object

>  <hydroph_interaction:VAL:124>  (15) 
hydroph_interaction:VAL:124    0.0
hydroph_interaction:VAL:124      0
Name: 14, dtype: object

>  <hbond:VAL:124>  (15) 
hbond:VAL:124    NaN
hbond:VAL:124     -1
Name: 14, dtype: object

>  <halogenbond:VAL:124>  (15) 
halogenbond:VAL:124    NaN
halogenbond:VAL:124     -1
Name: 14, dtype: object

>  <hbond:SER:125>  (15) 
hbond:SER:125    0
hbond:SER:125    0
Name: 14, dtype: object

>  <halogenbond:SER:125>  (15) 
halogenbond:SER:125    0.0
halogenbond:SER:125      0
Name: 14, dtype: object

>  <hydroph_interaction:THR:126>  (15) 
hydroph_interaction:THR:126    1.0
hydroph_interaction:THR:126      1
Name: 14, dtype: object

>  <hbond:THR:126>  (15) 
hbond:THR:126    0.0
hbond:THR:126      0
Name: 14, dtype: object

>  <halogenbond:THR:126>  (15) 
halogenbond:THR:126    NaN
halogenbond:THR:126     -1
Name: 14, dtype: object

>  <hbond:GLY:127>  (15) 
hbond:GLY:127    0
hbond:GLY:127    0
Name: 14, dtype: object

>  <halogenbond:GLY:127>  (15) 
halogenbond:GLY:127    NaN
halogenbond:GLY:127     -1
Name: 14, dtype: object

>  <hydroph_interaction:GLY:127>  (15) 
hydroph_interaction:GLY:127    NaN
hydroph_interaction:GLY:127     -1
Name: 14, dtype: object

>  <hbond:GLY:128>  (15) 
hbond:GLY:128    NaN
hbond:GLY:128     -1
Name: 14, dtype: object

>  <halogenbond:GLY:128>  (15) 
halogenbond:GLY:128    NaN
halogenbond:GLY:128     -1
Name: 14, dtype: object

>  <hydroph_interaction:GLY:128>  (15) 
hydroph_interaction:GLY:128    NaN
hydroph_interaction:GLY:128     -1
Name: 14, dtype: object

>  <hbond:ASN:129>  (15) 
hbond:ASN:129    NaN
hbond:ASN:129     -1
Name: 14, dtype: object

>  <hydroph_interaction:ASN:129>  (15) 
hydroph_interaction:ASN:129    NaN
hydroph_interaction:ASN:129     -1
Name: 14, dtype: object

>  <halogenbond:ASN:129>  (15) 
halogenbond:ASN:129    NaN
halogenbond:ASN:129     -1
Name: 14, dtype: object

>  <hbond:GLY:130>  (15) 
hbond:GLY:130    NaN
hbond:GLY:130     -1
Name: 14, dtype: object

>  <hbond:LEU:131>  (15) 
hbond:LEU:131    NaN
hbond:LEU:131     -1
Name: 14, dtype: object

>  <hydroph_interaction:LEU:131>  (15) 
hydroph_interaction:LEU:131    NaN
hydroph_interaction:LEU:131     -1
Name: 14, dtype: object

>  <halogenbond:LEU:131>  (15) 
halogenbond:LEU:131    NaN
halogenbond:LEU:131     -1
Name: 14, dtype: object

>  <hydroph_interaction:VAL:132>  (15) 
hydroph_interaction:VAL:132    0.0
hydroph_interaction:VAL:132      0
Name: 14, dtype: object

>  <hbond:VAL:132>  (15) 
hbond:VAL:132    NaN
hbond:VAL:132     -1
Name: 14, dtype: object

>  <hbond:GLY:133>  (15) 
hbond:GLY:133    NaN
hbond:GLY:133     -1
Name: 14, dtype: object

>  <halogenbond:GLY:133>  (15) 
halogenbond:GLY:133    NaN
halogenbond:GLY:133     -1
Name: 14, dtype: object

>  <hydroph_interaction:PHE:134>  (15) 
hydroph_interaction:PHE:134    NaN
hydroph_interaction:PHE:134     -1
Name: 14, dtype: object

>  <hbond:PHE:134>  (15) 
hbond:PHE:134    NaN
hbond:PHE:134     -1
Name: 14, dtype: object

>  <pistack:PHE:134>  (15) 
pistack:PHE:134    NaN
pistack:PHE:134     -1
Name: 14, dtype: object

>  <pication:PHE:134>  (15) 
pication:PHE:134    NaN
pication:PHE:134     -1
Name: 14, dtype: object

>  <halogenbond:PHE:134>  (15) 
halogenbond:PHE:134    NaN
halogenbond:PHE:134     -1
Name: 14, dtype: object

>  <hydroph_interaction:ALA:135>  (15) 
hydroph_interaction:ALA:135    NaN
hydroph_interaction:ALA:135     -1
Name: 14, dtype: object

>  <hbond:ALA:135>  (15) 
hbond:ALA:135    NaN
hbond:ALA:135     -1
Name: 14, dtype: object

$$$$
Z3193284779
     RDKit          3D

 33 33  0  0  0  0  0  0  0  0999 V2000
   12.6360   13.6820   23.2750 C   0  0  0  0  0  0  0  0  0  0  0  0
   12.8970   15.1340   23.0220 C   0  0  0  0  0  0  0  0  0  0  0  0
   12.1940   15.6210   21.8440 N   0  0  0  0  0  0  0  0  0  0  0  0
   13.0530   16.1340   20.8150 C   0  0  0  0  0  0  0  0  0  0  0  0
   10.9600   15.1310   21.4500 C   0  0  0  0  0  0  0  0  0  0  0  0
   10.2320   15.7120   20.6430 O   0  0  0  0  0  0  0  0  0  0  0  0
   10.6030   13.9650   22.0490 N   0  0  0  0  0  0  0  0  0  0  0  0
    9.7130   13.9810   23.1950 C   0  0  0  0  0  0  0  0  0  0  0  0
    9.3190   12.6110   23.6040 C   0  0  0  0  0  0  0  0  0  0  0  0
    9.9420   11.5440   23.0050 C   0  0  0  0  0  0  0  0  0  0  0  0
    9.5970   10.2600   23.3520 C   0  0  0  0  0  0  0  0  0  0  0  0
   10.2960    9.0980   22.6680 C   0  0  0  0  0  0  0  0  0  0  0  0
    8.6140   10.0430   24.3140 C   0  0  0  0  0  0  0  0  0  0  0  0
    7.9750   11.1060   24.9360 C   0  0  0  0  0  0  0  0  0  0  0  0
    8.3360   12.3990   24.5730 C   0  0  0  0  0  0  0  0  0  0  0  0
    7.7280   13.4400   25.1630 F   0  0  0  0  0  0  0  0  0  0  0  0
   12.4100   13.1910   22.3260 H   0  0  0  0  0  0  0  0  0  0  0  0
   13.5170   13.2150   23.7230 H   0  0  0  0  0  0  0  0  0  0  0  0
   11.7860   13.5460   23.9480 H   0  0  0  0  0  0  0  0  0  0  0  0
   13.9660   15.2580   22.8430 H   0  0  0  0  0  0  0  0  0  0  0  0
   12.6010   15.7110   23.8990 H   0  0  0  0  0  0  0  0  0  0  0  0
   14.0960   15.9350   21.0730 H   0  0  0  0  0  0  0  0  0  0  0  0
   12.8350   15.6130   19.8800 H   0  0  0  0  0  0  0  0  0  0  0  0
   12.9180   17.2080   20.7020 H   0  0  0  0  0  0  0  0  0  0  0  0
   10.5870   13.1570   21.4240 H   0  0  0  0  0  0  0  0  0  0  0  0
   10.2230   14.4870   24.0190 H   0  0  0  0  0  0  0  0  0  0  0  0
    8.8130   14.5570   22.9540 H   0  0  0  0  0  0  0  0  0  0  0  0
   10.7070   11.7200   22.2530 H   0  0  0  0  0  0  0  0  0  0  0  0
   10.8050    9.4620   21.7750 H   0  0  0  0  0  0  0  0  0  0  0  0
    9.5730    8.3440   22.3600 H   0  0  0  0  0  0  0  0  0  0  0  0
   11.0300    8.6180   23.3170 H   0  0  0  0  0  0  0  0  0  0  0  0
    8.3410    9.0390   24.5820 H   0  0  0  0  0  0  0  0  0  0  0  0
    7.2100   10.9380   25.6870 H   0  0  0  0  0  0  0  0  0  0  0  0
  1  2  1  0
  2  3  1  0
  3  4  1  0
  3  5  1  0
  5  6  2  0
  5  7  1  0
  7  8  1  0
  8  9  1  0
  9 10  2  0
 10 11  1  0
 11 12  1  0
 11 13  2  0
 13 14  1  0
 14 15  2  0
 15 16  1  0
 15  9  1  0
  1 17  1  0
  1 18  1  0
  1 19  1  0
  2 20  1  0
  2 21  1  0
  4 22  1  0
  4 23  1  0
  4 24  1  0
  7 25  1  0
  8 26  1  0
  8 27  1  0
 10 28  1  0
 12 29  1  0
 12 30  1  0
 12 31  1  0
 13 32  1  0
 14 33  1  0
A    1
 C1 
A    2
 C2 
A    3
 N1 
A    4
 C3 
A    5
 C4 
A    6
 O1 
A    7
 N2 
A    8
 C5 
A    9
 C6 
A   10
 C7 
A   11
 C8 
A   12
 C9 
A   13
 C10
A   14
 C11
A   15
 C12
A   16
 F1 
A   17
 H1 
A   18
 H2 
A   19
 H3 
A   20
 H4 
A   21
 H5 
A   22
 H6 
A   23
 H7 
A   24
 H8 
A   25
 H9 
A   26
 H10
A   27
 H11
A   28
 H12
A   29
 H13
A   30
 H14
A   31
 H15
A   32
 H16
A   33
 H17
M  END
>  <ref_pdb>  (16) 
x0310_0A

>  <ref_mols>  (16) 
x0416_0A,x0528_0A

>  <original SMILES>  (16) 
CCN(C)C(=O)NCc1cc(C)ccc1F

>  <rationale>  (16) 
info halogenbond:G127+D39+A86+E85+E106+E88+T126+P107+Y64+C65+N129+F83+R93+L131+I82+G128+P91+N19+H21+V84+G133+Y90+Y89+H97+L81+F134+L98+R20+G103+S66+S67+S7+G108+R38+V124+M99+S36; hbond:S87+S125+T126+A86+E85+G103+G128+G130+L131+N129+H104+R68+V124+R93+P91+F83+S7+S66+G112+G133+V132+R20+Y89+S77+A135+Y63+A92+A101+M99+F134+L100+I82+Y64+S36+L98+V84+L81+Y94+S80+R38+S37+V102+G8+I123+G111+I113+L114+C65+L22+S96; hydroph_interaction:V124+L22+E106+E88+N129+N19+L40+I123+A135+I82+L100+L98+L131+F83+R93+V132+Y63+F134+H104+R20+A86+V74+P91+A101+F76+M99+L114+A92+Y94+R68+Y72+Y64+V18+V102+W28+G127+G128+L81; pication:H104+Y63+F134+Y90+R68+F83+R20; pistack:H21+Y89+H104+F134+Y63+F83+Y94; saltbridge:R93+H104+E106+D109+E85+E88+R68+R20; 

>  <intxn_cluster>  (16) 
-1

>  <intxn_cluster_rank>  (16) 
-1

>  <N_interactions>  (16) 
3

>  <∆∆G>  (16) 
-13.75911

>  <$/mg>  (16) 
0.0

>  <comRMSD>  (16) 
0.729443

>  <N_rotatable_bonds>  (16) 
6

>  <deep_P1_sidechain>  (16) 
nan

>  <farthest_distance_to_substrate>  (16) 
2.196218

>  <hbond:SER:7>  (16) 
hbond:SER:7    NaN
hbond:SER:7     -1
Name: 15, dtype: object

>  <halogenbond:SER:7>  (16) 
halogenbond:SER:7    NaN
halogenbond:SER:7     -1
Name: 15, dtype: object

>  <hbond:GLY:8>  (16) 
hbond:GLY:8    NaN
hbond:GLY:8     -1
Name: 15, dtype: object

>  <hydroph_interaction:VAL:18>  (16) 
hydroph_interaction:VAL:18    NaN
hydroph_interaction:VAL:18     -1
Name: 15, dtype: object

>  <hbond:ASN:19>  (16) 
hbond:ASN:19    0.0
hbond:ASN:19      0
Name: 15, dtype: object

>  <hydroph_interaction:ASN:19>  (16) 
hydroph_interaction:ASN:19    NaN
hydroph_interaction:ASN:19     -1
Name: 15, dtype: object

>  <halogenbond:ASN:19>  (16) 
halogenbond:ASN:19    NaN
halogenbond:ASN:19     -1
Name: 15, dtype: object

>  <hbond:ARG:20>  (16) 
hbond:ARG:20    NaN
hbond:ARG:20     -1
Name: 15, dtype: object

>  <hydroph_interaction:ARG:20>  (16) 
hydroph_interaction:ARG:20    NaN
hydroph_interaction:ARG:20     -1
Name: 15, dtype: object

>  <saltbridge:ARG:20>  (16) 
saltbridge:ARG:20    NaN
saltbridge:ARG:20     -1
Name: 15, dtype: object

>  <halogenbond:ARG:20>  (16) 
halogenbond:ARG:20    NaN
halogenbond:ARG:20     -1
Name: 15, dtype: object

>  <pication:ARG:20>  (16) 
pication:ARG:20    NaN
pication:ARG:20     -1
Name: 15, dtype: object

>  <hbond:HIS:21>  (16) 
hbond:HIS:21    0.0
hbond:HIS:21      0
Name: 15, dtype: object

>  <hydroph_interaction:HIS:21>  (16) 
hydroph_interaction:HIS:21    0.0
hydroph_interaction:HIS:21      0
Name: 15, dtype: object

>  <pistack:HIS:21>  (16) 
pistack:HIS:21    NaN
pistack:HIS:21     -1
Name: 15, dtype: object

>  <pication:HIS:21>  (16) 
pication:HIS:21    0.0
pication:HIS:21      0
Name: 15, dtype: object

>  <saltbridge:HIS:21>  (16) 
saltbridge:HIS:21    0.0
saltbridge:HIS:21      0
Name: 15, dtype: object

>  <halogenbond:HIS:21>  (16) 
halogenbond:HIS:21    NaN
halogenbond:HIS:21     -1
Name: 15, dtype: object

>  <hydroph_interaction:LEU:22>  (16) 
hydroph_interaction:LEU:22    NaN
hydroph_interaction:LEU:22     -1
Name: 15, dtype: object

>  <hbond:LEU:22>  (16) 
hbond:LEU:22    NaN
hbond:LEU:22     -1
Name: 15, dtype: object

>  <hydroph_interaction:TRP:28>  (16) 
hydroph_interaction:TRP:28    NaN
hydroph_interaction:TRP:28     -1
Name: 15, dtype: object

>  <hbond:SER:36>  (16) 
hbond:SER:36    NaN
hbond:SER:36     -1
Name: 15, dtype: object

>  <halogenbond:SER:36>  (16) 
halogenbond:SER:36    NaN
halogenbond:SER:36     -1
Name: 15, dtype: object

>  <hbond:SER:37>  (16) 
hbond:SER:37    NaN
hbond:SER:37     -1
Name: 15, dtype: object

>  <hbond:ARG:38>  (16) 
hbond:ARG:38    NaN
hbond:ARG:38     -1
Name: 15, dtype: object

>  <halogenbond:ARG:38>  (16) 
halogenbond:ARG:38    NaN
halogenbond:ARG:38     -1
Name: 15, dtype: object

>  <saltbridge:ASP:39>  (16) 
saltbridge:ASP:39    0.0
saltbridge:ASP:39      0
Name: 15, dtype: object

>  <halogenbond:ASP:39>  (16) 
halogenbond:ASP:39    NaN
halogenbond:ASP:39     -1
Name: 15, dtype: object

>  <hbond:ASP:39>  (16) 
hbond:ASP:39    0.0
hbond:ASP:39      0
Name: 15, dtype: object

>  <hydroph_interaction:ASP:39>  (16) 
hydroph_interaction:ASP:39    0.0
hydroph_interaction:ASP:39      0
Name: 15, dtype: object

>  <hydroph_interaction:LEU:40>  (16) 
hydroph_interaction:LEU:40    NaN
hydroph_interaction:LEU:40     -1
Name: 15, dtype: object

>  <hydroph_interaction:TYR:63>  (16) 
hydroph_interaction:TYR:63    NaN
hydroph_interaction:TYR:63     -1
Name: 15, dtype: object

>  <hbond:TYR:63>  (16) 
hbond:TYR:63    NaN
hbond:TYR:63     -1
Name: 15, dtype: object

>  <pistack:TYR:63>  (16) 
pistack:TYR:63    NaN
pistack:TYR:63     -1
Name: 15, dtype: object

>  <pication:TYR:63>  (16) 
pication:TYR:63    NaN
pication:TYR:63     -1
Name: 15, dtype: object

>  <halogenbond:TYR:64>  (16) 
halogenbond:TYR:64    NaN
halogenbond:TYR:64     -1
Name: 15, dtype: object

>  <hbond:TYR:64>  (16) 
hbond:TYR:64    NaN
hbond:TYR:64     -1
Name: 15, dtype: object

>  <hydroph_interaction:TYR:64>  (16) 
hydroph_interaction:TYR:64    NaN
hydroph_interaction:TYR:64     -1
Name: 15, dtype: object

>  <halogenbond:CYS:65>  (16) 
halogenbond:CYS:65    NaN
halogenbond:CYS:65     -1
Name: 15, dtype: object

>  <hbond:CYS:65>  (16) 
hbond:CYS:65    NaN
hbond:CYS:65     -1
Name: 15, dtype: object

>  <hbond:SER:66>  (16) 
hbond:SER:66    NaN
hbond:SER:66     -1
Name: 15, dtype: object

>  <halogenbond:SER:66>  (16) 
halogenbond:SER:66    NaN
halogenbond:SER:66     -1
Name: 15, dtype: object

>  <hbond:SER:67>  (16) 
hbond:SER:67    0.0
hbond:SER:67      0
Name: 15, dtype: object

>  <halogenbond:SER:67>  (16) 
halogenbond:SER:67    NaN
halogenbond:SER:67     -1
Name: 15, dtype: object

>  <hbond:ARG:68>  (16) 
hbond:ARG:68    NaN
hbond:ARG:68     -1
Name: 15, dtype: object

>  <saltbridge:ARG:68>  (16) 
saltbridge:ARG:68    NaN
saltbridge:ARG:68     -1
Name: 15, dtype: object

>  <hydroph_interaction:ARG:68>  (16) 
hydroph_interaction:ARG:68    NaN
hydroph_interaction:ARG:68     -1
Name: 15, dtype: object

>  <pication:ARG:68>  (16) 
pication:ARG:68    NaN
pication:ARG:68     -1
Name: 15, dtype: object

>  <hydroph_interaction:TYR:72>  (16) 
hydroph_interaction:TYR:72    NaN
hydroph_interaction:TYR:72     -1
Name: 15, dtype: object

>  <hydroph_interaction:VAL:74>  (16) 
hydroph_interaction:VAL:74    NaN
hydroph_interaction:VAL:74     -1
Name: 15, dtype: object

>  <hydroph_interaction:PHE:76>  (16) 
hydroph_interaction:PHE:76    NaN
hydroph_interaction:PHE:76     -1
Name: 15, dtype: object

>  <hbond:SER:77>  (16) 
hbond:SER:77    NaN
hbond:SER:77     -1
Name: 15, dtype: object

>  <hbond:SER:80>  (16) 
hbond:SER:80    NaN
hbond:SER:80     -1
Name: 15, dtype: object

>  <hbond:LEU:81>  (16) 
hbond:LEU:81    NaN
hbond:LEU:81     -1
Name: 15, dtype: object

>  <halogenbond:LEU:81>  (16) 
halogenbond:LEU:81    NaN
halogenbond:LEU:81     -1
Name: 15, dtype: object

>  <hydroph_interaction:LEU:81>  (16) 
hydroph_interaction:LEU:81    NaN
hydroph_interaction:LEU:81     -1
Name: 15, dtype: object

>  <hydroph_interaction:ILE:82>  (16) 
hydroph_interaction:ILE:82    NaN
hydroph_interaction:ILE:82     -1
Name: 15, dtype: object

>  <halogenbond:ILE:82>  (16) 
halogenbond:ILE:82    NaN
halogenbond:ILE:82     -1
Name: 15, dtype: object

>  <hbond:ILE:82>  (16) 
hbond:ILE:82    NaN
hbond:ILE:82     -1
Name: 15, dtype: object

>  <hbond:PHE:83>  (16) 
hbond:PHE:83    NaN
hbond:PHE:83     -1
Name: 15, dtype: object

>  <hydroph_interaction:PHE:83>  (16) 
hydroph_interaction:PHE:83    NaN
hydroph_interaction:PHE:83     -1
Name: 15, dtype: object

>  <halogenbond:PHE:83>  (16) 
halogenbond:PHE:83    NaN
halogenbond:PHE:83     -1
Name: 15, dtype: object

>  <pistack:PHE:83>  (16) 
pistack:PHE:83    NaN
pistack:PHE:83     -1
Name: 15, dtype: object

>  <pication:PHE:83>  (16) 
pication:PHE:83    NaN
pication:PHE:83     -1
Name: 15, dtype: object

>  <hydroph_interaction:VAL:84>  (16) 
hydroph_interaction:VAL:84    0.0
hydroph_interaction:VAL:84      0
Name: 15, dtype: object

>  <halogenbond:VAL:84>  (16) 
halogenbond:VAL:84    NaN
halogenbond:VAL:84     -1
Name: 15, dtype: object

>  <hbond:VAL:84>  (16) 
hbond:VAL:84    NaN
hbond:VAL:84     -1
Name: 15, dtype: object

>  <hydroph_interaction:GLU:85>  (16) 
hydroph_interaction:GLU:85    0.0
hydroph_interaction:GLU:85      0
Name: 15, dtype: object

>  <hbond:GLU:85>  (16) 
hbond:GLU:85    NaN
hbond:GLU:85     -1
Name: 15, dtype: object

>  <halogenbond:GLU:85>  (16) 
halogenbond:GLU:85    NaN
halogenbond:GLU:85     -1
Name: 15, dtype: object

>  <saltbridge:GLU:85>  (16) 
saltbridge:GLU:85    NaN
saltbridge:GLU:85     -1
Name: 15, dtype: object

>  <halogenbond:ALA:86>  (16) 
halogenbond:ALA:86    NaN
halogenbond:ALA:86     -1
Name: 15, dtype: object

>  <hbond:ALA:86>  (16) 
hbond:ALA:86    NaN
hbond:ALA:86     -1
Name: 15, dtype: object

>  <hydroph_interaction:ALA:86>  (16) 
hydroph_interaction:ALA:86    NaN
hydroph_interaction:ALA:86     -1
Name: 15, dtype: object

>  <hbond:SER:87>  (16) 
hbond:SER:87    1
hbond:SER:87    1
Name: 15, dtype: object

>  <halogenbond:SER:87>  (16) 
halogenbond:SER:87    0.0
halogenbond:SER:87      0
Name: 15, dtype: object

>  <hbond:GLU:88>  (16) 
hbond:GLU:88    0.0
hbond:GLU:88      0
Name: 15, dtype: object

>  <hydroph_interaction:GLU:88>  (16) 
hydroph_interaction:GLU:88    NaN
hydroph_interaction:GLU:88     -1
Name: 15, dtype: object

>  <halogenbond:GLU:88>  (16) 
halogenbond:GLU:88    NaN
halogenbond:GLU:88     -1
Name: 15, dtype: object

>  <saltbridge:GLU:88>  (16) 
saltbridge:GLU:88    NaN
saltbridge:GLU:88     -1
Name: 15, dtype: object

>  <hydroph_interaction:TYR:89>  (16) 
hydroph_interaction:TYR:89    0.0
hydroph_interaction:TYR:89      0
Name: 15, dtype: object

>  <pistack:TYR:89>  (16) 
pistack:TYR:89    NaN
pistack:TYR:89     -1
Name: 15, dtype: object

>  <hbond:TYR:89>  (16) 
hbond:TYR:89    NaN
hbond:TYR:89     -1
Name: 15, dtype: object

>  <halogenbond:TYR:89>  (16) 
halogenbond:TYR:89    NaN
halogenbond:TYR:89     -1
Name: 15, dtype: object

>  <hydroph_interaction:TYR:90>  (16) 
hydroph_interaction:TYR:90    0.0
hydroph_interaction:TYR:90      0
Name: 15, dtype: object

>  <hbond:TYR:90>  (16) 
hbond:TYR:90    0.0
hbond:TYR:90      0
Name: 15, dtype: object

>  <pistack:TYR:90>  (16) 
pistack:TYR:90    0.0
pistack:TYR:90      0
Name: 15, dtype: object

>  <halogenbond:TYR:90>  (16) 
halogenbond:TYR:90    NaN
halogenbond:TYR:90     -1
Name: 15, dtype: object

>  <pication:TYR:90>  (16) 
pication:TYR:90    NaN
pication:TYR:90     -1
Name: 15, dtype: object

>  <hbond:PRO:91>  (16) 
hbond:PRO:91    NaN
hbond:PRO:91     -1
Name: 15, dtype: object

>  <hydroph_interaction:PRO:91>  (16) 
hydroph_interaction:PRO:91    NaN
hydroph_interaction:PRO:91     -1
Name: 15, dtype: object

>  <halogenbond:PRO:91>  (16) 
halogenbond:PRO:91    NaN
halogenbond:PRO:91     -1
Name: 15, dtype: object

>  <hbond:ALA:92>  (16) 
hbond:ALA:92    NaN
hbond:ALA:92     -1
Name: 15, dtype: object

>  <hydroph_interaction:ALA:92>  (16) 
hydroph_interaction:ALA:92    NaN
hydroph_interaction:ALA:92     -1
Name: 15, dtype: object

>  <saltbridge:ARG:93>  (16) 
saltbridge:ARG:93    NaN
saltbridge:ARG:93     -1
Name: 15, dtype: object

>  <hbond:ARG:93>  (16) 
hbond:ARG:93    NaN
hbond:ARG:93     -1
Name: 15, dtype: object

>  <hydroph_interaction:ARG:93>  (16) 
hydroph_interaction:ARG:93    NaN
hydroph_interaction:ARG:93     -1
Name: 15, dtype: object

>  <halogenbond:ARG:93>  (16) 
halogenbond:ARG:93    NaN
halogenbond:ARG:93     -1
Name: 15, dtype: object

>  <pication:ARG:93>  (16) 
pication:ARG:93    0.0
pication:ARG:93      0
Name: 15, dtype: object

>  <hydroph_interaction:TYR:94>  (16) 
hydroph_interaction:TYR:94    NaN
hydroph_interaction:TYR:94     -1
Name: 15, dtype: object

>  <pistack:TYR:94>  (16) 
pistack:TYR:94    NaN
pistack:TYR:94     -1
Name: 15, dtype: object

>  <hbond:TYR:94>  (16) 
hbond:TYR:94    NaN
hbond:TYR:94     -1
Name: 15, dtype: object

>  <hbond:GLN:95>  (16) 
hbond:GLN:95    0.0
hbond:GLN:95      0
Name: 15, dtype: object

>  <hydroph_interaction:GLN:95>  (16) 
hydroph_interaction:GLN:95    0.0
hydroph_interaction:GLN:95      0
Name: 15, dtype: object

>  <halogenbond:GLN:95>  (16) 
halogenbond:GLN:95    0.0
halogenbond:GLN:95      0
Name: 15, dtype: object

>  <hbond:SER:96>  (16) 
hbond:SER:96    NaN
hbond:SER:96     -1
Name: 15, dtype: object

>  <halogenbond:HIS:97>  (16) 
halogenbond:HIS:97    NaN
halogenbond:HIS:97     -1
Name: 15, dtype: object

>  <hydroph_interaction:LEU:98>  (16) 
hydroph_interaction:LEU:98    NaN
hydroph_interaction:LEU:98     -1
Name: 15, dtype: object

>  <hbond:LEU:98>  (16) 
hbond:LEU:98    NaN
hbond:LEU:98     -1
Name: 15, dtype: object

>  <halogenbond:LEU:98>  (16) 
halogenbond:LEU:98    NaN
halogenbond:LEU:98     -1
Name: 15, dtype: object

>  <hbond:MET:99>  (16) 
hbond:MET:99    NaN
hbond:MET:99     -1
Name: 15, dtype: object

>  <hydroph_interaction:MET:99>  (16) 
hydroph_interaction:MET:99    NaN
hydroph_interaction:MET:99     -1
Name: 15, dtype: object

>  <halogenbond:MET:99>  (16) 
halogenbond:MET:99    NaN
halogenbond:MET:99     -1
Name: 15, dtype: object

>  <hydroph_interaction:LEU:100>  (16) 
hydroph_interaction:LEU:100    NaN
hydroph_interaction:LEU:100     -1
Name: 15, dtype: object

>  <hbond:LEU:100>  (16) 
hbond:LEU:100    NaN
hbond:LEU:100     -1
Name: 15, dtype: object

>  <hbond:ALA:101>  (16) 
hbond:ALA:101    NaN
hbond:ALA:101     -1
Name: 15, dtype: object

>  <hydroph_interaction:ALA:101>  (16) 
hydroph_interaction:ALA:101    NaN
hydroph_interaction:ALA:101     -1
Name: 15, dtype: object

>  <hydroph_interaction:VAL:102>  (16) 
hydroph_interaction:VAL:102    NaN
hydroph_interaction:VAL:102     -1
Name: 15, dtype: object

>  <hbond:VAL:102>  (16) 
hbond:VAL:102    NaN
hbond:VAL:102     -1
Name: 15, dtype: object

>  <hbond:GLY:103>  (16) 
hbond:GLY:103    NaN
hbond:GLY:103     -1
Name: 15, dtype: object

>  <halogenbond:GLY:103>  (16) 
halogenbond:GLY:103    NaN
halogenbond:GLY:103     -1
Name: 15, dtype: object

>  <hbond:HIS:104>  (16) 
hbond:HIS:104    NaN
hbond:HIS:104     -1
Name: 15, dtype: object

>  <saltbridge:HIS:104>  (16) 
saltbridge:HIS:104    NaN
saltbridge:HIS:104     -1
Name: 15, dtype: object

>  <pication:HIS:104>  (16) 
pication:HIS:104    NaN
pication:HIS:104     -1
Name: 15, dtype: object

>  <halogenbond:HIS:104>  (16) 
halogenbond:HIS:104    0.0
halogenbond:HIS:104      0
Name: 15, dtype: object

>  <hydroph_interaction:HIS:104>  (16) 
hydroph_interaction:HIS:104    NaN
hydroph_interaction:HIS:104     -1
Name: 15, dtype: object

>  <pistack:HIS:104>  (16) 
pistack:HIS:104    NaN
pistack:HIS:104     -1
Name: 15, dtype: object

>  <halogenbond:SER:105>  (16) 
halogenbond:SER:105    0.0
halogenbond:SER:105      0
Name: 15, dtype: object

>  <hbond:SER:105>  (16) 
hbond:SER:105    0.0
hbond:SER:105      0
Name: 15, dtype: object

>  <hbond:GLU:106>  (16) 
hbond:GLU:106    0.0
hbond:GLU:106      0
Name: 15, dtype: object

>  <hydroph_interaction:GLU:106>  (16) 
hydroph_interaction:GLU:106    NaN
hydroph_interaction:GLU:106     -1
Name: 15, dtype: object

>  <saltbridge:GLU:106>  (16) 
saltbridge:GLU:106    NaN
saltbridge:GLU:106     -1
Name: 15, dtype: object

>  <halogenbond:GLU:106>  (16) 
halogenbond:GLU:106    NaN
halogenbond:GLU:106     -1
Name: 15, dtype: object

>  <hydroph_interaction:PRO:107>  (16) 
hydroph_interaction:PRO:107    0
hydroph_interaction:PRO:107    0
Name: 15, dtype: object

>  <hbond:PRO:107>  (16) 
hbond:PRO:107    0.0
hbond:PRO:107      0
Name: 15, dtype: object

>  <halogenbond:PRO:107>  (16) 
halogenbond:PRO:107    NaN
halogenbond:PRO:107     -1
Name: 15, dtype: object

>  <hbond:GLY:108>  (16) 
hbond:GLY:108    0.0
hbond:GLY:108      0
Name: 15, dtype: object

>  <halogenbond:GLY:108>  (16) 
halogenbond:GLY:108    NaN
halogenbond:GLY:108     -1
Name: 15, dtype: object

>  <hbond:ASP:109>  (16) 
hbond:ASP:109    0.0
hbond:ASP:109      0
Name: 15, dtype: object

>  <hydroph_interaction:ASP:109>  (16) 
hydroph_interaction:ASP:109    0.0
hydroph_interaction:ASP:109      0
Name: 15, dtype: object

>  <saltbridge:ASP:109>  (16) 
saltbridge:ASP:109    NaN
saltbridge:ASP:109     -1
Name: 15, dtype: object

>  <halogenbond:CYS:110>  (16) 
halogenbond:CYS:110    0.0
halogenbond:CYS:110      0
Name: 15, dtype: object

>  <hbond:CYS:110>  (16) 
hbond:CYS:110    0.0
hbond:CYS:110      0
Name: 15, dtype: object

>  <hbond:GLY:111>  (16) 
hbond:GLY:111    NaN
hbond:GLY:111     -1
Name: 15, dtype: object

>  <hbond:GLY:112>  (16) 
hbond:GLY:112    NaN
hbond:GLY:112     -1
Name: 15, dtype: object

>  <hbond:ILE:113>  (16) 
hbond:ILE:113    NaN
hbond:ILE:113     -1
Name: 15, dtype: object

>  <hydroph_interaction:LEU:114>  (16) 
hydroph_interaction:LEU:114    NaN
hydroph_interaction:LEU:114     -1
Name: 15, dtype: object

>  <hbond:LEU:114>  (16) 
hbond:LEU:114    NaN
hbond:LEU:114     -1
Name: 15, dtype: object

>  <hydroph_interaction:ILE:123>  (16) 
hydroph_interaction:ILE:123    NaN
hydroph_interaction:ILE:123     -1
Name: 15, dtype: object

>  <hbond:ILE:123>  (16) 
hbond:ILE:123    NaN
hbond:ILE:123     -1
Name: 15, dtype: object

>  <hydroph_interaction:VAL:124>  (16) 
hydroph_interaction:VAL:124    1.0
hydroph_interaction:VAL:124      1
Name: 15, dtype: object

>  <hbond:VAL:124>  (16) 
hbond:VAL:124    NaN
hbond:VAL:124     -1
Name: 15, dtype: object

>  <halogenbond:VAL:124>  (16) 
halogenbond:VAL:124    NaN
halogenbond:VAL:124     -1
Name: 15, dtype: object

>  <hbond:SER:125>  (16) 
hbond:SER:125    1
hbond:SER:125    1
Name: 15, dtype: object

>  <halogenbond:SER:125>  (16) 
halogenbond:SER:125    0.0
halogenbond:SER:125      0
Name: 15, dtype: object

>  <hydroph_interaction:THR:126>  (16) 
hydroph_interaction:THR:126    0.0
hydroph_interaction:THR:126      0
Name: 15, dtype: object

>  <hbond:THR:126>  (16) 
hbond:THR:126    NaN
hbond:THR:126     -1
Name: 15, dtype: object

>  <halogenbond:THR:126>  (16) 
halogenbond:THR:126    NaN
halogenbond:THR:126     -1
Name: 15, dtype: object

>  <hbond:GLY:127>  (16) 
hbond:GLY:127    0
hbond:GLY:127    0
Name: 15, dtype: object

>  <halogenbond:GLY:127>  (16) 
halogenbond:GLY:127    NaN
halogenbond:GLY:127     -1
Name: 15, dtype: object

>  <hydroph_interaction:GLY:127>  (16) 
hydroph_interaction:GLY:127    NaN
hydroph_interaction:GLY:127     -1
Name: 15, dtype: object

>  <hbond:GLY:128>  (16) 
hbond:GLY:128    NaN
hbond:GLY:128     -1
Name: 15, dtype: object

>  <halogenbond:GLY:128>  (16) 
halogenbond:GLY:128    NaN
halogenbond:GLY:128     -1
Name: 15, dtype: object

>  <hydroph_interaction:GLY:128>  (16) 
hydroph_interaction:GLY:128    NaN
hydroph_interaction:GLY:128     -1
Name: 15, dtype: object

>  <hbond:ASN:129>  (16) 
hbond:ASN:129    NaN
hbond:ASN:129     -1
Name: 15, dtype: object

>  <hydroph_interaction:ASN:129>  (16) 
hydroph_interaction:ASN:129    NaN
hydroph_interaction:ASN:129     -1
Name: 15, dtype: object

>  <halogenbond:ASN:129>  (16) 
halogenbond:ASN:129    NaN
halogenbond:ASN:129     -1
Name: 15, dtype: object

>  <hbond:GLY:130>  (16) 
hbond:GLY:130    NaN
hbond:GLY:130     -1
Name: 15, dtype: object

>  <hbond:LEU:131>  (16) 
hbond:LEU:131    NaN
hbond:LEU:131     -1
Name: 15, dtype: object

>  <hydroph_interaction:LEU:131>  (16) 
hydroph_interaction:LEU:131    NaN
hydroph_interaction:LEU:131     -1
Name: 15, dtype: object

>  <halogenbond:LEU:131>  (16) 
halogenbond:LEU:131    NaN
halogenbond:LEU:131     -1
Name: 15, dtype: object

>  <hydroph_interaction:VAL:132>  (16) 
hydroph_interaction:VAL:132    NaN
hydroph_interaction:VAL:132     -1
Name: 15, dtype: object

>  <hbond:VAL:132>  (16) 
hbond:VAL:132    NaN
hbond:VAL:132     -1
Name: 15, dtype: object

>  <hbond:GLY:133>  (16) 
hbond:GLY:133    NaN
hbond:GLY:133     -1
Name: 15, dtype: object

>  <halogenbond:GLY:133>  (16) 
halogenbond:GLY:133    NaN
halogenbond:GLY:133     -1
Name: 15, dtype: object

>  <hydroph_interaction:PHE:134>  (16) 
hydroph_interaction:PHE:134    NaN
hydroph_interaction:PHE:134     -1
Name: 15, dtype: object

>  <hbond:PHE:134>  (16) 
hbond:PHE:134    NaN
hbond:PHE:134     -1
Name: 15, dtype: object

>  <pistack:PHE:134>  (16) 
pistack:PHE:134    NaN
pistack:PHE:134     -1
Name: 15, dtype: object

>  <pication:PHE:134>  (16) 
pication:PHE:134    NaN
pication:PHE:134     -1
Name: 15, dtype: object

>  <halogenbond:PHE:134>  (16) 
halogenbond:PHE:134    NaN
halogenbond:PHE:134     -1
Name: 15, dtype: object

>  <hydroph_interaction:ALA:135>  (16) 
hydroph_interaction:ALA:135    NaN
hydroph_interaction:ALA:135     -1
Name: 15, dtype: object

>  <hbond:ALA:135>  (16) 
hbond:ALA:135    NaN
hbond:ALA:135     -1
Name: 15, dtype: object

$$$$
PV_006442502634
     RDKit          3D

 25 25  0  0  0  0  0  0  0  0999 V2000
   12.5080   16.1410   21.8800 C   0  0  0  0  0  0  0  0  0  0  0  0
   11.4390   15.2050   21.7270 N   0  0  0  0  0  0  0  0  0  0  0  0
   11.0760   14.4130   22.8060 C   0  0  0  0  0  0  0  0  0  0  0  0
   11.6030   14.5480   24.3840 S   0  0  0  0  0  0  0  0  0  0  0  0
   10.2150   13.4470   22.4500 N   0  0  0  0  0  0  0  0  0  0  0  0
    9.5760   12.4210   23.1280 C   0  0  0  0  0  0  0  0  0  0  0  0
    8.5790   12.5000   24.0950 C   0  0  0  0  0  0  0  0  0  0  0  0
    8.0690   11.3150   24.6290 C   0  0  0  0  0  0  0  0  0  0  0  0
    7.0700   11.3550   25.5970 C   0  0  0  0  0  0  0  0  0  0  0  0
    6.2490   11.3830   26.4140 N   0  0  0  0  0  0  0  0  0  0  0  0
    8.5670   10.0880   24.1830 C   0  0  0  0  0  0  0  0  0  0  0  0
    9.5600   10.0410   23.2160 C   0  0  0  0  0  0  0  0  0  0  0  0
   10.1420    8.7950   22.6680 C   0  0  0  0  0  0  0  0  0  0  0  0
   10.0390   11.1980   22.7230 C   0  0  0  0  0  0  0  0  0  0  0  0
   13.2970   15.9110   21.1520 H   0  0  0  0  0  0  0  0  0  0  0  0
   12.9430   16.0690   22.8780 H   0  0  0  0  0  0  0  0  0  0  0  0
   12.1740   17.1640   21.6920 H   0  0  0  0  0  0  0  0  0  0  0  0
   11.5130   14.6600   20.8680 H   0  0  0  0  0  0  0  0  0  0  0  0
   10.4780   13.1270   21.5030 H   0  0  0  0  0  0  0  0  0  0  0  0
    8.1860   13.4520   24.4400 H   0  0  0  0  0  0  0  0  0  0  0  0
    8.1690    9.1700   24.5960 H   0  0  0  0  0  0  0  0  0  0  0  0
   10.4400    8.1160   23.4610 H   0  0  0  0  0  0  0  0  0  0  0  0
    9.4360    8.2930   22.0090 H   0  0  0  0  0  0  0  0  0  0  0  0
   11.0100    9.0450   22.0740 H   0  0  0  0  0  0  0  0  0  0  0  0
   10.8110   11.1440   21.9780 H   0  0  0  0  0  0  0  0  0  0  0  0
  1  2  1  0
  2  3  1  0
  3  4  2  0
  3  5  1  0
  5  6  1  0
  6  7  2  0
  7  8  1  0
  8  9  1  0
  9 10  3  0
  8 11  2  0
 11 12  1  0
 12 13  1  0
 12 14  2  0
 14  6  1  0
  1 15  1  0
  1 16  1  0
  1 17  1  0
  2 18  1  0
  5 19  1  0
  7 20  1  0
 11 21  1  0
 13 22  1  0
 13 23  1  0
 13 24  1  0
 14 25  1  0
A    1
 C1 
A    2
 N1 
A    3
 C2 
A    4
 S1 
A    5
 N2 
A    6
 C3 
A    7
 C4 
A    8
 C5 
A    9
 C6 
A   10
 N3 
A   11
 C7 
A   12
 C8 
A   13
 C9 
A   14
 C10
A   15
 H1 
A   16
 H2 
A   17
 H3 
A   18
 H4 
A   19
 H5 
A   20
 H6 
A   21
 H7 
A   22
 H8 
A   23
 H9 
A   24
 H10
A   25
 H11
M  END
>  <ref_pdb>  (17) 
x0310_0A

>  <ref_mols>  (17) 
x0451_0A,x0739_0A

>  <original SMILES>  (17) 
CNC(=S)Nc1cc(C)cc(C#N)c1

>  <rationale>  (17) 
info halogenbond:C110+G127+D39+A86+S125+E85+Q95+E106+E88+T126+P107+H104+Y64+C65+S87+N129+F83+R93+L131+I82+G128+P91+N19+H21+V84+G133+Y90+Y89+H97+L81+F134+L98+R20+G103+S66+S67+S7+G108+R38+V124+M99+S36; hbond:S87+S125+Y90+Q95+D39+A86+E85+G108+G103+G128+G130+L131+N129+N19+H104+R68+V124+R93+P91+F83+S67+S7+S66+G112+G133+V132+R20+Y89+S77+A135+Y63+A92+A101+M99+F134+L100+I82+Y64+S36+L98+V84+L81+Y94+S80+R38+S37+V102+G8+I123+G111+I113+L114+C65+L22+S96; hydroph_interaction:V84+V124+T126+H21+L22+E85+E106+N129+D39+N19+L40+I123+A135+Q95+I82+L100+L98+L131+F83+R93+V132+Y63+F134+H104+R20+A86+V74+P91+A101+F76+M99+L114+A92+Y94+R68+Y72+Y64+V18+V102+W28+G127+G128+L81; pication:H21+H104+R93+Y63+F134+Y90+R68+F83+R20; pistack:H21+Y89+Y90+H104+F134+Y63+F83+Y94; saltbridge:D39+R93+H104+E106+D109+E85+E88+R68+R20; 

>  <intxn_cluster>  (17) 
-1

>  <intxn_cluster_rank>  (17) 
-1

>  <N_interactions>  (17) 
4

>  <∆∆G>  (17) 
-11.29368

>  <$/mg>  (17) 
163.0

>  <comRMSD>  (17) 
0.763521

>  <N_rotatable_bonds>  (17) 
3

>  <deep_P1_sidechain>  (17) 
nan

>  <farthest_distance_to_substrate>  (17) 
2.964129

>  <hbond:SER:7>  (17) 
hbond:SER:7    NaN
hbond:SER:7     -1
Name: 16, dtype: object

>  <halogenbond:SER:7>  (17) 
halogenbond:SER:7    NaN
halogenbond:SER:7     -1
Name: 16, dtype: object

>  <hbond:GLY:8>  (17) 
hbond:GLY:8    NaN
hbond:GLY:8     -1
Name: 16, dtype: object

>  <hydroph_interaction:VAL:18>  (17) 
hydroph_interaction:VAL:18    NaN
hydroph_interaction:VAL:18     -1
Name: 16, dtype: object

>  <hbond:ASN:19>  (17) 
hbond:ASN:19    NaN
hbond:ASN:19     -1
Name: 16, dtype: object

>  <hydroph_interaction:ASN:19>  (17) 
hydroph_interaction:ASN:19    NaN
hydroph_interaction:ASN:19     -1
Name: 16, dtype: object

>  <halogenbond:ASN:19>  (17) 
halogenbond:ASN:19    NaN
halogenbond:ASN:19     -1
Name: 16, dtype: object

>  <hbond:ARG:20>  (17) 
hbond:ARG:20    NaN
hbond:ARG:20     -1
Name: 16, dtype: object

>  <hydroph_interaction:ARG:20>  (17) 
hydroph_interaction:ARG:20    NaN
hydroph_interaction:ARG:20     -1
Name: 16, dtype: object

>  <saltbridge:ARG:20>  (17) 
saltbridge:ARG:20    NaN
saltbridge:ARG:20     -1
Name: 16, dtype: object

>  <halogenbond:ARG:20>  (17) 
halogenbond:ARG:20    NaN
halogenbond:ARG:20     -1
Name: 16, dtype: object

>  <pication:ARG:20>  (17) 
pication:ARG:20    NaN
pication:ARG:20     -1
Name: 16, dtype: object

>  <hbond:HIS:21>  (17) 
hbond:HIS:21    0.0
hbond:HIS:21      0
Name: 16, dtype: object

>  <hydroph_interaction:HIS:21>  (17) 
hydroph_interaction:HIS:21    NaN
hydroph_interaction:HIS:21     -1
Name: 16, dtype: object

>  <pistack:HIS:21>  (17) 
pistack:HIS:21    NaN
pistack:HIS:21     -1
Name: 16, dtype: object

>  <pication:HIS:21>  (17) 
pication:HIS:21    NaN
pication:HIS:21     -1
Name: 16, dtype: object

>  <saltbridge:HIS:21>  (17) 
saltbridge:HIS:21    0.0
saltbridge:HIS:21      0
Name: 16, dtype: object

>  <halogenbond:HIS:21>  (17) 
halogenbond:HIS:21    NaN
halogenbond:HIS:21     -1
Name: 16, dtype: object

>  <hydroph_interaction:LEU:22>  (17) 
hydroph_interaction:LEU:22    NaN
hydroph_interaction:LEU:22     -1
Name: 16, dtype: object

>  <hbond:LEU:22>  (17) 
hbond:LEU:22    NaN
hbond:LEU:22     -1
Name: 16, dtype: object

>  <hydroph_interaction:TRP:28>  (17) 
hydroph_interaction:TRP:28    NaN
hydroph_interaction:TRP:28     -1
Name: 16, dtype: object

>  <hbond:SER:36>  (17) 
hbond:SER:36    NaN
hbond:SER:36     -1
Name: 16, dtype: object

>  <halogenbond:SER:36>  (17) 
halogenbond:SER:36    NaN
halogenbond:SER:36     -1
Name: 16, dtype: object

>  <hbond:SER:37>  (17) 
hbond:SER:37    NaN
hbond:SER:37     -1
Name: 16, dtype: object

>  <hbond:ARG:38>  (17) 
hbond:ARG:38    NaN
hbond:ARG:38     -1
Name: 16, dtype: object

>  <halogenbond:ARG:38>  (17) 
halogenbond:ARG:38    NaN
halogenbond:ARG:38     -1
Name: 16, dtype: object

>  <saltbridge:ASP:39>  (17) 
saltbridge:ASP:39    NaN
saltbridge:ASP:39     -1
Name: 16, dtype: object

>  <halogenbond:ASP:39>  (17) 
halogenbond:ASP:39    NaN
halogenbond:ASP:39     -1
Name: 16, dtype: object

>  <hbond:ASP:39>  (17) 
hbond:ASP:39    NaN
hbond:ASP:39     -1
Name: 16, dtype: object

>  <hydroph_interaction:ASP:39>  (17) 
hydroph_interaction:ASP:39    NaN
hydroph_interaction:ASP:39     -1
Name: 16, dtype: object

>  <hydroph_interaction:LEU:40>  (17) 
hydroph_interaction:LEU:40    NaN
hydroph_interaction:LEU:40     -1
Name: 16, dtype: object

>  <hydroph_interaction:TYR:63>  (17) 
hydroph_interaction:TYR:63    NaN
hydroph_interaction:TYR:63     -1
Name: 16, dtype: object

>  <hbond:TYR:63>  (17) 
hbond:TYR:63    NaN
hbond:TYR:63     -1
Name: 16, dtype: object

>  <pistack:TYR:63>  (17) 
pistack:TYR:63    NaN
pistack:TYR:63     -1
Name: 16, dtype: object

>  <pication:TYR:63>  (17) 
pication:TYR:63    NaN
pication:TYR:63     -1
Name: 16, dtype: object

>  <halogenbond:TYR:64>  (17) 
halogenbond:TYR:64    NaN
halogenbond:TYR:64     -1
Name: 16, dtype: object

>  <hbond:TYR:64>  (17) 
hbond:TYR:64    NaN
hbond:TYR:64     -1
Name: 16, dtype: object

>  <hydroph_interaction:TYR:64>  (17) 
hydroph_interaction:TYR:64    NaN
hydroph_interaction:TYR:64     -1
Name: 16, dtype: object

>  <halogenbond:CYS:65>  (17) 
halogenbond:CYS:65    NaN
halogenbond:CYS:65     -1
Name: 16, dtype: object

>  <hbond:CYS:65>  (17) 
hbond:CYS:65    NaN
hbond:CYS:65     -1
Name: 16, dtype: object

>  <hbond:SER:66>  (17) 
hbond:SER:66    NaN
hbond:SER:66     -1
Name: 16, dtype: object

>  <halogenbond:SER:66>  (17) 
halogenbond:SER:66    NaN
halogenbond:SER:66     -1
Name: 16, dtype: object

>  <hbond:SER:67>  (17) 
hbond:SER:67    NaN
hbond:SER:67     -1
Name: 16, dtype: object

>  <halogenbond:SER:67>  (17) 
halogenbond:SER:67    NaN
halogenbond:SER:67     -1
Name: 16, dtype: object

>  <hbond:ARG:68>  (17) 
hbond:ARG:68    NaN
hbond:ARG:68     -1
Name: 16, dtype: object

>  <saltbridge:ARG:68>  (17) 
saltbridge:ARG:68    NaN
saltbridge:ARG:68     -1
Name: 16, dtype: object

>  <hydroph_interaction:ARG:68>  (17) 
hydroph_interaction:ARG:68    NaN
hydroph_interaction:ARG:68     -1
Name: 16, dtype: object

>  <pication:ARG:68>  (17) 
pication:ARG:68    NaN
pication:ARG:68     -1
Name: 16, dtype: object

>  <hydroph_interaction:TYR:72>  (17) 
hydroph_interaction:TYR:72    NaN
hydroph_interaction:TYR:72     -1
Name: 16, dtype: object

>  <hydroph_interaction:VAL:74>  (17) 
hydroph_interaction:VAL:74    NaN
hydroph_interaction:VAL:74     -1
Name: 16, dtype: object

>  <hydroph_interaction:PHE:76>  (17) 
hydroph_interaction:PHE:76    NaN
hydroph_interaction:PHE:76     -1
Name: 16, dtype: object

>  <hbond:SER:77>  (17) 
hbond:SER:77    NaN
hbond:SER:77     -1
Name: 16, dtype: object

>  <hbond:SER:80>  (17) 
hbond:SER:80    NaN
hbond:SER:80     -1
Name: 16, dtype: object

>  <hbond:LEU:81>  (17) 
hbond:LEU:81    NaN
hbond:LEU:81     -1
Name: 16, dtype: object

>  <halogenbond:LEU:81>  (17) 
halogenbond:LEU:81    NaN
halogenbond:LEU:81     -1
Name: 16, dtype: object

>  <hydroph_interaction:LEU:81>  (17) 
hydroph_interaction:LEU:81    NaN
hydroph_interaction:LEU:81     -1
Name: 16, dtype: object

>  <hydroph_interaction:ILE:82>  (17) 
hydroph_interaction:ILE:82    NaN
hydroph_interaction:ILE:82     -1
Name: 16, dtype: object

>  <halogenbond:ILE:82>  (17) 
halogenbond:ILE:82    NaN
halogenbond:ILE:82     -1
Name: 16, dtype: object

>  <hbond:ILE:82>  (17) 
hbond:ILE:82    NaN
hbond:ILE:82     -1
Name: 16, dtype: object

>  <hbond:PHE:83>  (17) 
hbond:PHE:83    NaN
hbond:PHE:83     -1
Name: 16, dtype: object

>  <hydroph_interaction:PHE:83>  (17) 
hydroph_interaction:PHE:83    NaN
hydroph_interaction:PHE:83     -1
Name: 16, dtype: object

>  <halogenbond:PHE:83>  (17) 
halogenbond:PHE:83    NaN
halogenbond:PHE:83     -1
Name: 16, dtype: object

>  <pistack:PHE:83>  (17) 
pistack:PHE:83    NaN
pistack:PHE:83     -1
Name: 16, dtype: object

>  <pication:PHE:83>  (17) 
pication:PHE:83    NaN
pication:PHE:83     -1
Name: 16, dtype: object

>  <hydroph_interaction:VAL:84>  (17) 
hydroph_interaction:VAL:84    NaN
hydroph_interaction:VAL:84     -1
Name: 16, dtype: object

>  <halogenbond:VAL:84>  (17) 
halogenbond:VAL:84    NaN
halogenbond:VAL:84     -1
Name: 16, dtype: object

>  <hbond:VAL:84>  (17) 
hbond:VAL:84    NaN
hbond:VAL:84     -1
Name: 16, dtype: object

>  <hydroph_interaction:GLU:85>  (17) 
hydroph_interaction:GLU:85    NaN
hydroph_interaction:GLU:85     -1
Name: 16, dtype: object

>  <hbond:GLU:85>  (17) 
hbond:GLU:85    NaN
hbond:GLU:85     -1
Name: 16, dtype: object

>  <halogenbond:GLU:85>  (17) 
halogenbond:GLU:85    NaN
halogenbond:GLU:85     -1
Name: 16, dtype: object

>  <saltbridge:GLU:85>  (17) 
saltbridge:GLU:85    NaN
saltbridge:GLU:85     -1
Name: 16, dtype: object

>  <halogenbond:ALA:86>  (17) 
halogenbond:ALA:86    NaN
halogenbond:ALA:86     -1
Name: 16, dtype: object

>  <hbond:ALA:86>  (17) 
hbond:ALA:86    NaN
hbond:ALA:86     -1
Name: 16, dtype: object

>  <hydroph_interaction:ALA:86>  (17) 
hydroph_interaction:ALA:86    NaN
hydroph_interaction:ALA:86     -1
Name: 16, dtype: object

>  <hbond:SER:87>  (17) 
hbond:SER:87    1
hbond:SER:87    1
Name: 16, dtype: object

>  <halogenbond:SER:87>  (17) 
halogenbond:SER:87    NaN
halogenbond:SER:87     -1
Name: 16, dtype: object

>  <hbond:GLU:88>  (17) 
hbond:GLU:88    0.0
hbond:GLU:88      0
Name: 16, dtype: object

>  <hydroph_interaction:GLU:88>  (17) 
hydroph_interaction:GLU:88    0.0
hydroph_interaction:GLU:88      0
Name: 16, dtype: object

>  <halogenbond:GLU:88>  (17) 
halogenbond:GLU:88    NaN
halogenbond:GLU:88     -1
Name: 16, dtype: object

>  <saltbridge:GLU:88>  (17) 
saltbridge:GLU:88    NaN
saltbridge:GLU:88     -1
Name: 16, dtype: object

>  <hydroph_interaction:TYR:89>  (17) 
hydroph_interaction:TYR:89    0.0
hydroph_interaction:TYR:89      0
Name: 16, dtype: object

>  <pistack:TYR:89>  (17) 
pistack:TYR:89    NaN
pistack:TYR:89     -1
Name: 16, dtype: object

>  <hbond:TYR:89>  (17) 
hbond:TYR:89    NaN
hbond:TYR:89     -1
Name: 16, dtype: object

>  <halogenbond:TYR:89>  (17) 
halogenbond:TYR:89    NaN
halogenbond:TYR:89     -1
Name: 16, dtype: object

>  <hydroph_interaction:TYR:90>  (17) 
hydroph_interaction:TYR:90    0.0
hydroph_interaction:TYR:90      0
Name: 16, dtype: object

>  <hbond:TYR:90>  (17) 
hbond:TYR:90    NaN
hbond:TYR:90     -1
Name: 16, dtype: object

>  <pistack:TYR:90>  (17) 
pistack:TYR:90    NaN
pistack:TYR:90     -1
Name: 16, dtype: object

>  <halogenbond:TYR:90>  (17) 
halogenbond:TYR:90    NaN
halogenbond:TYR:90     -1
Name: 16, dtype: object

>  <pication:TYR:90>  (17) 
pication:TYR:90    NaN
pication:TYR:90     -1
Name: 16, dtype: object

>  <hbond:PRO:91>  (17) 
hbond:PRO:91    NaN
hbond:PRO:91     -1
Name: 16, dtype: object

>  <hydroph_interaction:PRO:91>  (17) 
hydroph_interaction:PRO:91    NaN
hydroph_interaction:PRO:91     -1
Name: 16, dtype: object

>  <halogenbond:PRO:91>  (17) 
halogenbond:PRO:91    NaN
halogenbond:PRO:91     -1
Name: 16, dtype: object

>  <hbond:ALA:92>  (17) 
hbond:ALA:92    NaN
hbond:ALA:92     -1
Name: 16, dtype: object

>  <hydroph_interaction:ALA:92>  (17) 
hydroph_interaction:ALA:92    NaN
hydroph_interaction:ALA:92     -1
Name: 16, dtype: object

>  <saltbridge:ARG:93>  (17) 
saltbridge:ARG:93    NaN
saltbridge:ARG:93     -1
Name: 16, dtype: object

>  <hbond:ARG:93>  (17) 
hbond:ARG:93    NaN
hbond:ARG:93     -1
Name: 16, dtype: object

>  <hydroph_interaction:ARG:93>  (17) 
hydroph_interaction:ARG:93    NaN
hydroph_interaction:ARG:93     -1
Name: 16, dtype: object

>  <halogenbond:ARG:93>  (17) 
halogenbond:ARG:93    NaN
halogenbond:ARG:93     -1
Name: 16, dtype: object

>  <pication:ARG:93>  (17) 
pication:ARG:93    NaN
pication:ARG:93     -1
Name: 16, dtype: object

>  <hydroph_interaction:TYR:94>  (17) 
hydroph_interaction:TYR:94    NaN
hydroph_interaction:TYR:94     -1
Name: 16, dtype: object

>  <pistack:TYR:94>  (17) 
pistack:TYR:94    NaN
pistack:TYR:94     -1
Name: 16, dtype: object

>  <hbond:TYR:94>  (17) 
hbond:TYR:94    NaN
hbond:TYR:94     -1
Name: 16, dtype: object

>  <hbond:GLN:95>  (17) 
hbond:GLN:95    NaN
hbond:GLN:95     -1
Name: 16, dtype: object

>  <hydroph_interaction:GLN:95>  (17) 
hydroph_interaction:GLN:95    NaN
hydroph_interaction:GLN:95     -1
Name: 16, dtype: object

>  <halogenbond:GLN:95>  (17) 
halogenbond:GLN:95    NaN
halogenbond:GLN:95     -1
Name: 16, dtype: object

>  <hbond:SER:96>  (17) 
hbond:SER:96    NaN
hbond:SER:96     -1
Name: 16, dtype: object

>  <halogenbond:HIS:97>  (17) 
halogenbond:HIS:97    NaN
halogenbond:HIS:97     -1
Name: 16, dtype: object

>  <hydroph_interaction:LEU:98>  (17) 
hydroph_interaction:LEU:98    NaN
hydroph_interaction:LEU:98     -1
Name: 16, dtype: object

>  <hbond:LEU:98>  (17) 
hbond:LEU:98    NaN
hbond:LEU:98     -1
Name: 16, dtype: object

>  <halogenbond:LEU:98>  (17) 
halogenbond:LEU:98    NaN
halogenbond:LEU:98     -1
Name: 16, dtype: object

>  <hbond:MET:99>  (17) 
hbond:MET:99    NaN
hbond:MET:99     -1
Name: 16, dtype: object

>  <hydroph_interaction:MET:99>  (17) 
hydroph_interaction:MET:99    NaN
hydroph_interaction:MET:99     -1
Name: 16, dtype: object

>  <halogenbond:MET:99>  (17) 
halogenbond:MET:99    NaN
halogenbond:MET:99     -1
Name: 16, dtype: object

>  <hydroph_interaction:LEU:100>  (17) 
hydroph_interaction:LEU:100    NaN
hydroph_interaction:LEU:100     -1
Name: 16, dtype: object

>  <hbond:LEU:100>  (17) 
hbond:LEU:100    NaN
hbond:LEU:100     -1
Name: 16, dtype: object

>  <hbond:ALA:101>  (17) 
hbond:ALA:101    NaN
hbond:ALA:101     -1
Name: 16, dtype: object

>  <hydroph_interaction:ALA:101>  (17) 
hydroph_interaction:ALA:101    NaN
hydroph_interaction:ALA:101     -1
Name: 16, dtype: object

>  <hydroph_interaction:VAL:102>  (17) 
hydroph_interaction:VAL:102    NaN
hydroph_interaction:VAL:102     -1
Name: 16, dtype: object

>  <hbond:VAL:102>  (17) 
hbond:VAL:102    NaN
hbond:VAL:102     -1
Name: 16, dtype: object

>  <hbond:GLY:103>  (17) 
hbond:GLY:103    NaN
hbond:GLY:103     -1
Name: 16, dtype: object

>  <halogenbond:GLY:103>  (17) 
halogenbond:GLY:103    NaN
halogenbond:GLY:103     -1
Name: 16, dtype: object

>  <hbond:HIS:104>  (17) 
hbond:HIS:104    NaN
hbond:HIS:104     -1
Name: 16, dtype: object

>  <saltbridge:HIS:104>  (17) 
saltbridge:HIS:104    NaN
saltbridge:HIS:104     -1
Name: 16, dtype: object

>  <pication:HIS:104>  (17) 
pication:HIS:104    NaN
pication:HIS:104     -1
Name: 16, dtype: object

>  <halogenbond:HIS:104>  (17) 
halogenbond:HIS:104    NaN
halogenbond:HIS:104     -1
Name: 16, dtype: object

>  <hydroph_interaction:HIS:104>  (17) 
hydroph_interaction:HIS:104    NaN
hydroph_interaction:HIS:104     -1
Name: 16, dtype: object

>  <pistack:HIS:104>  (17) 
pistack:HIS:104    NaN
pistack:HIS:104     -1
Name: 16, dtype: object

>  <halogenbond:SER:105>  (17) 
halogenbond:SER:105    0.0
halogenbond:SER:105      0
Name: 16, dtype: object

>  <hbond:SER:105>  (17) 
hbond:SER:105    0.0
hbond:SER:105      0
Name: 16, dtype: object

>  <hbond:GLU:106>  (17) 
hbond:GLU:106    0.0
hbond:GLU:106      0
Name: 16, dtype: object

>  <hydroph_interaction:GLU:106>  (17) 
hydroph_interaction:GLU:106    NaN
hydroph_interaction:GLU:106     -1
Name: 16, dtype: object

>  <saltbridge:GLU:106>  (17) 
saltbridge:GLU:106    NaN
saltbridge:GLU:106     -1
Name: 16, dtype: object

>  <halogenbond:GLU:106>  (17) 
halogenbond:GLU:106    NaN
halogenbond:GLU:106     -1
Name: 16, dtype: object

>  <hydroph_interaction:PRO:107>  (17) 
hydroph_interaction:PRO:107    0
hydroph_interaction:PRO:107    0
Name: 16, dtype: object

>  <hbond:PRO:107>  (17) 
hbond:PRO:107    0.0
hbond:PRO:107      0
Name: 16, dtype: object

>  <halogenbond:PRO:107>  (17) 
halogenbond:PRO:107    NaN
halogenbond:PRO:107     -1
Name: 16, dtype: object

>  <hbond:GLY:108>  (17) 
hbond:GLY:108    NaN
hbond:GLY:108     -1
Name: 16, dtype: object

>  <halogenbond:GLY:108>  (17) 
halogenbond:GLY:108    NaN
halogenbond:GLY:108     -1
Name: 16, dtype: object

>  <hbond:ASP:109>  (17) 
hbond:ASP:109    0.0
hbond:ASP:109      0
Name: 16, dtype: object

>  <hydroph_interaction:ASP:109>  (17) 
hydroph_interaction:ASP:109    0.0
hydroph_interaction:ASP:109      0
Name: 16, dtype: object

>  <saltbridge:ASP:109>  (17) 
saltbridge:ASP:109    NaN
saltbridge:ASP:109     -1
Name: 16, dtype: object

>  <halogenbond:CYS:110>  (17) 
halogenbond:CYS:110    NaN
halogenbond:CYS:110     -1
Name: 16, dtype: object

>  <hbond:CYS:110>  (17) 
hbond:CYS:110    0.0
hbond:CYS:110      0
Name: 16, dtype: object

>  <hbond:GLY:111>  (17) 
hbond:GLY:111    NaN
hbond:GLY:111     -1
Name: 16, dtype: object

>  <hbond:GLY:112>  (17) 
hbond:GLY:112    NaN
hbond:GLY:112     -1
Name: 16, dtype: object

>  <hbond:ILE:113>  (17) 
hbond:ILE:113    NaN
hbond:ILE:113     -1
Name: 16, dtype: object

>  <hydroph_interaction:LEU:114>  (17) 
hydroph_interaction:LEU:114    NaN
hydroph_interaction:LEU:114     -1
Name: 16, dtype: object

>  <hbond:LEU:114>  (17) 
hbond:LEU:114    NaN
hbond:LEU:114     -1
Name: 16, dtype: object

>  <hydroph_interaction:ILE:123>  (17) 
hydroph_interaction:ILE:123    NaN
hydroph_interaction:ILE:123     -1
Name: 16, dtype: object

>  <hbond:ILE:123>  (17) 
hbond:ILE:123    NaN
hbond:ILE:123     -1
Name: 16, dtype: object

>  <hydroph_interaction:VAL:124>  (17) 
hydroph_interaction:VAL:124    1.0
hydroph_interaction:VAL:124      1
Name: 16, dtype: object

>  <hbond:VAL:124>  (17) 
hbond:VAL:124    NaN
hbond:VAL:124     -1
Name: 16, dtype: object

>  <halogenbond:VAL:124>  (17) 
halogenbond:VAL:124    NaN
halogenbond:VAL:124     -1
Name: 16, dtype: object

>  <hbond:SER:125>  (17) 
hbond:SER:125    2
hbond:SER:125    2
Name: 16, dtype: object

>  <halogenbond:SER:125>  (17) 
halogenbond:SER:125    NaN
halogenbond:SER:125     -1
Name: 16, dtype: object

>  <hydroph_interaction:THR:126>  (17) 
hydroph_interaction:THR:126    NaN
hydroph_interaction:THR:126     -1
Name: 16, dtype: object

>  <hbond:THR:126>  (17) 
hbond:THR:126    0.0
hbond:THR:126      0
Name: 16, dtype: object

>  <halogenbond:THR:126>  (17) 
halogenbond:THR:126    NaN
halogenbond:THR:126     -1
Name: 16, dtype: object

>  <hbond:GLY:127>  (17) 
hbond:GLY:127    0
hbond:GLY:127    0
Name: 16, dtype: object

>  <halogenbond:GLY:127>  (17) 
halogenbond:GLY:127    NaN
halogenbond:GLY:127     -1
Name: 16, dtype: object

>  <hydroph_interaction:GLY:127>  (17) 
hydroph_interaction:GLY:127    NaN
hydroph_interaction:GLY:127     -1
Name: 16, dtype: object

>  <hbond:GLY:128>  (17) 
hbond:GLY:128    NaN
hbond:GLY:128     -1
Name: 16, dtype: object

>  <halogenbond:GLY:128>  (17) 
halogenbond:GLY:128    NaN
halogenbond:GLY:128     -1
Name: 16, dtype: object

>  <hydroph_interaction:GLY:128>  (17) 
hydroph_interaction:GLY:128    NaN
hydroph_interaction:GLY:128     -1
Name: 16, dtype: object

>  <hbond:ASN:129>  (17) 
hbond:ASN:129    NaN
hbond:ASN:129     -1
Name: 16, dtype: object

>  <hydroph_interaction:ASN:129>  (17) 
hydroph_interaction:ASN:129    NaN
hydroph_interaction:ASN:129     -1
Name: 16, dtype: object

>  <halogenbond:ASN:129>  (17) 
halogenbond:ASN:129    NaN
halogenbond:ASN:129     -1
Name: 16, dtype: object

>  <hbond:GLY:130>  (17) 
hbond:GLY:130    NaN
hbond:GLY:130     -1
Name: 16, dtype: object

>  <hbond:LEU:131>  (17) 
hbond:LEU:131    NaN
hbond:LEU:131     -1
Name: 16, dtype: object

>  <hydroph_interaction:LEU:131>  (17) 
hydroph_interaction:LEU:131    NaN
hydroph_interaction:LEU:131     -1
Name: 16, dtype: object

>  <halogenbond:LEU:131>  (17) 
halogenbond:LEU:131    NaN
halogenbond:LEU:131     -1
Name: 16, dtype: object

>  <hydroph_interaction:VAL:132>  (17) 
hydroph_interaction:VAL:132    NaN
hydroph_interaction:VAL:132     -1
Name: 16, dtype: object

>  <hbond:VAL:132>  (17) 
hbond:VAL:132    NaN
hbond:VAL:132     -1
Name: 16, dtype: object

>  <hbond:GLY:133>  (17) 
hbond:GLY:133    NaN
hbond:GLY:133     -1
Name: 16, dtype: object

>  <halogenbond:GLY:133>  (17) 
halogenbond:GLY:133    NaN
halogenbond:GLY:133     -1
Name: 16, dtype: object

>  <hydroph_interaction:PHE:134>  (17) 
hydroph_interaction:PHE:134    NaN
hydroph_interaction:PHE:134     -1
Name: 16, dtype: object

>  <hbond:PHE:134>  (17) 
hbond:PHE:134    NaN
hbond:PHE:134     -1
Name: 16, dtype: object

>  <pistack:PHE:134>  (17) 
pistack:PHE:134    NaN
pistack:PHE:134     -1
Name: 16, dtype: object

>  <pication:PHE:134>  (17) 
pication:PHE:134    NaN
pication:PHE:134     -1
Name: 16, dtype: object

>  <halogenbond:PHE:134>  (17) 
halogenbond:PHE:134    NaN
halogenbond:PHE:134     -1
Name: 16, dtype: object

>  <hydroph_interaction:ALA:135>  (17) 
hydroph_interaction:ALA:135    NaN
hydroph_interaction:ALA:135     -1
Name: 16, dtype: object

>  <hbond:ALA:135>  (17) 
hbond:ALA:135    NaN
hbond:ALA:135     -1
Name: 16, dtype: object

$$$$
Z1500126901
     RDKit          3D

 21 22  0  0  0  0  0  0  0  0999 V2000
   12.2640   14.4970   22.0350 N   0  0  0  0  0  0  0  0  0  0  0  0
   11.3660   13.9520   22.9030 C   0  0  0  0  0  0  0  0  0  0  0  0
   11.2530   14.4540   24.2340 O   0  0  0  0  0  0  0  0  0  0  0  0
   10.6710   12.9350   22.3290 N   0  0  0  0  0  0  0  0  0  0  0  0
    9.9360   11.9670   23.0180 C   0  0  0  0  0  0  0  0  0  0  0  0
   10.1180   10.5240   22.8500 C   0  0  0  0  0  0  0  0  0  0  0  0
    9.4100    9.5730   23.5190 C   0  0  0  0  0  0  0  0  0  0  0  0
    8.4560   10.0350   24.4090 C   0  0  0  0  0  0  0  0  0  0  0  0
    8.2260   11.3880   24.6160 C   0  0  0  0  0  0  0  0  0  0  0  0
    8.9600   12.3590   23.9280 C   0  0  0  0  0  0  0  0  0  0  0  0
    8.4740   13.9560   24.3720 S   0  0  0  0  0  0  0  0  0  0  0  0
    7.3030   13.3830   25.4620 C   0  0  0  0  0  0  0  0  0  0  0  0
    7.2730   11.9880   25.4980 C   0  0  0  0  0  0  0  0  0  0  0  0
   12.4590   15.4840   22.2490 H   0  0  0  0  0  0  0  0  0  0  0  0
   11.9830   14.5370   21.0480 H   0  0  0  0  0  0  0  0  0  0  0  0
   10.9150   12.6440   21.3800 H   0  0  0  0  0  0  0  0  0  0  0  0
   10.8720   10.1870   22.1390 H   0  0  0  0  0  0  0  0  0  0  0  0
    9.5740    8.5170   23.3710 H   0  0  0  0  0  0  0  0  0  0  0  0
    7.8630    9.3300   24.9640 H   0  0  0  0  0  0  0  0  0  0  0  0
    6.6910   14.0740   26.0260 H   0  0  0  0  0  0  0  0  0  0  0  0
    6.5970   11.4250   26.1290 H   0  0  0  0  0  0  0  0  0  0  0  0
  1  2  1  0
  2  3  2  0
  2  4  1  0
  4  5  1  0
  5  6  2  0
  6  7  1  0
  7  8  2  0
  8  9  1  0
  9 10  2  0
 10 11  1  0
 11 12  1  0
 12 13  2  0
 10  5  1  0
 13  9  1  0
  1 14  1  0
  1 15  1  0
  4 16  1  0
  6 17  1  0
  7 18  1  0
  8 19  1  0
 12 20  1  0
 13 21  1  0
A    1
 N1 
A    2
 C1 
A    3
 O1 
A    4
 N2 
A    5
 C2 
A    6
 C3 
A    7
 C4 
A    8
 C5 
A    9
 C6 
A   10
 C7 
A   11
 S1 
A   12
 C8 
A   13
 C9 
A   14
 H1 
A   15
 H2 
A   16
 H3 
A   17
 H4 
A   18
 H5 
A   19
 H6 
A   20
 H7 
A   21
 H8 
M  END
>  <ref_pdb>  (18) 
x0310_0A

>  <ref_mols>  (18) 
x0554_0A,x0739_0A

>  <original SMILES>  (18) 
NC(=O)Nc1cccc2ccsc12

>  <rationale>  (18) 
info halogenbond:C110+G127+D39+A86+S125+E85+Q95+E106+E88+T126+P107+H104+Y64+C65+S87+N129+F83+R93+L131+I82+G128+P91+N19+H21+V84+G133+Y90+Y89+H97+L81+F134+L98+R20+G103+S66+S67+S7+G108+R38+V124+M99+S36; hbond:S87+S125+Y90+Q95+D39+A86+E85+G108+G103+G128+G130+L131+N129+N19+H104+R68+V124+R93+P91+F83+S67+S7+S66+G112+G133+V132+R20+Y89+S77+A135+Y63+A92+A101+M99+F134+L100+I82+Y64+S36+L98+V84+L81+Y94+S80+R38+S37+V102+G8+I123+G111+I113+L114+C65+L22+S96; hydroph_interaction:V84+T126+H21+L22+E85+E106+N129+D39+N19+L40+I123+A135+Q95+I82+L100+L98+L131+F83+R93+V132+Y63+F134+H104+R20+A86+V74+P91+A101+F76+M99+L114+A92+Y94+R68+Y72+Y64+V18+V102+W28+G127+G128+L81; pication:H21+H104+R93+Y63+F134+Y90+R68+F83+R20; pistack:H21+Y89+Y90+H104+F134+Y63+F83+Y94; saltbridge:D39+R93+H104+E106+D109+E85+E88+R68+R20; 

>  <intxn_cluster>  (18) 
-1

>  <intxn_cluster_rank>  (18) 
-1

>  <N_interactions>  (18) 
3

>  <∆∆G>  (18) 
-7.810666

>  <$/mg>  (18) 
0.0

>  <comRMSD>  (18) 
0.691681

>  <N_rotatable_bonds>  (18) 
1

>  <deep_P1_sidechain>  (18) 
nan

>  <farthest_distance_to_substrate>  (18) 
2.35564

>  <hbond:SER:7>  (18) 
hbond:SER:7    NaN
hbond:SER:7     -1
Name: 17, dtype: object

>  <halogenbond:SER:7>  (18) 
halogenbond:SER:7    NaN
halogenbond:SER:7     -1
Name: 17, dtype: object

>  <hbond:GLY:8>  (18) 
hbond:GLY:8    NaN
hbond:GLY:8     -1
Name: 17, dtype: object

>  <hydroph_interaction:VAL:18>  (18) 
hydroph_interaction:VAL:18    NaN
hydroph_interaction:VAL:18     -1
Name: 17, dtype: object

>  <hbond:ASN:19>  (18) 
hbond:ASN:19    NaN
hbond:ASN:19     -1
Name: 17, dtype: object

>  <hydroph_interaction:ASN:19>  (18) 
hydroph_interaction:ASN:19    NaN
hydroph_interaction:ASN:19     -1
Name: 17, dtype: object

>  <halogenbond:ASN:19>  (18) 
halogenbond:ASN:19    NaN
halogenbond:ASN:19     -1
Name: 17, dtype: object

>  <hbond:ARG:20>  (18) 
hbond:ARG:20    NaN
hbond:ARG:20     -1
Name: 17, dtype: object

>  <hydroph_interaction:ARG:20>  (18) 
hydroph_interaction:ARG:20    NaN
hydroph_interaction:ARG:20     -1
Name: 17, dtype: object

>  <saltbridge:ARG:20>  (18) 
saltbridge:ARG:20    NaN
saltbridge:ARG:20     -1
Name: 17, dtype: object

>  <halogenbond:ARG:20>  (18) 
halogenbond:ARG:20    NaN
halogenbond:ARG:20     -1
Name: 17, dtype: object

>  <pication:ARG:20>  (18) 
pication:ARG:20    NaN
pication:ARG:20     -1
Name: 17, dtype: object

>  <hbond:HIS:21>  (18) 
hbond:HIS:21    0.0
hbond:HIS:21      0
Name: 17, dtype: object

>  <hydroph_interaction:HIS:21>  (18) 
hydroph_interaction:HIS:21    NaN
hydroph_interaction:HIS:21     -1
Name: 17, dtype: object

>  <pistack:HIS:21>  (18) 
pistack:HIS:21    NaN
pistack:HIS:21     -1
Name: 17, dtype: object

>  <pication:HIS:21>  (18) 
pication:HIS:21    NaN
pication:HIS:21     -1
Name: 17, dtype: object

>  <saltbridge:HIS:21>  (18) 
saltbridge:HIS:21    0.0
saltbridge:HIS:21      0
Name: 17, dtype: object

>  <halogenbond:HIS:21>  (18) 
halogenbond:HIS:21    NaN
halogenbond:HIS:21     -1
Name: 17, dtype: object

>  <hydroph_interaction:LEU:22>  (18) 
hydroph_interaction:LEU:22    NaN
hydroph_interaction:LEU:22     -1
Name: 17, dtype: object

>  <hbond:LEU:22>  (18) 
hbond:LEU:22    NaN
hbond:LEU:22     -1
Name: 17, dtype: object

>  <hydroph_interaction:TRP:28>  (18) 
hydroph_interaction:TRP:28    NaN
hydroph_interaction:TRP:28     -1
Name: 17, dtype: object

>  <hbond:SER:36>  (18) 
hbond:SER:36    NaN
hbond:SER:36     -1
Name: 17, dtype: object

>  <halogenbond:SER:36>  (18) 
halogenbond:SER:36    NaN
halogenbond:SER:36     -1
Name: 17, dtype: object

>  <hbond:SER:37>  (18) 
hbond:SER:37    NaN
hbond:SER:37     -1
Name: 17, dtype: object

>  <hbond:ARG:38>  (18) 
hbond:ARG:38    NaN
hbond:ARG:38     -1
Name: 17, dtype: object

>  <halogenbond:ARG:38>  (18) 
halogenbond:ARG:38    NaN
halogenbond:ARG:38     -1
Name: 17, dtype: object

>  <saltbridge:ASP:39>  (18) 
saltbridge:ASP:39    NaN
saltbridge:ASP:39     -1
Name: 17, dtype: object

>  <halogenbond:ASP:39>  (18) 
halogenbond:ASP:39    NaN
halogenbond:ASP:39     -1
Name: 17, dtype: object

>  <hbond:ASP:39>  (18) 
hbond:ASP:39    NaN
hbond:ASP:39     -1
Name: 17, dtype: object

>  <hydroph_interaction:ASP:39>  (18) 
hydroph_interaction:ASP:39    NaN
hydroph_interaction:ASP:39     -1
Name: 17, dtype: object

>  <hydroph_interaction:LEU:40>  (18) 
hydroph_interaction:LEU:40    NaN
hydroph_interaction:LEU:40     -1
Name: 17, dtype: object

>  <hydroph_interaction:TYR:63>  (18) 
hydroph_interaction:TYR:63    NaN
hydroph_interaction:TYR:63     -1
Name: 17, dtype: object

>  <hbond:TYR:63>  (18) 
hbond:TYR:63    NaN
hbond:TYR:63     -1
Name: 17, dtype: object

>  <pistack:TYR:63>  (18) 
pistack:TYR:63    NaN
pistack:TYR:63     -1
Name: 17, dtype: object

>  <pication:TYR:63>  (18) 
pication:TYR:63    NaN
pication:TYR:63     -1
Name: 17, dtype: object

>  <halogenbond:TYR:64>  (18) 
halogenbond:TYR:64    NaN
halogenbond:TYR:64     -1
Name: 17, dtype: object

>  <hbond:TYR:64>  (18) 
hbond:TYR:64    NaN
hbond:TYR:64     -1
Name: 17, dtype: object

>  <hydroph_interaction:TYR:64>  (18) 
hydroph_interaction:TYR:64    NaN
hydroph_interaction:TYR:64     -1
Name: 17, dtype: object

>  <halogenbond:CYS:65>  (18) 
halogenbond:CYS:65    NaN
halogenbond:CYS:65     -1
Name: 17, dtype: object

>  <hbond:CYS:65>  (18) 
hbond:CYS:65    NaN
hbond:CYS:65     -1
Name: 17, dtype: object

>  <hbond:SER:66>  (18) 
hbond:SER:66    NaN
hbond:SER:66     -1
Name: 17, dtype: object

>  <halogenbond:SER:66>  (18) 
halogenbond:SER:66    NaN
halogenbond:SER:66     -1
Name: 17, dtype: object

>  <hbond:SER:67>  (18) 
hbond:SER:67    NaN
hbond:SER:67     -1
Name: 17, dtype: object

>  <halogenbond:SER:67>  (18) 
halogenbond:SER:67    NaN
halogenbond:SER:67     -1
Name: 17, dtype: object

>  <hbond:ARG:68>  (18) 
hbond:ARG:68    NaN
hbond:ARG:68     -1
Name: 17, dtype: object

>  <saltbridge:ARG:68>  (18) 
saltbridge:ARG:68    NaN
saltbridge:ARG:68     -1
Name: 17, dtype: object

>  <hydroph_interaction:ARG:68>  (18) 
hydroph_interaction:ARG:68    NaN
hydroph_interaction:ARG:68     -1
Name: 17, dtype: object

>  <pication:ARG:68>  (18) 
pication:ARG:68    NaN
pication:ARG:68     -1
Name: 17, dtype: object

>  <hydroph_interaction:TYR:72>  (18) 
hydroph_interaction:TYR:72    NaN
hydroph_interaction:TYR:72     -1
Name: 17, dtype: object

>  <hydroph_interaction:VAL:74>  (18) 
hydroph_interaction:VAL:74    NaN
hydroph_interaction:VAL:74     -1
Name: 17, dtype: object

>  <hydroph_interaction:PHE:76>  (18) 
hydroph_interaction:PHE:76    NaN
hydroph_interaction:PHE:76     -1
Name: 17, dtype: object

>  <hbond:SER:77>  (18) 
hbond:SER:77    NaN
hbond:SER:77     -1
Name: 17, dtype: object

>  <hbond:SER:80>  (18) 
hbond:SER:80    NaN
hbond:SER:80     -1
Name: 17, dtype: object

>  <hbond:LEU:81>  (18) 
hbond:LEU:81    NaN
hbond:LEU:81     -1
Name: 17, dtype: object

>  <halogenbond:LEU:81>  (18) 
halogenbond:LEU:81    NaN
halogenbond:LEU:81     -1
Name: 17, dtype: object

>  <hydroph_interaction:LEU:81>  (18) 
hydroph_interaction:LEU:81    NaN
hydroph_interaction:LEU:81     -1
Name: 17, dtype: object

>  <hydroph_interaction:ILE:82>  (18) 
hydroph_interaction:ILE:82    NaN
hydroph_interaction:ILE:82     -1
Name: 17, dtype: object

>  <halogenbond:ILE:82>  (18) 
halogenbond:ILE:82    NaN
halogenbond:ILE:82     -1
Name: 17, dtype: object

>  <hbond:ILE:82>  (18) 
hbond:ILE:82    NaN
hbond:ILE:82     -1
Name: 17, dtype: object

>  <hbond:PHE:83>  (18) 
hbond:PHE:83    NaN
hbond:PHE:83     -1
Name: 17, dtype: object

>  <hydroph_interaction:PHE:83>  (18) 
hydroph_interaction:PHE:83    NaN
hydroph_interaction:PHE:83     -1
Name: 17, dtype: object

>  <halogenbond:PHE:83>  (18) 
halogenbond:PHE:83    NaN
halogenbond:PHE:83     -1
Name: 17, dtype: object

>  <pistack:PHE:83>  (18) 
pistack:PHE:83    NaN
pistack:PHE:83     -1
Name: 17, dtype: object

>  <pication:PHE:83>  (18) 
pication:PHE:83    NaN
pication:PHE:83     -1
Name: 17, dtype: object

>  <hydroph_interaction:VAL:84>  (18) 
hydroph_interaction:VAL:84    NaN
hydroph_interaction:VAL:84     -1
Name: 17, dtype: object

>  <halogenbond:VAL:84>  (18) 
halogenbond:VAL:84    NaN
halogenbond:VAL:84     -1
Name: 17, dtype: object

>  <hbond:VAL:84>  (18) 
hbond:VAL:84    NaN
hbond:VAL:84     -1
Name: 17, dtype: object

>  <hydroph_interaction:GLU:85>  (18) 
hydroph_interaction:GLU:85    NaN
hydroph_interaction:GLU:85     -1
Name: 17, dtype: object

>  <hbond:GLU:85>  (18) 
hbond:GLU:85    NaN
hbond:GLU:85     -1
Name: 17, dtype: object

>  <halogenbond:GLU:85>  (18) 
halogenbond:GLU:85    NaN
halogenbond:GLU:85     -1
Name: 17, dtype: object

>  <saltbridge:GLU:85>  (18) 
saltbridge:GLU:85    NaN
saltbridge:GLU:85     -1
Name: 17, dtype: object

>  <halogenbond:ALA:86>  (18) 
halogenbond:ALA:86    NaN
halogenbond:ALA:86     -1
Name: 17, dtype: object

>  <hbond:ALA:86>  (18) 
hbond:ALA:86    NaN
hbond:ALA:86     -1
Name: 17, dtype: object

>  <hydroph_interaction:ALA:86>  (18) 
hydroph_interaction:ALA:86    NaN
hydroph_interaction:ALA:86     -1
Name: 17, dtype: object

>  <hbond:SER:87>  (18) 
hbond:SER:87    1
hbond:SER:87    1
Name: 17, dtype: object

>  <halogenbond:SER:87>  (18) 
halogenbond:SER:87    NaN
halogenbond:SER:87     -1
Name: 17, dtype: object

>  <hbond:GLU:88>  (18) 
hbond:GLU:88    0.0
hbond:GLU:88      0
Name: 17, dtype: object

>  <hydroph_interaction:GLU:88>  (18) 
hydroph_interaction:GLU:88    0.0
hydroph_interaction:GLU:88      0
Name: 17, dtype: object

>  <halogenbond:GLU:88>  (18) 
halogenbond:GLU:88    NaN
halogenbond:GLU:88     -1
Name: 17, dtype: object

>  <saltbridge:GLU:88>  (18) 
saltbridge:GLU:88    NaN
saltbridge:GLU:88     -1
Name: 17, dtype: object

>  <hydroph_interaction:TYR:89>  (18) 
hydroph_interaction:TYR:89    0.0
hydroph_interaction:TYR:89      0
Name: 17, dtype: object

>  <pistack:TYR:89>  (18) 
pistack:TYR:89    NaN
pistack:TYR:89     -1
Name: 17, dtype: object

>  <hbond:TYR:89>  (18) 
hbond:TYR:89    NaN
hbond:TYR:89     -1
Name: 17, dtype: object

>  <halogenbond:TYR:89>  (18) 
halogenbond:TYR:89    NaN
halogenbond:TYR:89     -1
Name: 17, dtype: object

>  <hydroph_interaction:TYR:90>  (18) 
hydroph_interaction:TYR:90    0.0
hydroph_interaction:TYR:90      0
Name: 17, dtype: object

>  <hbond:TYR:90>  (18) 
hbond:TYR:90    NaN
hbond:TYR:90     -1
Name: 17, dtype: object

>  <pistack:TYR:90>  (18) 
pistack:TYR:90    NaN
pistack:TYR:90     -1
Name: 17, dtype: object

>  <halogenbond:TYR:90>  (18) 
halogenbond:TYR:90    NaN
halogenbond:TYR:90     -1
Name: 17, dtype: object

>  <pication:TYR:90>  (18) 
pication:TYR:90    NaN
pication:TYR:90     -1
Name: 17, dtype: object

>  <hbond:PRO:91>  (18) 
hbond:PRO:91    NaN
hbond:PRO:91     -1
Name: 17, dtype: object

>  <hydroph_interaction:PRO:91>  (18) 
hydroph_interaction:PRO:91    NaN
hydroph_interaction:PRO:91     -1
Name: 17, dtype: object

>  <halogenbond:PRO:91>  (18) 
halogenbond:PRO:91    NaN
halogenbond:PRO:91     -1
Name: 17, dtype: object

>  <hbond:ALA:92>  (18) 
hbond:ALA:92    NaN
hbond:ALA:92     -1
Name: 17, dtype: object

>  <hydroph_interaction:ALA:92>  (18) 
hydroph_interaction:ALA:92    NaN
hydroph_interaction:ALA:92     -1
Name: 17, dtype: object

>  <saltbridge:ARG:93>  (18) 
saltbridge:ARG:93    NaN
saltbridge:ARG:93     -1
Name: 17, dtype: object

>  <hbond:ARG:93>  (18) 
hbond:ARG:93    NaN
hbond:ARG:93     -1
Name: 17, dtype: object

>  <hydroph_interaction:ARG:93>  (18) 
hydroph_interaction:ARG:93    NaN
hydroph_interaction:ARG:93     -1
Name: 17, dtype: object

>  <halogenbond:ARG:93>  (18) 
halogenbond:ARG:93    NaN
halogenbond:ARG:93     -1
Name: 17, dtype: object

>  <pication:ARG:93>  (18) 
pication:ARG:93    NaN
pication:ARG:93     -1
Name: 17, dtype: object

>  <hydroph_interaction:TYR:94>  (18) 
hydroph_interaction:TYR:94    NaN
hydroph_interaction:TYR:94     -1
Name: 17, dtype: object

>  <pistack:TYR:94>  (18) 
pistack:TYR:94    NaN
pistack:TYR:94     -1
Name: 17, dtype: object

>  <hbond:TYR:94>  (18) 
hbond:TYR:94    NaN
hbond:TYR:94     -1
Name: 17, dtype: object

>  <hbond:GLN:95>  (18) 
hbond:GLN:95    NaN
hbond:GLN:95     -1
Name: 17, dtype: object

>  <hydroph_interaction:GLN:95>  (18) 
hydroph_interaction:GLN:95    NaN
hydroph_interaction:GLN:95     -1
Name: 17, dtype: object

>  <halogenbond:GLN:95>  (18) 
halogenbond:GLN:95    NaN
halogenbond:GLN:95     -1
Name: 17, dtype: object

>  <hbond:SER:96>  (18) 
hbond:SER:96    NaN
hbond:SER:96     -1
Name: 17, dtype: object

>  <halogenbond:HIS:97>  (18) 
halogenbond:HIS:97    NaN
halogenbond:HIS:97     -1
Name: 17, dtype: object

>  <hydroph_interaction:LEU:98>  (18) 
hydroph_interaction:LEU:98    NaN
hydroph_interaction:LEU:98     -1
Name: 17, dtype: object

>  <hbond:LEU:98>  (18) 
hbond:LEU:98    NaN
hbond:LEU:98     -1
Name: 17, dtype: object

>  <halogenbond:LEU:98>  (18) 
halogenbond:LEU:98    NaN
halogenbond:LEU:98     -1
Name: 17, dtype: object

>  <hbond:MET:99>  (18) 
hbond:MET:99    NaN
hbond:MET:99     -1
Name: 17, dtype: object

>  <hydroph_interaction:MET:99>  (18) 
hydroph_interaction:MET:99    NaN
hydroph_interaction:MET:99     -1
Name: 17, dtype: object

>  <halogenbond:MET:99>  (18) 
halogenbond:MET:99    NaN
halogenbond:MET:99     -1
Name: 17, dtype: object

>  <hydroph_interaction:LEU:100>  (18) 
hydroph_interaction:LEU:100    NaN
hydroph_interaction:LEU:100     -1
Name: 17, dtype: object

>  <hbond:LEU:100>  (18) 
hbond:LEU:100    NaN
hbond:LEU:100     -1
Name: 17, dtype: object

>  <hbond:ALA:101>  (18) 
hbond:ALA:101    NaN
hbond:ALA:101     -1
Name: 17, dtype: object

>  <hydroph_interaction:ALA:101>  (18) 
hydroph_interaction:ALA:101    NaN
hydroph_interaction:ALA:101     -1
Name: 17, dtype: object

>  <hydroph_interaction:VAL:102>  (18) 
hydroph_interaction:VAL:102    NaN
hydroph_interaction:VAL:102     -1
Name: 17, dtype: object

>  <hbond:VAL:102>  (18) 
hbond:VAL:102    NaN
hbond:VAL:102     -1
Name: 17, dtype: object

>  <hbond:GLY:103>  (18) 
hbond:GLY:103    NaN
hbond:GLY:103     -1
Name: 17, dtype: object

>  <halogenbond:GLY:103>  (18) 
halogenbond:GLY:103    NaN
halogenbond:GLY:103     -1
Name: 17, dtype: object

>  <hbond:HIS:104>  (18) 
hbond:HIS:104    NaN
hbond:HIS:104     -1
Name: 17, dtype: object

>  <saltbridge:HIS:104>  (18) 
saltbridge:HIS:104    NaN
saltbridge:HIS:104     -1
Name: 17, dtype: object

>  <pication:HIS:104>  (18) 
pication:HIS:104    NaN
pication:HIS:104     -1
Name: 17, dtype: object

>  <halogenbond:HIS:104>  (18) 
halogenbond:HIS:104    NaN
halogenbond:HIS:104     -1
Name: 17, dtype: object

>  <hydroph_interaction:HIS:104>  (18) 
hydroph_interaction:HIS:104    NaN
hydroph_interaction:HIS:104     -1
Name: 17, dtype: object

>  <pistack:HIS:104>  (18) 
pistack:HIS:104    NaN
pistack:HIS:104     -1
Name: 17, dtype: object

>  <halogenbond:SER:105>  (18) 
halogenbond:SER:105    0.0
halogenbond:SER:105      0
Name: 17, dtype: object

>  <hbond:SER:105>  (18) 
hbond:SER:105    0.0
hbond:SER:105      0
Name: 17, dtype: object

>  <hbond:GLU:106>  (18) 
hbond:GLU:106    0.0
hbond:GLU:106      0
Name: 17, dtype: object

>  <hydroph_interaction:GLU:106>  (18) 
hydroph_interaction:GLU:106    NaN
hydroph_interaction:GLU:106     -1
Name: 17, dtype: object

>  <saltbridge:GLU:106>  (18) 
saltbridge:GLU:106    NaN
saltbridge:GLU:106     -1
Name: 17, dtype: object

>  <halogenbond:GLU:106>  (18) 
halogenbond:GLU:106    NaN
halogenbond:GLU:106     -1
Name: 17, dtype: object

>  <hydroph_interaction:PRO:107>  (18) 
hydroph_interaction:PRO:107    0
hydroph_interaction:PRO:107    0
Name: 17, dtype: object

>  <hbond:PRO:107>  (18) 
hbond:PRO:107    0.0
hbond:PRO:107      0
Name: 17, dtype: object

>  <halogenbond:PRO:107>  (18) 
halogenbond:PRO:107    NaN
halogenbond:PRO:107     -1
Name: 17, dtype: object

>  <hbond:GLY:108>  (18) 
hbond:GLY:108    NaN
hbond:GLY:108     -1
Name: 17, dtype: object

>  <halogenbond:GLY:108>  (18) 
halogenbond:GLY:108    NaN
halogenbond:GLY:108     -1
Name: 17, dtype: object

>  <hbond:ASP:109>  (18) 
hbond:ASP:109    0.0
hbond:ASP:109      0
Name: 17, dtype: object

>  <hydroph_interaction:ASP:109>  (18) 
hydroph_interaction:ASP:109    0.0
hydroph_interaction:ASP:109      0
Name: 17, dtype: object

>  <saltbridge:ASP:109>  (18) 
saltbridge:ASP:109    NaN
saltbridge:ASP:109     -1
Name: 17, dtype: object

>  <halogenbond:CYS:110>  (18) 
halogenbond:CYS:110    NaN
halogenbond:CYS:110     -1
Name: 17, dtype: object

>  <hbond:CYS:110>  (18) 
hbond:CYS:110    0.0
hbond:CYS:110      0
Name: 17, dtype: object

>  <hbond:GLY:111>  (18) 
hbond:GLY:111    NaN
hbond:GLY:111     -1
Name: 17, dtype: object

>  <hbond:GLY:112>  (18) 
hbond:GLY:112    NaN
hbond:GLY:112     -1
Name: 17, dtype: object

>  <hbond:ILE:113>  (18) 
hbond:ILE:113    NaN
hbond:ILE:113     -1
Name: 17, dtype: object

>  <hydroph_interaction:LEU:114>  (18) 
hydroph_interaction:LEU:114    NaN
hydroph_interaction:LEU:114     -1
Name: 17, dtype: object

>  <hbond:LEU:114>  (18) 
hbond:LEU:114    NaN
hbond:LEU:114     -1
Name: 17, dtype: object

>  <hydroph_interaction:ILE:123>  (18) 
hydroph_interaction:ILE:123    NaN
hydroph_interaction:ILE:123     -1
Name: 17, dtype: object

>  <hbond:ILE:123>  (18) 
hbond:ILE:123    NaN
hbond:ILE:123     -1
Name: 17, dtype: object

>  <hydroph_interaction:VAL:124>  (18) 
hydroph_interaction:VAL:124    0.0
hydroph_interaction:VAL:124      0
Name: 17, dtype: object

>  <hbond:VAL:124>  (18) 
hbond:VAL:124    NaN
hbond:VAL:124     -1
Name: 17, dtype: object

>  <halogenbond:VAL:124>  (18) 
halogenbond:VAL:124    NaN
halogenbond:VAL:124     -1
Name: 17, dtype: object

>  <hbond:SER:125>  (18) 
hbond:SER:125    2
hbond:SER:125    2
Name: 17, dtype: object

>  <halogenbond:SER:125>  (18) 
halogenbond:SER:125    NaN
halogenbond:SER:125     -1
Name: 17, dtype: object

>  <hydroph_interaction:THR:126>  (18) 
hydroph_interaction:THR:126    NaN
hydroph_interaction:THR:126     -1
Name: 17, dtype: object

>  <hbond:THR:126>  (18) 
hbond:THR:126    0.0
hbond:THR:126      0
Name: 17, dtype: object

>  <halogenbond:THR:126>  (18) 
halogenbond:THR:126    NaN
halogenbond:THR:126     -1
Name: 17, dtype: object

>  <hbond:GLY:127>  (18) 
hbond:GLY:127    0
hbond:GLY:127    0
Name: 17, dtype: object

>  <halogenbond:GLY:127>  (18) 
halogenbond:GLY:127    NaN
halogenbond:GLY:127     -1
Name: 17, dtype: object

>  <hydroph_interaction:GLY:127>  (18) 
hydroph_interaction:GLY:127    NaN
hydroph_interaction:GLY:127     -1
Name: 17, dtype: object

>  <hbond:GLY:128>  (18) 
hbond:GLY:128    NaN
hbond:GLY:128     -1
Name: 17, dtype: object

>  <halogenbond:GLY:128>  (18) 
halogenbond:GLY:128    NaN
halogenbond:GLY:128     -1
Name: 17, dtype: object

>  <hydroph_interaction:GLY:128>  (18) 
hydroph_interaction:GLY:128    NaN
hydroph_interaction:GLY:128     -1
Name: 17, dtype: object

>  <hbond:ASN:129>  (18) 
hbond:ASN:129    NaN
hbond:ASN:129     -1
Name: 17, dtype: object

>  <hydroph_interaction:ASN:129>  (18) 
hydroph_interaction:ASN:129    NaN
hydroph_interaction:ASN:129     -1
Name: 17, dtype: object

>  <halogenbond:ASN:129>  (18) 
halogenbond:ASN:129    NaN
halogenbond:ASN:129     -1
Name: 17, dtype: object

>  <hbond:GLY:130>  (18) 
hbond:GLY:130    NaN
hbond:GLY:130     -1
Name: 17, dtype: object

>  <hbond:LEU:131>  (18) 
hbond:LEU:131    NaN
hbond:LEU:131     -1
Name: 17, dtype: object

>  <hydroph_interaction:LEU:131>  (18) 
hydroph_interaction:LEU:131    NaN
hydroph_interaction:LEU:131     -1
Name: 17, dtype: object

>  <halogenbond:LEU:131>  (18) 
halogenbond:LEU:131    NaN
halogenbond:LEU:131     -1
Name: 17, dtype: object

>  <hydroph_interaction:VAL:132>  (18) 
hydroph_interaction:VAL:132    NaN
hydroph_interaction:VAL:132     -1
Name: 17, dtype: object

>  <hbond:VAL:132>  (18) 
hbond:VAL:132    NaN
hbond:VAL:132     -1
Name: 17, dtype: object

>  <hbond:GLY:133>  (18) 
hbond:GLY:133    NaN
hbond:GLY:133     -1
Name: 17, dtype: object

>  <halogenbond:GLY:133>  (18) 
halogenbond:GLY:133    NaN
halogenbond:GLY:133     -1
Name: 17, dtype: object

>  <hydroph_interaction:PHE:134>  (18) 
hydroph_interaction:PHE:134    NaN
hydroph_interaction:PHE:134     -1
Name: 17, dtype: object

>  <hbond:PHE:134>  (18) 
hbond:PHE:134    NaN
hbond:PHE:134     -1
Name: 17, dtype: object

>  <pistack:PHE:134>  (18) 
pistack:PHE:134    NaN
pistack:PHE:134     -1
Name: 17, dtype: object

>  <pication:PHE:134>  (18) 
pication:PHE:134    NaN
pication:PHE:134     -1
Name: 17, dtype: object

>  <halogenbond:PHE:134>  (18) 
halogenbond:PHE:134    NaN
halogenbond:PHE:134     -1
Name: 17, dtype: object

>  <hydroph_interaction:ALA:135>  (18) 
hydroph_interaction:ALA:135    NaN
hydroph_interaction:ALA:135     -1
Name: 17, dtype: object

>  <hbond:ALA:135>  (18) 
hbond:ALA:135    NaN
hbond:ALA:135     -1
Name: 17, dtype: object

$$$$
Z5180489862
     RDKit          3D

 22 23  0  0  0  0  0  0  0  0999 V2000
   10.5060    9.4910   22.3650 C   0  0  0  0  0  0  0  0  0  0  0  0
    9.6440   10.3690   23.2290 C   0  0  0  0  0  0  0  0  0  0  0  0
    9.6950   11.9070   23.2120 C   0  0  0  0  0  0  0  0  0  0  0  0
   10.5800   12.7360   22.3700 N   0  0  0  0  0  0  0  0  0  0  0  0
   11.5210   13.6150   22.9360 C   0  0  0  0  0  0  0  0  0  0  0  0
   12.0710   14.4330   21.9880 N   0  0  0  0  0  0  0  0  0  0  0  0
   11.8590   13.7140   24.1020 O   0  0  0  0  0  0  0  0  0  0  0  0
    8.7110   12.5380   24.1690 C   0  0  0  0  0  0  0  0  0  0  0  0
    8.4500   13.8220   24.4400 N   0  0  0  0  0  0  0  0  0  0  0  0
    7.4550   13.8290   25.3900 O   0  0  0  0  0  0  0  0  0  0  0  0
    7.0870   12.5480   25.7230 N   0  0  0  0  0  0  0  0  0  0  0  0
    7.8620   11.7710   24.9700 C   0  0  0  0  0  0  0  0  0  0  0  0
    7.8760   10.3900   24.9340 C   0  0  0  0  0  0  0  0  0  0  0  0
    8.7460    9.7530   24.0850 C   0  0  0  0  0  0  0  0  0  0  0  0
   11.2680    8.9640   22.9510 H   0  0  0  0  0  0  0  0  0  0  0  0
   10.9930   10.0670   21.6040 H   0  0  0  0  0  0  0  0  0  0  0  0
    9.8920    8.7390   21.8640 H   0  0  0  0  0  0  0  0  0  0  0  0
   10.8550   12.3640   21.4670 H   0  0  0  0  0  0  0  0  0  0  0  0
   11.4950   14.4700   21.1520 H   0  0  0  0  0  0  0  0  0  0  0  0
   12.3230   15.3510   22.3220 H   0  0  0  0  0  0  0  0  0  0  0  0
    7.2050    9.8340   25.5690 H   0  0  0  0  0  0  0  0  0  0  0  0
    8.6580    8.6900   24.1480 H   0  0  0  0  0  0  0  0  0  0  0  0
  1  2  1  0
  2  3  2  0
  3  4  1  0
  4  5  1  0
  5  6  1  0
  5  7  2  0
  3  8  1  0
  8  9  2  0
  9 10  1  0
 10 11  1  0
 11 12  2  0
 12 13  1  0
 13 14  2  0
 14  2  1  0
 12  8  1  0
  1 15  1  0
  1 16  1  0
  1 17  1  0
  4 18  1  0
  6 19  1  0
  6 20  1  0
 13 21  1  0
 14 22  1  0
A    1
 C1 
A    2
 C2 
A    3
 C3 
A    4
 N1 
A    5
 C4 
A    6
 N2 
A    7
 O1 
A    8
 C5 
A    9
 N3 
A   10
 O2 
A   11
 N4 
A   12
 C6 
A   13
 C7 
A   14
 C8 
A   15
 H1 
A   16
 H2 
A   17
 H3 
A   18
 H4 
A   19
 H5 
A   20
 H6 
A   21
 H7 
A   22
 H8 
M  END
>  <ref_pdb>  (19) 
x0310_0A

>  <ref_mols>  (19) 
x0554_0A,x0922_0A

>  <original SMILES>  (19) 
Cc1ccc2nonc2c1NC(N)=O

>  <rationale>  (19) 
info halogenbond:C110+G127+A86+S125+E85+Q95+E106+E88+T126+P107+H104+Y64+C65+S87+N129+F83+R93+L131+I82+G128+P91+N19+H21+V84+G133+Y90+Y89+H97+L81+F134+L98+R20+G103+S66+S67+S7+G108+R38+V124+M99+S36; hbond:S87+S125+Y90+Q95+T126+C110+D109+E85+G108+G103+G128+G130+L131+N129+N19+H104+R68+V124+R93+P91+F83+S67+S7+S66+G112+G133+V132+R20+Y89+S77+A135+Y63+A92+A101+M99+F134+L100+I82+Y64+S36+L98+V84+L81+Y94+S80+R38+S37+V102+G8+I123+G111+I113+L114+C65+L22+S96; hydroph_interaction:V84+V124+T126+L22+E85+E106+E88+D109+N129+L40+I123+A135+Q95+I82+L100+L98+L131+F83+R93+V132+Y63+F134+H104+R20+A86+V74+P91+A101+F76+M99+L114+A92+Y94+R68+Y72+Y64+V18+V102+W28+G127+G128+L81; pication:H21+H104+R93+Y63+F134+Y90+R68+F83+R20; pistack:H21+Y89+Y90+H104+F134+Y63+F83+Y94; saltbridge:D39+R93+H104+E106+D109+E85+E88+R68+R20; 

>  <intxn_cluster>  (19) 
-1

>  <intxn_cluster_rank>  (19) 
-1

>  <N_interactions>  (19) 
4

>  <∆∆G>  (19) 
-8.02534

>  <$/mg>  (19) 
163.0

>  <comRMSD>  (19) 
0.665337

>  <N_rotatable_bonds>  (19) 
2

>  <deep_P1_sidechain>  (19) 
nan

>  <farthest_distance_to_substrate>  (19) 
2.78053

>  <hbond:SER:7>  (19) 
hbond:SER:7    NaN
hbond:SER:7     -1
Name: 18, dtype: object

>  <halogenbond:SER:7>  (19) 
halogenbond:SER:7    NaN
halogenbond:SER:7     -1
Name: 18, dtype: object

>  <hbond:GLY:8>  (19) 
hbond:GLY:8    NaN
hbond:GLY:8     -1
Name: 18, dtype: object

>  <hydroph_interaction:VAL:18>  (19) 
hydroph_interaction:VAL:18    NaN
hydroph_interaction:VAL:18     -1
Name: 18, dtype: object

>  <hbond:ASN:19>  (19) 
hbond:ASN:19    NaN
hbond:ASN:19     -1
Name: 18, dtype: object

>  <hydroph_interaction:ASN:19>  (19) 
hydroph_interaction:ASN:19    0.0
hydroph_interaction:ASN:19      0
Name: 18, dtype: object

>  <halogenbond:ASN:19>  (19) 
halogenbond:ASN:19    NaN
halogenbond:ASN:19     -1
Name: 18, dtype: object

>  <hbond:ARG:20>  (19) 
hbond:ARG:20    NaN
hbond:ARG:20     -1
Name: 18, dtype: object

>  <hydroph_interaction:ARG:20>  (19) 
hydroph_interaction:ARG:20    NaN
hydroph_interaction:ARG:20     -1
Name: 18, dtype: object

>  <saltbridge:ARG:20>  (19) 
saltbridge:ARG:20    NaN
saltbridge:ARG:20     -1
Name: 18, dtype: object

>  <halogenbond:ARG:20>  (19) 
halogenbond:ARG:20    NaN
halogenbond:ARG:20     -1
Name: 18, dtype: object

>  <pication:ARG:20>  (19) 
pication:ARG:20    NaN
pication:ARG:20     -1
Name: 18, dtype: object

>  <hbond:HIS:21>  (19) 
hbond:HIS:21    0.0
hbond:HIS:21      0
Name: 18, dtype: object

>  <hydroph_interaction:HIS:21>  (19) 
hydroph_interaction:HIS:21    0.0
hydroph_interaction:HIS:21      0
Name: 18, dtype: object

>  <pistack:HIS:21>  (19) 
pistack:HIS:21    NaN
pistack:HIS:21     -1
Name: 18, dtype: object

>  <pication:HIS:21>  (19) 
pication:HIS:21    NaN
pication:HIS:21     -1
Name: 18, dtype: object

>  <saltbridge:HIS:21>  (19) 
saltbridge:HIS:21    0.0
saltbridge:HIS:21      0
Name: 18, dtype: object

>  <halogenbond:HIS:21>  (19) 
halogenbond:HIS:21    NaN
halogenbond:HIS:21     -1
Name: 18, dtype: object

>  <hydroph_interaction:LEU:22>  (19) 
hydroph_interaction:LEU:22    NaN
hydroph_interaction:LEU:22     -1
Name: 18, dtype: object

>  <hbond:LEU:22>  (19) 
hbond:LEU:22    NaN
hbond:LEU:22     -1
Name: 18, dtype: object

>  <hydroph_interaction:TRP:28>  (19) 
hydroph_interaction:TRP:28    NaN
hydroph_interaction:TRP:28     -1
Name: 18, dtype: object

>  <hbond:SER:36>  (19) 
hbond:SER:36    NaN
hbond:SER:36     -1
Name: 18, dtype: object

>  <halogenbond:SER:36>  (19) 
halogenbond:SER:36    NaN
halogenbond:SER:36     -1
Name: 18, dtype: object

>  <hbond:SER:37>  (19) 
hbond:SER:37    NaN
hbond:SER:37     -1
Name: 18, dtype: object

>  <hbond:ARG:38>  (19) 
hbond:ARG:38    NaN
hbond:ARG:38     -1
Name: 18, dtype: object

>  <halogenbond:ARG:38>  (19) 
halogenbond:ARG:38    NaN
halogenbond:ARG:38     -1
Name: 18, dtype: object

>  <saltbridge:ASP:39>  (19) 
saltbridge:ASP:39    NaN
saltbridge:ASP:39     -1
Name: 18, dtype: object

>  <halogenbond:ASP:39>  (19) 
halogenbond:ASP:39    0.0
halogenbond:ASP:39      0
Name: 18, dtype: object

>  <hbond:ASP:39>  (19) 
hbond:ASP:39    0.0
hbond:ASP:39      0
Name: 18, dtype: object

>  <hydroph_interaction:ASP:39>  (19) 
hydroph_interaction:ASP:39    0.0
hydroph_interaction:ASP:39      0
Name: 18, dtype: object

>  <hydroph_interaction:LEU:40>  (19) 
hydroph_interaction:LEU:40    NaN
hydroph_interaction:LEU:40     -1
Name: 18, dtype: object

>  <hydroph_interaction:TYR:63>  (19) 
hydroph_interaction:TYR:63    NaN
hydroph_interaction:TYR:63     -1
Name: 18, dtype: object

>  <hbond:TYR:63>  (19) 
hbond:TYR:63    NaN
hbond:TYR:63     -1
Name: 18, dtype: object

>  <pistack:TYR:63>  (19) 
pistack:TYR:63    NaN
pistack:TYR:63     -1
Name: 18, dtype: object

>  <pication:TYR:63>  (19) 
pication:TYR:63    NaN
pication:TYR:63     -1
Name: 18, dtype: object

>  <halogenbond:TYR:64>  (19) 
halogenbond:TYR:64    NaN
halogenbond:TYR:64     -1
Name: 18, dtype: object

>  <hbond:TYR:64>  (19) 
hbond:TYR:64    NaN
hbond:TYR:64     -1
Name: 18, dtype: object

>  <hydroph_interaction:TYR:64>  (19) 
hydroph_interaction:TYR:64    NaN
hydroph_interaction:TYR:64     -1
Name: 18, dtype: object

>  <halogenbond:CYS:65>  (19) 
halogenbond:CYS:65    NaN
halogenbond:CYS:65     -1
Name: 18, dtype: object

>  <hbond:CYS:65>  (19) 
hbond:CYS:65    NaN
hbond:CYS:65     -1
Name: 18, dtype: object

>  <hbond:SER:66>  (19) 
hbond:SER:66    NaN
hbond:SER:66     -1
Name: 18, dtype: object

>  <halogenbond:SER:66>  (19) 
halogenbond:SER:66    NaN
halogenbond:SER:66     -1
Name: 18, dtype: object

>  <hbond:SER:67>  (19) 
hbond:SER:67    NaN
hbond:SER:67     -1
Name: 18, dtype: object

>  <halogenbond:SER:67>  (19) 
halogenbond:SER:67    NaN
halogenbond:SER:67     -1
Name: 18, dtype: object

>  <hbond:ARG:68>  (19) 
hbond:ARG:68    NaN
hbond:ARG:68     -1
Name: 18, dtype: object

>  <saltbridge:ARG:68>  (19) 
saltbridge:ARG:68    NaN
saltbridge:ARG:68     -1
Name: 18, dtype: object

>  <hydroph_interaction:ARG:68>  (19) 
hydroph_interaction:ARG:68    NaN
hydroph_interaction:ARG:68     -1
Name: 18, dtype: object

>  <pication:ARG:68>  (19) 
pication:ARG:68    NaN
pication:ARG:68     -1
Name: 18, dtype: object

>  <hydroph_interaction:TYR:72>  (19) 
hydroph_interaction:TYR:72    NaN
hydroph_interaction:TYR:72     -1
Name: 18, dtype: object

>  <hydroph_interaction:VAL:74>  (19) 
hydroph_interaction:VAL:74    NaN
hydroph_interaction:VAL:74     -1
Name: 18, dtype: object

>  <hydroph_interaction:PHE:76>  (19) 
hydroph_interaction:PHE:76    NaN
hydroph_interaction:PHE:76     -1
Name: 18, dtype: object

>  <hbond:SER:77>  (19) 
hbond:SER:77    NaN
hbond:SER:77     -1
Name: 18, dtype: object

>  <hbond:SER:80>  (19) 
hbond:SER:80    NaN
hbond:SER:80     -1
Name: 18, dtype: object

>  <hbond:LEU:81>  (19) 
hbond:LEU:81    NaN
hbond:LEU:81     -1
Name: 18, dtype: object

>  <halogenbond:LEU:81>  (19) 
halogenbond:LEU:81    NaN
halogenbond:LEU:81     -1
Name: 18, dtype: object

>  <hydroph_interaction:LEU:81>  (19) 
hydroph_interaction:LEU:81    NaN
hydroph_interaction:LEU:81     -1
Name: 18, dtype: object

>  <hydroph_interaction:ILE:82>  (19) 
hydroph_interaction:ILE:82    NaN
hydroph_interaction:ILE:82     -1
Name: 18, dtype: object

>  <halogenbond:ILE:82>  (19) 
halogenbond:ILE:82    NaN
halogenbond:ILE:82     -1
Name: 18, dtype: object

>  <hbond:ILE:82>  (19) 
hbond:ILE:82    NaN
hbond:ILE:82     -1
Name: 18, dtype: object

>  <hbond:PHE:83>  (19) 
hbond:PHE:83    NaN
hbond:PHE:83     -1
Name: 18, dtype: object

>  <hydroph_interaction:PHE:83>  (19) 
hydroph_interaction:PHE:83    NaN
hydroph_interaction:PHE:83     -1
Name: 18, dtype: object

>  <halogenbond:PHE:83>  (19) 
halogenbond:PHE:83    NaN
halogenbond:PHE:83     -1
Name: 18, dtype: object

>  <pistack:PHE:83>  (19) 
pistack:PHE:83    NaN
pistack:PHE:83     -1
Name: 18, dtype: object

>  <pication:PHE:83>  (19) 
pication:PHE:83    NaN
pication:PHE:83     -1
Name: 18, dtype: object

>  <hydroph_interaction:VAL:84>  (19) 
hydroph_interaction:VAL:84    NaN
hydroph_interaction:VAL:84     -1
Name: 18, dtype: object

>  <halogenbond:VAL:84>  (19) 
halogenbond:VAL:84    NaN
halogenbond:VAL:84     -1
Name: 18, dtype: object

>  <hbond:VAL:84>  (19) 
hbond:VAL:84    NaN
hbond:VAL:84     -1
Name: 18, dtype: object

>  <hydroph_interaction:GLU:85>  (19) 
hydroph_interaction:GLU:85    NaN
hydroph_interaction:GLU:85     -1
Name: 18, dtype: object

>  <hbond:GLU:85>  (19) 
hbond:GLU:85    NaN
hbond:GLU:85     -1
Name: 18, dtype: object

>  <halogenbond:GLU:85>  (19) 
halogenbond:GLU:85    NaN
halogenbond:GLU:85     -1
Name: 18, dtype: object

>  <saltbridge:GLU:85>  (19) 
saltbridge:GLU:85    NaN
saltbridge:GLU:85     -1
Name: 18, dtype: object

>  <halogenbond:ALA:86>  (19) 
halogenbond:ALA:86    NaN
halogenbond:ALA:86     -1
Name: 18, dtype: object

>  <hbond:ALA:86>  (19) 
hbond:ALA:86    0.0
hbond:ALA:86      0
Name: 18, dtype: object

>  <hydroph_interaction:ALA:86>  (19) 
hydroph_interaction:ALA:86    NaN
hydroph_interaction:ALA:86     -1
Name: 18, dtype: object

>  <hbond:SER:87>  (19) 
hbond:SER:87    1
hbond:SER:87    1
Name: 18, dtype: object

>  <halogenbond:SER:87>  (19) 
halogenbond:SER:87    NaN
halogenbond:SER:87     -1
Name: 18, dtype: object

>  <hbond:GLU:88>  (19) 
hbond:GLU:88    0.0
hbond:GLU:88      0
Name: 18, dtype: object

>  <hydroph_interaction:GLU:88>  (19) 
hydroph_interaction:GLU:88    NaN
hydroph_interaction:GLU:88     -1
Name: 18, dtype: object

>  <halogenbond:GLU:88>  (19) 
halogenbond:GLU:88    NaN
halogenbond:GLU:88     -1
Name: 18, dtype: object

>  <saltbridge:GLU:88>  (19) 
saltbridge:GLU:88    NaN
saltbridge:GLU:88     -1
Name: 18, dtype: object

>  <hydroph_interaction:TYR:89>  (19) 
hydroph_interaction:TYR:89    0.0
hydroph_interaction:TYR:89      0
Name: 18, dtype: object

>  <pistack:TYR:89>  (19) 
pistack:TYR:89    NaN
pistack:TYR:89     -1
Name: 18, dtype: object

>  <hbond:TYR:89>  (19) 
hbond:TYR:89    NaN
hbond:TYR:89     -1
Name: 18, dtype: object

>  <halogenbond:TYR:89>  (19) 
halogenbond:TYR:89    NaN
halogenbond:TYR:89     -1
Name: 18, dtype: object

>  <hydroph_interaction:TYR:90>  (19) 
hydroph_interaction:TYR:90    0.0
hydroph_interaction:TYR:90      0
Name: 18, dtype: object

>  <hbond:TYR:90>  (19) 
hbond:TYR:90    NaN
hbond:TYR:90     -1
Name: 18, dtype: object

>  <pistack:TYR:90>  (19) 
pistack:TYR:90    NaN
pistack:TYR:90     -1
Name: 18, dtype: object

>  <halogenbond:TYR:90>  (19) 
halogenbond:TYR:90    NaN
halogenbond:TYR:90     -1
Name: 18, dtype: object

>  <pication:TYR:90>  (19) 
pication:TYR:90    NaN
pication:TYR:90     -1
Name: 18, dtype: object

>  <hbond:PRO:91>  (19) 
hbond:PRO:91    NaN
hbond:PRO:91     -1
Name: 18, dtype: object

>  <hydroph_interaction:PRO:91>  (19) 
hydroph_interaction:PRO:91    NaN
hydroph_interaction:PRO:91     -1
Name: 18, dtype: object

>  <halogenbond:PRO:91>  (19) 
halogenbond:PRO:91    NaN
halogenbond:PRO:91     -1
Name: 18, dtype: object

>  <hbond:ALA:92>  (19) 
hbond:ALA:92    NaN
hbond:ALA:92     -1
Name: 18, dtype: object

>  <hydroph_interaction:ALA:92>  (19) 
hydroph_interaction:ALA:92    NaN
hydroph_interaction:ALA:92     -1
Name: 18, dtype: object

>  <saltbridge:ARG:93>  (19) 
saltbridge:ARG:93    NaN
saltbridge:ARG:93     -1
Name: 18, dtype: object

>  <hbond:ARG:93>  (19) 
hbond:ARG:93    NaN
hbond:ARG:93     -1
Name: 18, dtype: object

>  <hydroph_interaction:ARG:93>  (19) 
hydroph_interaction:ARG:93    NaN
hydroph_interaction:ARG:93     -1
Name: 18, dtype: object

>  <halogenbond:ARG:93>  (19) 
halogenbond:ARG:93    NaN
halogenbond:ARG:93     -1
Name: 18, dtype: object

>  <pication:ARG:93>  (19) 
pication:ARG:93    NaN
pication:ARG:93     -1
Name: 18, dtype: object

>  <hydroph_interaction:TYR:94>  (19) 
hydroph_interaction:TYR:94    NaN
hydroph_interaction:TYR:94     -1
Name: 18, dtype: object

>  <pistack:TYR:94>  (19) 
pistack:TYR:94    NaN
pistack:TYR:94     -1
Name: 18, dtype: object

>  <hbond:TYR:94>  (19) 
hbond:TYR:94    NaN
hbond:TYR:94     -1
Name: 18, dtype: object

>  <hbond:GLN:95>  (19) 
hbond:GLN:95    NaN
hbond:GLN:95     -1
Name: 18, dtype: object

>  <hydroph_interaction:GLN:95>  (19) 
hydroph_interaction:GLN:95    NaN
hydroph_interaction:GLN:95     -1
Name: 18, dtype: object

>  <halogenbond:GLN:95>  (19) 
halogenbond:GLN:95    NaN
halogenbond:GLN:95     -1
Name: 18, dtype: object

>  <hbond:SER:96>  (19) 
hbond:SER:96    NaN
hbond:SER:96     -1
Name: 18, dtype: object

>  <halogenbond:HIS:97>  (19) 
halogenbond:HIS:97    NaN
halogenbond:HIS:97     -1
Name: 18, dtype: object

>  <hydroph_interaction:LEU:98>  (19) 
hydroph_interaction:LEU:98    NaN
hydroph_interaction:LEU:98     -1
Name: 18, dtype: object

>  <hbond:LEU:98>  (19) 
hbond:LEU:98    NaN
hbond:LEU:98     -1
Name: 18, dtype: object

>  <halogenbond:LEU:98>  (19) 
halogenbond:LEU:98    NaN
halogenbond:LEU:98     -1
Name: 18, dtype: object

>  <hbond:MET:99>  (19) 
hbond:MET:99    NaN
hbond:MET:99     -1
Name: 18, dtype: object

>  <hydroph_interaction:MET:99>  (19) 
hydroph_interaction:MET:99    NaN
hydroph_interaction:MET:99     -1
Name: 18, dtype: object

>  <halogenbond:MET:99>  (19) 
halogenbond:MET:99    NaN
halogenbond:MET:99     -1
Name: 18, dtype: object

>  <hydroph_interaction:LEU:100>  (19) 
hydroph_interaction:LEU:100    NaN
hydroph_interaction:LEU:100     -1
Name: 18, dtype: object

>  <hbond:LEU:100>  (19) 
hbond:LEU:100    NaN
hbond:LEU:100     -1
Name: 18, dtype: object

>  <hbond:ALA:101>  (19) 
hbond:ALA:101    NaN
hbond:ALA:101     -1
Name: 18, dtype: object

>  <hydroph_interaction:ALA:101>  (19) 
hydroph_interaction:ALA:101    NaN
hydroph_interaction:ALA:101     -1
Name: 18, dtype: object

>  <hydroph_interaction:VAL:102>  (19) 
hydroph_interaction:VAL:102    NaN
hydroph_interaction:VAL:102     -1
Name: 18, dtype: object

>  <hbond:VAL:102>  (19) 
hbond:VAL:102    NaN
hbond:VAL:102     -1
Name: 18, dtype: object

>  <hbond:GLY:103>  (19) 
hbond:GLY:103    NaN
hbond:GLY:103     -1
Name: 18, dtype: object

>  <halogenbond:GLY:103>  (19) 
halogenbond:GLY:103    NaN
halogenbond:GLY:103     -1
Name: 18, dtype: object

>  <hbond:HIS:104>  (19) 
hbond:HIS:104    NaN
hbond:HIS:104     -1
Name: 18, dtype: object

>  <saltbridge:HIS:104>  (19) 
saltbridge:HIS:104    NaN
saltbridge:HIS:104     -1
Name: 18, dtype: object

>  <pication:HIS:104>  (19) 
pication:HIS:104    NaN
pication:HIS:104     -1
Name: 18, dtype: object

>  <halogenbond:HIS:104>  (19) 
halogenbond:HIS:104    NaN
halogenbond:HIS:104     -1
Name: 18, dtype: object

>  <hydroph_interaction:HIS:104>  (19) 
hydroph_interaction:HIS:104    NaN
hydroph_interaction:HIS:104     -1
Name: 18, dtype: object

>  <pistack:HIS:104>  (19) 
pistack:HIS:104    NaN
pistack:HIS:104     -1
Name: 18, dtype: object

>  <halogenbond:SER:105>  (19) 
halogenbond:SER:105    0.0
halogenbond:SER:105      0
Name: 18, dtype: object

>  <hbond:SER:105>  (19) 
hbond:SER:105    0.0
hbond:SER:105      0
Name: 18, dtype: object

>  <hbond:GLU:106>  (19) 
hbond:GLU:106    0.0
hbond:GLU:106      0
Name: 18, dtype: object

>  <hydroph_interaction:GLU:106>  (19) 
hydroph_interaction:GLU:106    NaN
hydroph_interaction:GLU:106     -1
Name: 18, dtype: object

>  <saltbridge:GLU:106>  (19) 
saltbridge:GLU:106    NaN
saltbridge:GLU:106     -1
Name: 18, dtype: object

>  <halogenbond:GLU:106>  (19) 
halogenbond:GLU:106    NaN
halogenbond:GLU:106     -1
Name: 18, dtype: object

>  <hydroph_interaction:PRO:107>  (19) 
hydroph_interaction:PRO:107    0
hydroph_interaction:PRO:107    0
Name: 18, dtype: object

>  <hbond:PRO:107>  (19) 
hbond:PRO:107    0.0
hbond:PRO:107      0
Name: 18, dtype: object

>  <halogenbond:PRO:107>  (19) 
halogenbond:PRO:107    NaN
halogenbond:PRO:107     -1
Name: 18, dtype: object

>  <hbond:GLY:108>  (19) 
hbond:GLY:108    NaN
hbond:GLY:108     -1
Name: 18, dtype: object

>  <halogenbond:GLY:108>  (19) 
halogenbond:GLY:108    NaN
halogenbond:GLY:108     -1
Name: 18, dtype: object

>  <hbond:ASP:109>  (19) 
hbond:ASP:109    NaN
hbond:ASP:109     -1
Name: 18, dtype: object

>  <hydroph_interaction:ASP:109>  (19) 
hydroph_interaction:ASP:109    NaN
hydroph_interaction:ASP:109     -1
Name: 18, dtype: object

>  <saltbridge:ASP:109>  (19) 
saltbridge:ASP:109    NaN
saltbridge:ASP:109     -1
Name: 18, dtype: object

>  <halogenbond:CYS:110>  (19) 
halogenbond:CYS:110    NaN
halogenbond:CYS:110     -1
Name: 18, dtype: object

>  <hbond:CYS:110>  (19) 
hbond:CYS:110    NaN
hbond:CYS:110     -1
Name: 18, dtype: object

>  <hbond:GLY:111>  (19) 
hbond:GLY:111    NaN
hbond:GLY:111     -1
Name: 18, dtype: object

>  <hbond:GLY:112>  (19) 
hbond:GLY:112    NaN
hbond:GLY:112     -1
Name: 18, dtype: object

>  <hbond:ILE:113>  (19) 
hbond:ILE:113    NaN
hbond:ILE:113     -1
Name: 18, dtype: object

>  <hydroph_interaction:LEU:114>  (19) 
hydroph_interaction:LEU:114    NaN
hydroph_interaction:LEU:114     -1
Name: 18, dtype: object

>  <hbond:LEU:114>  (19) 
hbond:LEU:114    NaN
hbond:LEU:114     -1
Name: 18, dtype: object

>  <hydroph_interaction:ILE:123>  (19) 
hydroph_interaction:ILE:123    NaN
hydroph_interaction:ILE:123     -1
Name: 18, dtype: object

>  <hbond:ILE:123>  (19) 
hbond:ILE:123    NaN
hbond:ILE:123     -1
Name: 18, dtype: object

>  <hydroph_interaction:VAL:124>  (19) 
hydroph_interaction:VAL:124    1.0
hydroph_interaction:VAL:124      1
Name: 18, dtype: object

>  <hbond:VAL:124>  (19) 
hbond:VAL:124    NaN
hbond:VAL:124     -1
Name: 18, dtype: object

>  <halogenbond:VAL:124>  (19) 
halogenbond:VAL:124    NaN
halogenbond:VAL:124     -1
Name: 18, dtype: object

>  <hbond:SER:125>  (19) 
hbond:SER:125    2
hbond:SER:125    2
Name: 18, dtype: object

>  <halogenbond:SER:125>  (19) 
halogenbond:SER:125    NaN
halogenbond:SER:125     -1
Name: 18, dtype: object

>  <hydroph_interaction:THR:126>  (19) 
hydroph_interaction:THR:126    NaN
hydroph_interaction:THR:126     -1
Name: 18, dtype: object

>  <hbond:THR:126>  (19) 
hbond:THR:126    NaN
hbond:THR:126     -1
Name: 18, dtype: object

>  <halogenbond:THR:126>  (19) 
halogenbond:THR:126    NaN
halogenbond:THR:126     -1
Name: 18, dtype: object

>  <hbond:GLY:127>  (19) 
hbond:GLY:127    0
hbond:GLY:127    0
Name: 18, dtype: object

>  <halogenbond:GLY:127>  (19) 
halogenbond:GLY:127    NaN
halogenbond:GLY:127     -1
Name: 18, dtype: object

>  <hydroph_interaction:GLY:127>  (19) 
hydroph_interaction:GLY:127    NaN
hydroph_interaction:GLY:127     -1
Name: 18, dtype: object

>  <hbond:GLY:128>  (19) 
hbond:GLY:128    NaN
hbond:GLY:128     -1
Name: 18, dtype: object

>  <halogenbond:GLY:128>  (19) 
halogenbond:GLY:128    NaN
halogenbond:GLY:128     -1
Name: 18, dtype: object

>  <hydroph_interaction:GLY:128>  (19) 
hydroph_interaction:GLY:128    NaN
hydroph_interaction:GLY:128     -1
Name: 18, dtype: object

>  <hbond:ASN:129>  (19) 
hbond:ASN:129    NaN
hbond:ASN:129     -1
Name: 18, dtype: object

>  <hydroph_interaction:ASN:129>  (19) 
hydroph_interaction:ASN:129    NaN
hydroph_interaction:ASN:129     -1
Name: 18, dtype: object

>  <halogenbond:ASN:129>  (19) 
halogenbond:ASN:129    NaN
halogenbond:ASN:129     -1
Name: 18, dtype: object

>  <hbond:GLY:130>  (19) 
hbond:GLY:130    NaN
hbond:GLY:130     -1
Name: 18, dtype: object

>  <hbond:LEU:131>  (19) 
hbond:LEU:131    NaN
hbond:LEU:131     -1
Name: 18, dtype: object

>  <hydroph_interaction:LEU:131>  (19) 
hydroph_interaction:LEU:131    NaN
hydroph_interaction:LEU:131     -1
Name: 18, dtype: object

>  <halogenbond:LEU:131>  (19) 
halogenbond:LEU:131    NaN
halogenbond:LEU:131     -1
Name: 18, dtype: object

>  <hydroph_interaction:VAL:132>  (19) 
hydroph_interaction:VAL:132    NaN
hydroph_interaction:VAL:132     -1
Name: 18, dtype: object

>  <hbond:VAL:132>  (19) 
hbond:VAL:132    NaN
hbond:VAL:132     -1
Name: 18, dtype: object

>  <hbond:GLY:133>  (19) 
hbond:GLY:133    NaN
hbond:GLY:133     -1
Name: 18, dtype: object

>  <halogenbond:GLY:133>  (19) 
halogenbond:GLY:133    NaN
halogenbond:GLY:133     -1
Name: 18, dtype: object

>  <hydroph_interaction:PHE:134>  (19) 
hydroph_interaction:PHE:134    NaN
hydroph_interaction:PHE:134     -1
Name: 18, dtype: object

>  <hbond:PHE:134>  (19) 
hbond:PHE:134    NaN
hbond:PHE:134     -1
Name: 18, dtype: object

>  <pistack:PHE:134>  (19) 
pistack:PHE:134    NaN
pistack:PHE:134     -1
Name: 18, dtype: object

>  <pication:PHE:134>  (19) 
pication:PHE:134    NaN
pication:PHE:134     -1
Name: 18, dtype: object

>  <halogenbond:PHE:134>  (19) 
halogenbond:PHE:134    NaN
halogenbond:PHE:134     -1
Name: 18, dtype: object

>  <hydroph_interaction:ALA:135>  (19) 
hydroph_interaction:ALA:135    NaN
hydroph_interaction:ALA:135     -1
Name: 18, dtype: object

>  <hbond:ALA:135>  (19) 
hbond:ALA:135    NaN
hbond:ALA:135     -1
Name: 18, dtype: object

$$$$
Z4990862679
     RDKit          3D

 20 21  0  0  0  0  0  0  0  0999 V2000
   12.1840   14.4760   22.0030 N   0  0  0  0  0  0  0  0  0  0  0  0
   11.3310   14.1960   23.0260 C   0  0  0  0  0  0  0  0  0  0  0  0
   11.5150   14.6810   24.1410 O   0  0  0  0  0  0  0  0  0  0  0  0
   10.3360   13.3620   22.6140 N   0  0  0  0  0  0  0  0  0  0  0  0
    9.3670   12.8290   23.4760 C   0  0  0  0  0  0  0  0  0  0  0  0
    8.5200   13.6280   24.2130 N   0  0  0  0  0  0  0  0  0  0  0  0
    7.5980   13.0800   25.0360 C   0  0  0  0  0  0  0  0  0  0  0  0
    7.4920   11.6300   25.1520 C   0  0  0  0  0  0  0  0  0  0  0  0
    8.3580   10.8860   24.3960 C   0  0  0  0  0  0  0  0  0  0  0  0
    9.3000   11.4290   23.5560 C   0  0  0  0  0  0  0  0  0  0  0  0
   10.0310   10.4830   22.9230 C   0  0  0  0  0  0  0  0  0  0  0  0
    9.5200    9.3080   23.3920 C   0  0  0  0  0  0  0  0  0  0  0  0
    8.4940    9.5300   24.2890 O   0  0  0  0  0  0  0  0  0  0  0  0
   12.7610   13.7020   21.6870 H   0  0  0  0  0  0  0  0  0  0  0  0
   12.5970   15.4090   21.9650 H   0  0  0  0  0  0  0  0  0  0  0  0
   10.5240   12.8620   21.7390 H   0  0  0  0  0  0  0  0  0  0  0  0
    6.9560   13.7690   25.5920 H   0  0  0  0  0  0  0  0  0  0  0  0
    6.7650   11.1570   25.8010 H   0  0  0  0  0  0  0  0  0  0  0  0
   10.8270   10.6030   22.2150 H   0  0  0  0  0  0  0  0  0  0  0  0
    9.7630    8.2830   23.1970 H   0  0  0  0  0  0  0  0  0  0  0  0
  1  2  1  0
  2  3  2  0
  2  4  1  0
  4  5  1  0
  5  6  2  0
  6  7  1  0
  7  8  2  0
  8  9  1  0
  9 10  2  0
 10 11  1  0
 11 12  2  0
 12 13  1  0
 10  5  1  0
 13  9  1  0
  1 14  1  0
  1 15  1  0
  4 16  1  0
  7 17  1  0
  8 18  1  0
 11 19  1  0
 12 20  1  0
A    1
 N1 
A    2
 C1 
A    3
 O1 
A    4
 N2 
A    5
 C2 
A    6
 N3 
A    7
 C3 
A    8
 C4 
A    9
 C5 
A   10
 C6 
A   11
 C7 
A   12
 C8 
A   13
 O2 
A   14
 H1 
A   15
 H2 
A   16
 H3 
A   17
 H4 
A   18
 H5 
A   19
 H6 
A   20
 H7 
M  END
>  <ref_pdb>  (20) 
x0310_0A

>  <ref_mols>  (20) 
x0554_0A,x0922_0A

>  <original SMILES>  (20) 
NC(=O)Nc1nccc2occc12

>  <rationale>  (20) 
info halogenbond:G127+D39+A86+S125+E85+Q95+E106+E88+T126+H104+Y64+C65+S87+N129+F83+R93+L131+I82+G128+P91+N19+H21+V84+G133+Y90+Y89+H97+L81+F134+L98+R20+G103+S66+S67+S7+G108+R38+V124+M99+S36; hbond:S87+S125+Q95+T126+D39+A86+C110+D109+G108+G103+G128+G130+L131+N129+H104+R68+V124+P91+F83+S67+S7+S66+G112+G133+V132+R20+Y89+S77+A135+Y63+A92+A101+M99+F134+L100+I82+Y64+S36+L98+V84+L81+Y94+S80+R38+S37+V102+G8+I123+G111+I113+L114+C65+L22+S96; hydroph_interaction:E85+E106+D109+N129+L40+I123+A135+Q95+I82+L100+L98+L131+F83+R93+V132+Y63+F134+H104+R20+A86+V74+P91+A101+F76+M99+L114+A92+Y94+R68+Y72+Y64+V18+V102+W28+G127+G128+L81; pication:H104+R93+Y63+F134+Y90+R68+F83+R20; pistack:H104+F134+Y63+F83+Y94; saltbridge:D39+R93+H104+E106+D109+E85+E88+R68+R20; 

>  <intxn_cluster>  (20) 
-1

>  <intxn_cluster_rank>  (20) 
-1

>  <N_interactions>  (20) 
3

>  <∆∆G>  (20) 
-7.677352

>  <$/mg>  (20) 
163.0

>  <comRMSD>  (20) 
0.822839

>  <N_rotatable_bonds>  (20) 
1

>  <deep_P1_sidechain>  (20) 
nan

>  <farthest_distance_to_substrate>  (20) 
2.464806

>  <hbond:SER:7>  (20) 
hbond:SER:7    NaN
hbond:SER:7     -1
Name: 19, dtype: object

>  <halogenbond:SER:7>  (20) 
halogenbond:SER:7    NaN
halogenbond:SER:7     -1
Name: 19, dtype: object

>  <hbond:GLY:8>  (20) 
hbond:GLY:8    NaN
hbond:GLY:8     -1
Name: 19, dtype: object

>  <hydroph_interaction:VAL:18>  (20) 
hydroph_interaction:VAL:18    NaN
hydroph_interaction:VAL:18     -1
Name: 19, dtype: object

>  <hbond:ASN:19>  (20) 
hbond:ASN:19    0.0
hbond:ASN:19      0
Name: 19, dtype: object

>  <hydroph_interaction:ASN:19>  (20) 
hydroph_interaction:ASN:19    0.0
hydroph_interaction:ASN:19      0
Name: 19, dtype: object

>  <halogenbond:ASN:19>  (20) 
halogenbond:ASN:19    NaN
halogenbond:ASN:19     -1
Name: 19, dtype: object

>  <hbond:ARG:20>  (20) 
hbond:ARG:20    NaN
hbond:ARG:20     -1
Name: 19, dtype: object

>  <hydroph_interaction:ARG:20>  (20) 
hydroph_interaction:ARG:20    NaN
hydroph_interaction:ARG:20     -1
Name: 19, dtype: object

>  <saltbridge:ARG:20>  (20) 
saltbridge:ARG:20    NaN
saltbridge:ARG:20     -1
Name: 19, dtype: object

>  <halogenbond:ARG:20>  (20) 
halogenbond:ARG:20    NaN
halogenbond:ARG:20     -1
Name: 19, dtype: object

>  <pication:ARG:20>  (20) 
pication:ARG:20    NaN
pication:ARG:20     -1
Name: 19, dtype: object

>  <hbond:HIS:21>  (20) 
hbond:HIS:21    0.0
hbond:HIS:21      0
Name: 19, dtype: object

>  <hydroph_interaction:HIS:21>  (20) 
hydroph_interaction:HIS:21    0.0
hydroph_interaction:HIS:21      0
Name: 19, dtype: object

>  <pistack:HIS:21>  (20) 
pistack:HIS:21    0.0
pistack:HIS:21      0
Name: 19, dtype: object

>  <pication:HIS:21>  (20) 
pication:HIS:21    0.0
pication:HIS:21      0
Name: 19, dtype: object

>  <saltbridge:HIS:21>  (20) 
saltbridge:HIS:21    0.0
saltbridge:HIS:21      0
Name: 19, dtype: object

>  <halogenbond:HIS:21>  (20) 
halogenbond:HIS:21    NaN
halogenbond:HIS:21     -1
Name: 19, dtype: object

>  <hydroph_interaction:LEU:22>  (20) 
hydroph_interaction:LEU:22    0.0
hydroph_interaction:LEU:22      0
Name: 19, dtype: object

>  <hbond:LEU:22>  (20) 
hbond:LEU:22    NaN
hbond:LEU:22     -1
Name: 19, dtype: object

>  <hydroph_interaction:TRP:28>  (20) 
hydroph_interaction:TRP:28    NaN
hydroph_interaction:TRP:28     -1
Name: 19, dtype: object

>  <hbond:SER:36>  (20) 
hbond:SER:36    NaN
hbond:SER:36     -1
Name: 19, dtype: object

>  <halogenbond:SER:36>  (20) 
halogenbond:SER:36    NaN
halogenbond:SER:36     -1
Name: 19, dtype: object

>  <hbond:SER:37>  (20) 
hbond:SER:37    NaN
hbond:SER:37     -1
Name: 19, dtype: object

>  <hbond:ARG:38>  (20) 
hbond:ARG:38    NaN
hbond:ARG:38     -1
Name: 19, dtype: object

>  <halogenbond:ARG:38>  (20) 
halogenbond:ARG:38    NaN
halogenbond:ARG:38     -1
Name: 19, dtype: object

>  <saltbridge:ASP:39>  (20) 
saltbridge:ASP:39    NaN
saltbridge:ASP:39     -1
Name: 19, dtype: object

>  <halogenbond:ASP:39>  (20) 
halogenbond:ASP:39    NaN
halogenbond:ASP:39     -1
Name: 19, dtype: object

>  <hbond:ASP:39>  (20) 
hbond:ASP:39    NaN
hbond:ASP:39     -1
Name: 19, dtype: object

>  <hydroph_interaction:ASP:39>  (20) 
hydroph_interaction:ASP:39    0.0
hydroph_interaction:ASP:39      0
Name: 19, dtype: object

>  <hydroph_interaction:LEU:40>  (20) 
hydroph_interaction:LEU:40    NaN
hydroph_interaction:LEU:40     -1
Name: 19, dtype: object

>  <hydroph_interaction:TYR:63>  (20) 
hydroph_interaction:TYR:63    NaN
hydroph_interaction:TYR:63     -1
Name: 19, dtype: object

>  <hbond:TYR:63>  (20) 
hbond:TYR:63    NaN
hbond:TYR:63     -1
Name: 19, dtype: object

>  <pistack:TYR:63>  (20) 
pistack:TYR:63    NaN
pistack:TYR:63     -1
Name: 19, dtype: object

>  <pication:TYR:63>  (20) 
pication:TYR:63    NaN
pication:TYR:63     -1
Name: 19, dtype: object

>  <halogenbond:TYR:64>  (20) 
halogenbond:TYR:64    NaN
halogenbond:TYR:64     -1
Name: 19, dtype: object

>  <hbond:TYR:64>  (20) 
hbond:TYR:64    NaN
hbond:TYR:64     -1
Name: 19, dtype: object

>  <hydroph_interaction:TYR:64>  (20) 
hydroph_interaction:TYR:64    NaN
hydroph_interaction:TYR:64     -1
Name: 19, dtype: object

>  <halogenbond:CYS:65>  (20) 
halogenbond:CYS:65    NaN
halogenbond:CYS:65     -1
Name: 19, dtype: object

>  <hbond:CYS:65>  (20) 
hbond:CYS:65    NaN
hbond:CYS:65     -1
Name: 19, dtype: object

>  <hbond:SER:66>  (20) 
hbond:SER:66    NaN
hbond:SER:66     -1
Name: 19, dtype: object

>  <halogenbond:SER:66>  (20) 
halogenbond:SER:66    NaN
halogenbond:SER:66     -1
Name: 19, dtype: object

>  <hbond:SER:67>  (20) 
hbond:SER:67    NaN
hbond:SER:67     -1
Name: 19, dtype: object

>  <halogenbond:SER:67>  (20) 
halogenbond:SER:67    NaN
halogenbond:SER:67     -1
Name: 19, dtype: object

>  <hbond:ARG:68>  (20) 
hbond:ARG:68    NaN
hbond:ARG:68     -1
Name: 19, dtype: object

>  <saltbridge:ARG:68>  (20) 
saltbridge:ARG:68    NaN
saltbridge:ARG:68     -1
Name: 19, dtype: object

>  <hydroph_interaction:ARG:68>  (20) 
hydroph_interaction:ARG:68    NaN
hydroph_interaction:ARG:68     -1
Name: 19, dtype: object

>  <pication:ARG:68>  (20) 
pication:ARG:68    NaN
pication:ARG:68     -1
Name: 19, dtype: object

>  <hydroph_interaction:TYR:72>  (20) 
hydroph_interaction:TYR:72    NaN
hydroph_interaction:TYR:72     -1
Name: 19, dtype: object

>  <hydroph_interaction:VAL:74>  (20) 
hydroph_interaction:VAL:74    NaN
hydroph_interaction:VAL:74     -1
Name: 19, dtype: object

>  <hydroph_interaction:PHE:76>  (20) 
hydroph_interaction:PHE:76    NaN
hydroph_interaction:PHE:76     -1
Name: 19, dtype: object

>  <hbond:SER:77>  (20) 
hbond:SER:77    NaN
hbond:SER:77     -1
Name: 19, dtype: object

>  <hbond:SER:80>  (20) 
hbond:SER:80    NaN
hbond:SER:80     -1
Name: 19, dtype: object

>  <hbond:LEU:81>  (20) 
hbond:LEU:81    NaN
hbond:LEU:81     -1
Name: 19, dtype: object

>  <halogenbond:LEU:81>  (20) 
halogenbond:LEU:81    NaN
halogenbond:LEU:81     -1
Name: 19, dtype: object

>  <hydroph_interaction:LEU:81>  (20) 
hydroph_interaction:LEU:81    NaN
hydroph_interaction:LEU:81     -1
Name: 19, dtype: object

>  <hydroph_interaction:ILE:82>  (20) 
hydroph_interaction:ILE:82    NaN
hydroph_interaction:ILE:82     -1
Name: 19, dtype: object

>  <halogenbond:ILE:82>  (20) 
halogenbond:ILE:82    NaN
halogenbond:ILE:82     -1
Name: 19, dtype: object

>  <hbond:ILE:82>  (20) 
hbond:ILE:82    NaN
hbond:ILE:82     -1
Name: 19, dtype: object

>  <hbond:PHE:83>  (20) 
hbond:PHE:83    NaN
hbond:PHE:83     -1
Name: 19, dtype: object

>  <hydroph_interaction:PHE:83>  (20) 
hydroph_interaction:PHE:83    NaN
hydroph_interaction:PHE:83     -1
Name: 19, dtype: object

>  <halogenbond:PHE:83>  (20) 
halogenbond:PHE:83    NaN
halogenbond:PHE:83     -1
Name: 19, dtype: object

>  <pistack:PHE:83>  (20) 
pistack:PHE:83    NaN
pistack:PHE:83     -1
Name: 19, dtype: object

>  <pication:PHE:83>  (20) 
pication:PHE:83    NaN
pication:PHE:83     -1
Name: 19, dtype: object

>  <hydroph_interaction:VAL:84>  (20) 
hydroph_interaction:VAL:84    0.0
hydroph_interaction:VAL:84      0
Name: 19, dtype: object

>  <halogenbond:VAL:84>  (20) 
halogenbond:VAL:84    NaN
halogenbond:VAL:84     -1
Name: 19, dtype: object

>  <hbond:VAL:84>  (20) 
hbond:VAL:84    NaN
hbond:VAL:84     -1
Name: 19, dtype: object

>  <hydroph_interaction:GLU:85>  (20) 
hydroph_interaction:GLU:85    NaN
hydroph_interaction:GLU:85     -1
Name: 19, dtype: object

>  <hbond:GLU:85>  (20) 
hbond:GLU:85    0.0
hbond:GLU:85      0
Name: 19, dtype: object

>  <halogenbond:GLU:85>  (20) 
halogenbond:GLU:85    NaN
halogenbond:GLU:85     -1
Name: 19, dtype: object

>  <saltbridge:GLU:85>  (20) 
saltbridge:GLU:85    NaN
saltbridge:GLU:85     -1
Name: 19, dtype: object

>  <halogenbond:ALA:86>  (20) 
halogenbond:ALA:86    NaN
halogenbond:ALA:86     -1
Name: 19, dtype: object

>  <hbond:ALA:86>  (20) 
hbond:ALA:86    NaN
hbond:ALA:86     -1
Name: 19, dtype: object

>  <hydroph_interaction:ALA:86>  (20) 
hydroph_interaction:ALA:86    NaN
hydroph_interaction:ALA:86     -1
Name: 19, dtype: object

>  <hbond:SER:87>  (20) 
hbond:SER:87    1
hbond:SER:87    1
Name: 19, dtype: object

>  <halogenbond:SER:87>  (20) 
halogenbond:SER:87    NaN
halogenbond:SER:87     -1
Name: 19, dtype: object

>  <hbond:GLU:88>  (20) 
hbond:GLU:88    0.0
hbond:GLU:88      0
Name: 19, dtype: object

>  <hydroph_interaction:GLU:88>  (20) 
hydroph_interaction:GLU:88    0.0
hydroph_interaction:GLU:88      0
Name: 19, dtype: object

>  <halogenbond:GLU:88>  (20) 
halogenbond:GLU:88    NaN
halogenbond:GLU:88     -1
Name: 19, dtype: object

>  <saltbridge:GLU:88>  (20) 
saltbridge:GLU:88    NaN
saltbridge:GLU:88     -1
Name: 19, dtype: object

>  <hydroph_interaction:TYR:89>  (20) 
hydroph_interaction:TYR:89    0.0
hydroph_interaction:TYR:89      0
Name: 19, dtype: object

>  <pistack:TYR:89>  (20) 
pistack:TYR:89    0.0
pistack:TYR:89      0
Name: 19, dtype: object

>  <hbond:TYR:89>  (20) 
hbond:TYR:89    NaN
hbond:TYR:89     -1
Name: 19, dtype: object

>  <halogenbond:TYR:89>  (20) 
halogenbond:TYR:89    NaN
halogenbond:TYR:89     -1
Name: 19, dtype: object

>  <hydroph_interaction:TYR:90>  (20) 
hydroph_interaction:TYR:90    0.0
hydroph_interaction:TYR:90      0
Name: 19, dtype: object

>  <hbond:TYR:90>  (20) 
hbond:TYR:90    0.0
hbond:TYR:90      0
Name: 19, dtype: object

>  <pistack:TYR:90>  (20) 
pistack:TYR:90    0.0
pistack:TYR:90      0
Name: 19, dtype: object

>  <halogenbond:TYR:90>  (20) 
halogenbond:TYR:90    NaN
halogenbond:TYR:90     -1
Name: 19, dtype: object

>  <pication:TYR:90>  (20) 
pication:TYR:90    NaN
pication:TYR:90     -1
Name: 19, dtype: object

>  <hbond:PRO:91>  (20) 
hbond:PRO:91    NaN
hbond:PRO:91     -1
Name: 19, dtype: object

>  <hydroph_interaction:PRO:91>  (20) 
hydroph_interaction:PRO:91    NaN
hydroph_interaction:PRO:91     -1
Name: 19, dtype: object

>  <halogenbond:PRO:91>  (20) 
halogenbond:PRO:91    NaN
halogenbond:PRO:91     -1
Name: 19, dtype: object

>  <hbond:ALA:92>  (20) 
hbond:ALA:92    NaN
hbond:ALA:92     -1
Name: 19, dtype: object

>  <hydroph_interaction:ALA:92>  (20) 
hydroph_interaction:ALA:92    NaN
hydroph_interaction:ALA:92     -1
Name: 19, dtype: object

>  <saltbridge:ARG:93>  (20) 
saltbridge:ARG:93    NaN
saltbridge:ARG:93     -1
Name: 19, dtype: object

>  <hbond:ARG:93>  (20) 
hbond:ARG:93    0.0
hbond:ARG:93      0
Name: 19, dtype: object

>  <hydroph_interaction:ARG:93>  (20) 
hydroph_interaction:ARG:93    NaN
hydroph_interaction:ARG:93     -1
Name: 19, dtype: object

>  <halogenbond:ARG:93>  (20) 
halogenbond:ARG:93    NaN
halogenbond:ARG:93     -1
Name: 19, dtype: object

>  <pication:ARG:93>  (20) 
pication:ARG:93    NaN
pication:ARG:93     -1
Name: 19, dtype: object

>  <hydroph_interaction:TYR:94>  (20) 
hydroph_interaction:TYR:94    NaN
hydroph_interaction:TYR:94     -1
Name: 19, dtype: object

>  <pistack:TYR:94>  (20) 
pistack:TYR:94    NaN
pistack:TYR:94     -1
Name: 19, dtype: object

>  <hbond:TYR:94>  (20) 
hbond:TYR:94    NaN
hbond:TYR:94     -1
Name: 19, dtype: object

>  <hbond:GLN:95>  (20) 
hbond:GLN:95    NaN
hbond:GLN:95     -1
Name: 19, dtype: object

>  <hydroph_interaction:GLN:95>  (20) 
hydroph_interaction:GLN:95    NaN
hydroph_interaction:GLN:95     -1
Name: 19, dtype: object

>  <halogenbond:GLN:95>  (20) 
halogenbond:GLN:95    NaN
halogenbond:GLN:95     -1
Name: 19, dtype: object

>  <hbond:SER:96>  (20) 
hbond:SER:96    NaN
hbond:SER:96     -1
Name: 19, dtype: object

>  <halogenbond:HIS:97>  (20) 
halogenbond:HIS:97    NaN
halogenbond:HIS:97     -1
Name: 19, dtype: object

>  <hydroph_interaction:LEU:98>  (20) 
hydroph_interaction:LEU:98    NaN
hydroph_interaction:LEU:98     -1
Name: 19, dtype: object

>  <hbond:LEU:98>  (20) 
hbond:LEU:98    NaN
hbond:LEU:98     -1
Name: 19, dtype: object

>  <halogenbond:LEU:98>  (20) 
halogenbond:LEU:98    NaN
halogenbond:LEU:98     -1
Name: 19, dtype: object

>  <hbond:MET:99>  (20) 
hbond:MET:99    NaN
hbond:MET:99     -1
Name: 19, dtype: object

>  <hydroph_interaction:MET:99>  (20) 
hydroph_interaction:MET:99    NaN
hydroph_interaction:MET:99     -1
Name: 19, dtype: object

>  <halogenbond:MET:99>  (20) 
halogenbond:MET:99    NaN
halogenbond:MET:99     -1
Name: 19, dtype: object

>  <hydroph_interaction:LEU:100>  (20) 
hydroph_interaction:LEU:100    NaN
hydroph_interaction:LEU:100     -1
Name: 19, dtype: object

>  <hbond:LEU:100>  (20) 
hbond:LEU:100    NaN
hbond:LEU:100     -1
Name: 19, dtype: object

>  <hbond:ALA:101>  (20) 
hbond:ALA:101    NaN
hbond:ALA:101     -1
Name: 19, dtype: object

>  <hydroph_interaction:ALA:101>  (20) 
hydroph_interaction:ALA:101    NaN
hydroph_interaction:ALA:101     -1
Name: 19, dtype: object

>  <hydroph_interaction:VAL:102>  (20) 
hydroph_interaction:VAL:102    NaN
hydroph_interaction:VAL:102     -1
Name: 19, dtype: object

>  <hbond:VAL:102>  (20) 
hbond:VAL:102    NaN
hbond:VAL:102     -1
Name: 19, dtype: object

>  <hbond:GLY:103>  (20) 
hbond:GLY:103    NaN
hbond:GLY:103     -1
Name: 19, dtype: object

>  <halogenbond:GLY:103>  (20) 
halogenbond:GLY:103    NaN
halogenbond:GLY:103     -1
Name: 19, dtype: object

>  <hbond:HIS:104>  (20) 
hbond:HIS:104    NaN
hbond:HIS:104     -1
Name: 19, dtype: object

>  <saltbridge:HIS:104>  (20) 
saltbridge:HIS:104    NaN
saltbridge:HIS:104     -1
Name: 19, dtype: object

>  <pication:HIS:104>  (20) 
pication:HIS:104    NaN
pication:HIS:104     -1
Name: 19, dtype: object

>  <halogenbond:HIS:104>  (20) 
halogenbond:HIS:104    NaN
halogenbond:HIS:104     -1
Name: 19, dtype: object

>  <hydroph_interaction:HIS:104>  (20) 
hydroph_interaction:HIS:104    NaN
hydroph_interaction:HIS:104     -1
Name: 19, dtype: object

>  <pistack:HIS:104>  (20) 
pistack:HIS:104    NaN
pistack:HIS:104     -1
Name: 19, dtype: object

>  <halogenbond:SER:105>  (20) 
halogenbond:SER:105    0.0
halogenbond:SER:105      0
Name: 19, dtype: object

>  <hbond:SER:105>  (20) 
hbond:SER:105    0.0
hbond:SER:105      0
Name: 19, dtype: object

>  <hbond:GLU:106>  (20) 
hbond:GLU:106    0.0
hbond:GLU:106      0
Name: 19, dtype: object

>  <hydroph_interaction:GLU:106>  (20) 
hydroph_interaction:GLU:106    NaN
hydroph_interaction:GLU:106     -1
Name: 19, dtype: object

>  <saltbridge:GLU:106>  (20) 
saltbridge:GLU:106    NaN
saltbridge:GLU:106     -1
Name: 19, dtype: object

>  <halogenbond:GLU:106>  (20) 
halogenbond:GLU:106    NaN
halogenbond:GLU:106     -1
Name: 19, dtype: object

>  <hydroph_interaction:PRO:107>  (20) 
hydroph_interaction:PRO:107    0
hydroph_interaction:PRO:107    0
Name: 19, dtype: object

>  <hbond:PRO:107>  (20) 
hbond:PRO:107    0.0
hbond:PRO:107      0
Name: 19, dtype: object

>  <halogenbond:PRO:107>  (20) 
halogenbond:PRO:107    0.0
halogenbond:PRO:107      0
Name: 19, dtype: object

>  <hbond:GLY:108>  (20) 
hbond:GLY:108    NaN
hbond:GLY:108     -1
Name: 19, dtype: object

>  <halogenbond:GLY:108>  (20) 
halogenbond:GLY:108    NaN
halogenbond:GLY:108     -1
Name: 19, dtype: object

>  <hbond:ASP:109>  (20) 
hbond:ASP:109    NaN
hbond:ASP:109     -1
Name: 19, dtype: object

>  <hydroph_interaction:ASP:109>  (20) 
hydroph_interaction:ASP:109    NaN
hydroph_interaction:ASP:109     -1
Name: 19, dtype: object

>  <saltbridge:ASP:109>  (20) 
saltbridge:ASP:109    NaN
saltbridge:ASP:109     -1
Name: 19, dtype: object

>  <halogenbond:CYS:110>  (20) 
halogenbond:CYS:110    0.0
halogenbond:CYS:110      0
Name: 19, dtype: object

>  <hbond:CYS:110>  (20) 
hbond:CYS:110    NaN
hbond:CYS:110     -1
Name: 19, dtype: object

>  <hbond:GLY:111>  (20) 
hbond:GLY:111    NaN
hbond:GLY:111     -1
Name: 19, dtype: object

>  <hbond:GLY:112>  (20) 
hbond:GLY:112    NaN
hbond:GLY:112     -1
Name: 19, dtype: object

>  <hbond:ILE:113>  (20) 
hbond:ILE:113    NaN
hbond:ILE:113     -1
Name: 19, dtype: object

>  <hydroph_interaction:LEU:114>  (20) 
hydroph_interaction:LEU:114    NaN
hydroph_interaction:LEU:114     -1
Name: 19, dtype: object

>  <hbond:LEU:114>  (20) 
hbond:LEU:114    NaN
hbond:LEU:114     -1
Name: 19, dtype: object

>  <hydroph_interaction:ILE:123>  (20) 
hydroph_interaction:ILE:123    NaN
hydroph_interaction:ILE:123     -1
Name: 19, dtype: object

>  <hbond:ILE:123>  (20) 
hbond:ILE:123    NaN
hbond:ILE:123     -1
Name: 19, dtype: object

>  <hydroph_interaction:VAL:124>  (20) 
hydroph_interaction:VAL:124    0.0
hydroph_interaction:VAL:124      0
Name: 19, dtype: object

>  <hbond:VAL:124>  (20) 
hbond:VAL:124    NaN
hbond:VAL:124     -1
Name: 19, dtype: object

>  <halogenbond:VAL:124>  (20) 
halogenbond:VAL:124    NaN
halogenbond:VAL:124     -1
Name: 19, dtype: object

>  <hbond:SER:125>  (20) 
hbond:SER:125    2
hbond:SER:125    2
Name: 19, dtype: object

>  <halogenbond:SER:125>  (20) 
halogenbond:SER:125    NaN
halogenbond:SER:125     -1
Name: 19, dtype: object

>  <hydroph_interaction:THR:126>  (20) 
hydroph_interaction:THR:126    0.0
hydroph_interaction:THR:126      0
Name: 19, dtype: object

>  <hbond:THR:126>  (20) 
hbond:THR:126    NaN
hbond:THR:126     -1
Name: 19, dtype: object

>  <halogenbond:THR:126>  (20) 
halogenbond:THR:126    NaN
halogenbond:THR:126     -1
Name: 19, dtype: object

>  <hbond:GLY:127>  (20) 
hbond:GLY:127    0
hbond:GLY:127    0
Name: 19, dtype: object

>  <halogenbond:GLY:127>  (20) 
halogenbond:GLY:127    NaN
halogenbond:GLY:127     -1
Name: 19, dtype: object

>  <hydroph_interaction:GLY:127>  (20) 
hydroph_interaction:GLY:127    NaN
hydroph_interaction:GLY:127     -1
Name: 19, dtype: object

>  <hbond:GLY:128>  (20) 
hbond:GLY:128    NaN
hbond:GLY:128     -1
Name: 19, dtype: object

>  <halogenbond:GLY:128>  (20) 
halogenbond:GLY:128    NaN
halogenbond:GLY:128     -1
Name: 19, dtype: object

>  <hydroph_interaction:GLY:128>  (20) 
hydroph_interaction:GLY:128    NaN
hydroph_interaction:GLY:128     -1
Name: 19, dtype: object

>  <hbond:ASN:129>  (20) 
hbond:ASN:129    NaN
hbond:ASN:129     -1
Name: 19, dtype: object

>  <hydroph_interaction:ASN:129>  (20) 
hydroph_interaction:ASN:129    NaN
hydroph_interaction:ASN:129     -1
Name: 19, dtype: object

>  <halogenbond:ASN:129>  (20) 
halogenbond:ASN:129    NaN
halogenbond:ASN:129     -1
Name: 19, dtype: object

>  <hbond:GLY:130>  (20) 
hbond:GLY:130    NaN
hbond:GLY:130     -1
Name: 19, dtype: object

>  <hbond:LEU:131>  (20) 
hbond:LEU:131    NaN
hbond:LEU:131     -1
Name: 19, dtype: object

>  <hydroph_interaction:LEU:131>  (20) 
hydroph_interaction:LEU:131    NaN
hydroph_interaction:LEU:131     -1
Name: 19, dtype: object

>  <halogenbond:LEU:131>  (20) 
halogenbond:LEU:131    NaN
halogenbond:LEU:131     -1
Name: 19, dtype: object

>  <hydroph_interaction:VAL:132>  (20) 
hydroph_interaction:VAL:132    NaN
hydroph_interaction:VAL:132     -1
Name: 19, dtype: object

>  <hbond:VAL:132>  (20) 
hbond:VAL:132    NaN
hbond:VAL:132     -1
Name: 19, dtype: object

>  <hbond:GLY:133>  (20) 
hbond:GLY:133    NaN
hbond:GLY:133     -1
Name: 19, dtype: object

>  <halogenbond:GLY:133>  (20) 
halogenbond:GLY:133    NaN
halogenbond:GLY:133     -1
Name: 19, dtype: object

>  <hydroph_interaction:PHE:134>  (20) 
hydroph_interaction:PHE:134    NaN
hydroph_interaction:PHE:134     -1
Name: 19, dtype: object

>  <hbond:PHE:134>  (20) 
hbond:PHE:134    NaN
hbond:PHE:134     -1
Name: 19, dtype: object

>  <pistack:PHE:134>  (20) 
pistack:PHE:134    NaN
pistack:PHE:134     -1
Name: 19, dtype: object

>  <pication:PHE:134>  (20) 
pication:PHE:134    NaN
pication:PHE:134     -1
Name: 19, dtype: object

>  <halogenbond:PHE:134>  (20) 
halogenbond:PHE:134    NaN
halogenbond:PHE:134     -1
Name: 19, dtype: object

>  <hydroph_interaction:ALA:135>  (20) 
hydroph_interaction:ALA:135    NaN
hydroph_interaction:ALA:135     -1
Name: 19, dtype: object

>  <hbond:ALA:135>  (20) 
hbond:ALA:135    NaN
hbond:ALA:135     -1
Name: 19, dtype: object

$$$$
Z2763288475
     RDKit          3D

 26 26  0  0  0  0  0  0  0  0999 V2000
   11.7970   14.2850   21.6050 C   0  0  0  0  0  0  0  0  0  0  0  0
   10.9850   14.4230   22.8640 C   0  0  0  0  0  0  0  0  0  0  0  0
   11.4680   14.8620   23.8980 O   0  0  0  0  0  0  0  0  0  0  0  0
    9.6920   13.9920   22.7140 N   0  0  0  0  0  0  0  0  0  0  0  0
    9.4310   12.7330   23.1630 C   0  0  0  0  0  0  0  0  0  0  0  0
   10.1480   11.6230   22.7750 C   0  0  0  0  0  0  0  0  0  0  0  0
    9.6860   10.3710   23.3870 C   0  0  0  0  0  0  0  0  0  0  0  0
   10.3330    9.0910   23.0610 C   0  0  0  0  0  0  0  0  0  0  0  0
    8.6250   10.3480   24.2910 C   0  0  0  0  0  0  0  0  0  0  0  0
    7.9480   11.4980   24.6510 C   0  0  0  0  0  0  0  0  0  0  0  0
    6.7950   11.4140   25.6530 C   0  0  0  0  0  0  0  0  0  0  0  0
    8.3620   12.6800   24.0700 C   0  0  0  0  0  0  0  0  0  0  0  0
    7.7450   13.8800   24.3470 O   0  0  0  0  0  0  0  0  0  0  0  0
   11.1650   14.3040   20.7150 H   0  0  0  0  0  0  0  0  0  0  0  0
   12.3590   13.3470   21.6360 H   0  0  0  0  0  0  0  0  0  0  0  0
   12.4990   15.1240   21.5400 H   0  0  0  0  0  0  0  0  0  0  0  0
    9.1390   14.3750   21.9590 H   0  0  0  0  0  0  0  0  0  0  0  0
   10.9660   11.6570   22.0890 H   0  0  0  0  0  0  0  0  0  0  0  0
    9.8760    8.2990   23.6320 H   0  0  0  0  0  0  0  0  0  0  0  0
   11.3940    9.1060   23.3160 H   0  0  0  0  0  0  0  0  0  0  0  0
   10.2390    8.8700   21.9970 H   0  0  0  0  0  0  0  0  0  0  0  0
    8.3230    9.3940   24.7220 H   0  0  0  0  0  0  0  0  0  0  0  0
    6.4360   10.3830   25.7230 H   0  0  0  0  0  0  0  0  0  0  0  0
    7.1360   11.7100   26.6470 H   0  0  0  0  0  0  0  0  0  0  0  0
    5.9750   12.0680   25.3460 H   0  0  0  0  0  0  0  0  0  0  0  0
    6.8370   13.7020   24.6580 H   0  0  0  0  0  0  0  0  0  0  0  0
  1  2  1  0
  2  3  2  0
  2  4  1  0
  4  5  1  0
  5  6  2  0
  6  7  1  0
  7  8  1  0
  7  9  2  0
  9 10  1  0
 10 11  1  0
 10 12  2  0
 12 13  1  0
 12  5  1  0
  1 14  1  0
  1 15  1  0
  1 16  1  0
  4 17  1  0
  6 18  1  0
  8 19  1  0
  8 20  1  0
  8 21  1  0
  9 22  1  0
 11 23  1  0
 11 24  1  0
 11 25  1  0
 13 26  1  0
A    1
 C1 
A    2
 C2 
A    3
 O1 
A    4
 N1 
A    5
 C3 
A    6
 C4 
A    7
 C5 
A    8
 C6 
A    9
 C7 
A   10
 C8 
A   11
 C9 
A   12
 C10
A   13
 O2 
A   14
 H1 
A   15
 H2 
A   16
 H3 
A   17
 H4 
A   18
 H5 
A   19
 H6 
A   20
 H7 
A   21
 H8 
A   22
 H9 
A   23
 H10
A   24
 H11
A   25
 H12
A   26
 H13
M  END
>  <ref_pdb>  (21) 
x0310_0A

>  <ref_mols>  (21) 
x0451_0A,x0732_0A

>  <original SMILES>  (21) 
CC(=O)Nc1cc(C)cc(C)c1O

>  <rationale>  (21) 
info halogenbond:G127+D39+A86+E85+Q95+E106+T126+H104+Y64+C65+S87+N129+F83+R93+L131+I82+G128+P91+N19+H21+V84+G133+Y90+Y89+H97+L81+F134+L98+R20+G103+S66+S67+S7+G108+R38+V124+M99+S36; hbond:S87+Y90+Q95+T126+A86+C110+E85+G108+G103+G128+G130+L131+N129+N19+H104+R68+V124+R93+P91+F83+S67+S7+S66+G112+G133+V132+R20+Y89+S77+A135+Y63+A92+A101+M99+F134+L100+I82+Y64+S36+L98+V84+L81+Y94+S80+R38+S37+V102+G8+I123+G111+I113+L114+C65+L22+S96; hydroph_interaction:V124+H21+L22+E85+E106+N129+D39+N19+L40+I123+A135+Q95+I82+L100+L98+L131+F83+R93+V132+Y63+F134+H104+R20+A86+V74+P91+A101+F76+M99+L114+A92+Y94+R68+Y72+Y64+V18+V102+W28+G127+G128+L81; pication:H104+R93+Y63+F134+Y90+R68+F83+R20; pistack:H21+Y89+Y90+H104+F134+Y63+F83+Y94; saltbridge:R93+H104+E106+D109+E85+E88+R68+R20; 

>  <intxn_cluster>  (21) 
-1

>  <intxn_cluster_rank>  (21) 
-1

>  <N_interactions>  (21) 
3

>  <∆∆G>  (21) 
-11.102343

>  <$/mg>  (21) 
0.0

>  <comRMSD>  (21) 
0.46723

>  <N_rotatable_bonds>  (21) 
5

>  <deep_P1_sidechain>  (21) 
nan

>  <farthest_distance_to_substrate>  (21) 
2.23773

>  <hbond:SER:7>  (21) 
hbond:SER:7    NaN
hbond:SER:7     -1
Name: 20, dtype: object

>  <halogenbond:SER:7>  (21) 
halogenbond:SER:7    NaN
halogenbond:SER:7     -1
Name: 20, dtype: object

>  <hbond:GLY:8>  (21) 
hbond:GLY:8    NaN
hbond:GLY:8     -1
Name: 20, dtype: object

>  <hydroph_interaction:VAL:18>  (21) 
hydroph_interaction:VAL:18    NaN
hydroph_interaction:VAL:18     -1
Name: 20, dtype: object

>  <hbond:ASN:19>  (21) 
hbond:ASN:19    NaN
hbond:ASN:19     -1
Name: 20, dtype: object

>  <hydroph_interaction:ASN:19>  (21) 
hydroph_interaction:ASN:19    NaN
hydroph_interaction:ASN:19     -1
Name: 20, dtype: object

>  <halogenbond:ASN:19>  (21) 
halogenbond:ASN:19    NaN
halogenbond:ASN:19     -1
Name: 20, dtype: object

>  <hbond:ARG:20>  (21) 
hbond:ARG:20    NaN
hbond:ARG:20     -1
Name: 20, dtype: object

>  <hydroph_interaction:ARG:20>  (21) 
hydroph_interaction:ARG:20    NaN
hydroph_interaction:ARG:20     -1
Name: 20, dtype: object

>  <saltbridge:ARG:20>  (21) 
saltbridge:ARG:20    NaN
saltbridge:ARG:20     -1
Name: 20, dtype: object

>  <halogenbond:ARG:20>  (21) 
halogenbond:ARG:20    NaN
halogenbond:ARG:20     -1
Name: 20, dtype: object

>  <pication:ARG:20>  (21) 
pication:ARG:20    NaN
pication:ARG:20     -1
Name: 20, dtype: object

>  <hbond:HIS:21>  (21) 
hbond:HIS:21    0.0
hbond:HIS:21      0
Name: 20, dtype: object

>  <hydroph_interaction:HIS:21>  (21) 
hydroph_interaction:HIS:21    NaN
hydroph_interaction:HIS:21     -1
Name: 20, dtype: object

>  <pistack:HIS:21>  (21) 
pistack:HIS:21    NaN
pistack:HIS:21     -1
Name: 20, dtype: object

>  <pication:HIS:21>  (21) 
pication:HIS:21    0.0
pication:HIS:21      0
Name: 20, dtype: object

>  <saltbridge:HIS:21>  (21) 
saltbridge:HIS:21    0.0
saltbridge:HIS:21      0
Name: 20, dtype: object

>  <halogenbond:HIS:21>  (21) 
halogenbond:HIS:21    NaN
halogenbond:HIS:21     -1
Name: 20, dtype: object

>  <hydroph_interaction:LEU:22>  (21) 
hydroph_interaction:LEU:22    NaN
hydroph_interaction:LEU:22     -1
Name: 20, dtype: object

>  <hbond:LEU:22>  (21) 
hbond:LEU:22    NaN
hbond:LEU:22     -1
Name: 20, dtype: object

>  <hydroph_interaction:TRP:28>  (21) 
hydroph_interaction:TRP:28    NaN
hydroph_interaction:TRP:28     -1
Name: 20, dtype: object

>  <hbond:SER:36>  (21) 
hbond:SER:36    NaN
hbond:SER:36     -1
Name: 20, dtype: object

>  <halogenbond:SER:36>  (21) 
halogenbond:SER:36    NaN
halogenbond:SER:36     -1
Name: 20, dtype: object

>  <hbond:SER:37>  (21) 
hbond:SER:37    NaN
hbond:SER:37     -1
Name: 20, dtype: object

>  <hbond:ARG:38>  (21) 
hbond:ARG:38    NaN
hbond:ARG:38     -1
Name: 20, dtype: object

>  <halogenbond:ARG:38>  (21) 
halogenbond:ARG:38    NaN
halogenbond:ARG:38     -1
Name: 20, dtype: object

>  <saltbridge:ASP:39>  (21) 
saltbridge:ASP:39    0.0
saltbridge:ASP:39      0
Name: 20, dtype: object

>  <halogenbond:ASP:39>  (21) 
halogenbond:ASP:39    NaN
halogenbond:ASP:39     -1
Name: 20, dtype: object

>  <hbond:ASP:39>  (21) 
hbond:ASP:39    0.0
hbond:ASP:39      0
Name: 20, dtype: object

>  <hydroph_interaction:ASP:39>  (21) 
hydroph_interaction:ASP:39    NaN
hydroph_interaction:ASP:39     -1
Name: 20, dtype: object

>  <hydroph_interaction:LEU:40>  (21) 
hydroph_interaction:LEU:40    NaN
hydroph_interaction:LEU:40     -1
Name: 20, dtype: object

>  <hydroph_interaction:TYR:63>  (21) 
hydroph_interaction:TYR:63    NaN
hydroph_interaction:TYR:63     -1
Name: 20, dtype: object

>  <hbond:TYR:63>  (21) 
hbond:TYR:63    NaN
hbond:TYR:63     -1
Name: 20, dtype: object

>  <pistack:TYR:63>  (21) 
pistack:TYR:63    NaN
pistack:TYR:63     -1
Name: 20, dtype: object

>  <pication:TYR:63>  (21) 
pication:TYR:63    NaN
pication:TYR:63     -1
Name: 20, dtype: object

>  <halogenbond:TYR:64>  (21) 
halogenbond:TYR:64    NaN
halogenbond:TYR:64     -1
Name: 20, dtype: object

>  <hbond:TYR:64>  (21) 
hbond:TYR:64    NaN
hbond:TYR:64     -1
Name: 20, dtype: object

>  <hydroph_interaction:TYR:64>  (21) 
hydroph_interaction:TYR:64    NaN
hydroph_interaction:TYR:64     -1
Name: 20, dtype: object

>  <halogenbond:CYS:65>  (21) 
halogenbond:CYS:65    NaN
halogenbond:CYS:65     -1
Name: 20, dtype: object

>  <hbond:CYS:65>  (21) 
hbond:CYS:65    NaN
hbond:CYS:65     -1
Name: 20, dtype: object

>  <hbond:SER:66>  (21) 
hbond:SER:66    NaN
hbond:SER:66     -1
Name: 20, dtype: object

>  <halogenbond:SER:66>  (21) 
halogenbond:SER:66    NaN
halogenbond:SER:66     -1
Name: 20, dtype: object

>  <hbond:SER:67>  (21) 
hbond:SER:67    NaN
hbond:SER:67     -1
Name: 20, dtype: object

>  <halogenbond:SER:67>  (21) 
halogenbond:SER:67    NaN
halogenbond:SER:67     -1
Name: 20, dtype: object

>  <hbond:ARG:68>  (21) 
hbond:ARG:68    NaN
hbond:ARG:68     -1
Name: 20, dtype: object

>  <saltbridge:ARG:68>  (21) 
saltbridge:ARG:68    NaN
saltbridge:ARG:68     -1
Name: 20, dtype: object

>  <hydroph_interaction:ARG:68>  (21) 
hydroph_interaction:ARG:68    NaN
hydroph_interaction:ARG:68     -1
Name: 20, dtype: object

>  <pication:ARG:68>  (21) 
pication:ARG:68    NaN
pication:ARG:68     -1
Name: 20, dtype: object

>  <hydroph_interaction:TYR:72>  (21) 
hydroph_interaction:TYR:72    NaN
hydroph_interaction:TYR:72     -1
Name: 20, dtype: object

>  <hydroph_interaction:VAL:74>  (21) 
hydroph_interaction:VAL:74    NaN
hydroph_interaction:VAL:74     -1
Name: 20, dtype: object

>  <hydroph_interaction:PHE:76>  (21) 
hydroph_interaction:PHE:76    NaN
hydroph_interaction:PHE:76     -1
Name: 20, dtype: object

>  <hbond:SER:77>  (21) 
hbond:SER:77    NaN
hbond:SER:77     -1
Name: 20, dtype: object

>  <hbond:SER:80>  (21) 
hbond:SER:80    NaN
hbond:SER:80     -1
Name: 20, dtype: object

>  <hbond:LEU:81>  (21) 
hbond:LEU:81    NaN
hbond:LEU:81     -1
Name: 20, dtype: object

>  <halogenbond:LEU:81>  (21) 
halogenbond:LEU:81    NaN
halogenbond:LEU:81     -1
Name: 20, dtype: object

>  <hydroph_interaction:LEU:81>  (21) 
hydroph_interaction:LEU:81    NaN
hydroph_interaction:LEU:81     -1
Name: 20, dtype: object

>  <hydroph_interaction:ILE:82>  (21) 
hydroph_interaction:ILE:82    NaN
hydroph_interaction:ILE:82     -1
Name: 20, dtype: object

>  <halogenbond:ILE:82>  (21) 
halogenbond:ILE:82    NaN
halogenbond:ILE:82     -1
Name: 20, dtype: object

>  <hbond:ILE:82>  (21) 
hbond:ILE:82    NaN
hbond:ILE:82     -1
Name: 20, dtype: object

>  <hbond:PHE:83>  (21) 
hbond:PHE:83    NaN
hbond:PHE:83     -1
Name: 20, dtype: object

>  <hydroph_interaction:PHE:83>  (21) 
hydroph_interaction:PHE:83    NaN
hydroph_interaction:PHE:83     -1
Name: 20, dtype: object

>  <halogenbond:PHE:83>  (21) 
halogenbond:PHE:83    NaN
halogenbond:PHE:83     -1
Name: 20, dtype: object

>  <pistack:PHE:83>  (21) 
pistack:PHE:83    NaN
pistack:PHE:83     -1
Name: 20, dtype: object

>  <pication:PHE:83>  (21) 
pication:PHE:83    NaN
pication:PHE:83     -1
Name: 20, dtype: object

>  <hydroph_interaction:VAL:84>  (21) 
hydroph_interaction:VAL:84    0.0
hydroph_interaction:VAL:84      0
Name: 20, dtype: object

>  <halogenbond:VAL:84>  (21) 
halogenbond:VAL:84    NaN
halogenbond:VAL:84     -1
Name: 20, dtype: object

>  <hbond:VAL:84>  (21) 
hbond:VAL:84    NaN
hbond:VAL:84     -1
Name: 20, dtype: object

>  <hydroph_interaction:GLU:85>  (21) 
hydroph_interaction:GLU:85    NaN
hydroph_interaction:GLU:85     -1
Name: 20, dtype: object

>  <hbond:GLU:85>  (21) 
hbond:GLU:85    NaN
hbond:GLU:85     -1
Name: 20, dtype: object

>  <halogenbond:GLU:85>  (21) 
halogenbond:GLU:85    NaN
halogenbond:GLU:85     -1
Name: 20, dtype: object

>  <saltbridge:GLU:85>  (21) 
saltbridge:GLU:85    NaN
saltbridge:GLU:85     -1
Name: 20, dtype: object

>  <halogenbond:ALA:86>  (21) 
halogenbond:ALA:86    NaN
halogenbond:ALA:86     -1
Name: 20, dtype: object

>  <hbond:ALA:86>  (21) 
hbond:ALA:86    NaN
hbond:ALA:86     -1
Name: 20, dtype: object

>  <hydroph_interaction:ALA:86>  (21) 
hydroph_interaction:ALA:86    NaN
hydroph_interaction:ALA:86     -1
Name: 20, dtype: object

>  <hbond:SER:87>  (21) 
hbond:SER:87    2
hbond:SER:87    2
Name: 20, dtype: object

>  <halogenbond:SER:87>  (21) 
halogenbond:SER:87    NaN
halogenbond:SER:87     -1
Name: 20, dtype: object

>  <hbond:GLU:88>  (21) 
hbond:GLU:88    0.0
hbond:GLU:88      0
Name: 20, dtype: object

>  <hydroph_interaction:GLU:88>  (21) 
hydroph_interaction:GLU:88    0.0
hydroph_interaction:GLU:88      0
Name: 20, dtype: object

>  <halogenbond:GLU:88>  (21) 
halogenbond:GLU:88    0.0
halogenbond:GLU:88      0
Name: 20, dtype: object

>  <saltbridge:GLU:88>  (21) 
saltbridge:GLU:88    NaN
saltbridge:GLU:88     -1
Name: 20, dtype: object

>  <hydroph_interaction:TYR:89>  (21) 
hydroph_interaction:TYR:89    0.0
hydroph_interaction:TYR:89      0
Name: 20, dtype: object

>  <pistack:TYR:89>  (21) 
pistack:TYR:89    NaN
pistack:TYR:89     -1
Name: 20, dtype: object

>  <hbond:TYR:89>  (21) 
hbond:TYR:89    NaN
hbond:TYR:89     -1
Name: 20, dtype: object

>  <halogenbond:TYR:89>  (21) 
halogenbond:TYR:89    NaN
halogenbond:TYR:89     -1
Name: 20, dtype: object

>  <hydroph_interaction:TYR:90>  (21) 
hydroph_interaction:TYR:90    0.0
hydroph_interaction:TYR:90      0
Name: 20, dtype: object

>  <hbond:TYR:90>  (21) 
hbond:TYR:90    NaN
hbond:TYR:90     -1
Name: 20, dtype: object

>  <pistack:TYR:90>  (21) 
pistack:TYR:90    NaN
pistack:TYR:90     -1
Name: 20, dtype: object

>  <halogenbond:TYR:90>  (21) 
halogenbond:TYR:90    NaN
halogenbond:TYR:90     -1
Name: 20, dtype: object

>  <pication:TYR:90>  (21) 
pication:TYR:90    NaN
pication:TYR:90     -1
Name: 20, dtype: object

>  <hbond:PRO:91>  (21) 
hbond:PRO:91    NaN
hbond:PRO:91     -1
Name: 20, dtype: object

>  <hydroph_interaction:PRO:91>  (21) 
hydroph_interaction:PRO:91    NaN
hydroph_interaction:PRO:91     -1
Name: 20, dtype: object

>  <halogenbond:PRO:91>  (21) 
halogenbond:PRO:91    NaN
halogenbond:PRO:91     -1
Name: 20, dtype: object

>  <hbond:ALA:92>  (21) 
hbond:ALA:92    NaN
hbond:ALA:92     -1
Name: 20, dtype: object

>  <hydroph_interaction:ALA:92>  (21) 
hydroph_interaction:ALA:92    NaN
hydroph_interaction:ALA:92     -1
Name: 20, dtype: object

>  <saltbridge:ARG:93>  (21) 
saltbridge:ARG:93    NaN
saltbridge:ARG:93     -1
Name: 20, dtype: object

>  <hbond:ARG:93>  (21) 
hbond:ARG:93    NaN
hbond:ARG:93     -1
Name: 20, dtype: object

>  <hydroph_interaction:ARG:93>  (21) 
hydroph_interaction:ARG:93    NaN
hydroph_interaction:ARG:93     -1
Name: 20, dtype: object

>  <halogenbond:ARG:93>  (21) 
halogenbond:ARG:93    NaN
halogenbond:ARG:93     -1
Name: 20, dtype: object

>  <pication:ARG:93>  (21) 
pication:ARG:93    NaN
pication:ARG:93     -1
Name: 20, dtype: object

>  <hydroph_interaction:TYR:94>  (21) 
hydroph_interaction:TYR:94    NaN
hydroph_interaction:TYR:94     -1
Name: 20, dtype: object

>  <pistack:TYR:94>  (21) 
pistack:TYR:94    NaN
pistack:TYR:94     -1
Name: 20, dtype: object

>  <hbond:TYR:94>  (21) 
hbond:TYR:94    NaN
hbond:TYR:94     -1
Name: 20, dtype: object

>  <hbond:GLN:95>  (21) 
hbond:GLN:95    NaN
hbond:GLN:95     -1
Name: 20, dtype: object

>  <hydroph_interaction:GLN:95>  (21) 
hydroph_interaction:GLN:95    NaN
hydroph_interaction:GLN:95     -1
Name: 20, dtype: object

>  <halogenbond:GLN:95>  (21) 
halogenbond:GLN:95    NaN
halogenbond:GLN:95     -1
Name: 20, dtype: object

>  <hbond:SER:96>  (21) 
hbond:SER:96    NaN
hbond:SER:96     -1
Name: 20, dtype: object

>  <halogenbond:HIS:97>  (21) 
halogenbond:HIS:97    NaN
halogenbond:HIS:97     -1
Name: 20, dtype: object

>  <hydroph_interaction:LEU:98>  (21) 
hydroph_interaction:LEU:98    NaN
hydroph_interaction:LEU:98     -1
Name: 20, dtype: object

>  <hbond:LEU:98>  (21) 
hbond:LEU:98    NaN
hbond:LEU:98     -1
Name: 20, dtype: object

>  <halogenbond:LEU:98>  (21) 
halogenbond:LEU:98    NaN
halogenbond:LEU:98     -1
Name: 20, dtype: object

>  <hbond:MET:99>  (21) 
hbond:MET:99    NaN
hbond:MET:99     -1
Name: 20, dtype: object

>  <hydroph_interaction:MET:99>  (21) 
hydroph_interaction:MET:99    NaN
hydroph_interaction:MET:99     -1
Name: 20, dtype: object

>  <halogenbond:MET:99>  (21) 
halogenbond:MET:99    NaN
halogenbond:MET:99     -1
Name: 20, dtype: object

>  <hydroph_interaction:LEU:100>  (21) 
hydroph_interaction:LEU:100    NaN
hydroph_interaction:LEU:100     -1
Name: 20, dtype: object

>  <hbond:LEU:100>  (21) 
hbond:LEU:100    NaN
hbond:LEU:100     -1
Name: 20, dtype: object

>  <hbond:ALA:101>  (21) 
hbond:ALA:101    NaN
hbond:ALA:101     -1
Name: 20, dtype: object

>  <hydroph_interaction:ALA:101>  (21) 
hydroph_interaction:ALA:101    NaN
hydroph_interaction:ALA:101     -1
Name: 20, dtype: object

>  <hydroph_interaction:VAL:102>  (21) 
hydroph_interaction:VAL:102    NaN
hydroph_interaction:VAL:102     -1
Name: 20, dtype: object

>  <hbond:VAL:102>  (21) 
hbond:VAL:102    NaN
hbond:VAL:102     -1
Name: 20, dtype: object

>  <hbond:GLY:103>  (21) 
hbond:GLY:103    NaN
hbond:GLY:103     -1
Name: 20, dtype: object

>  <halogenbond:GLY:103>  (21) 
halogenbond:GLY:103    NaN
halogenbond:GLY:103     -1
Name: 20, dtype: object

>  <hbond:HIS:104>  (21) 
hbond:HIS:104    NaN
hbond:HIS:104     -1
Name: 20, dtype: object

>  <saltbridge:HIS:104>  (21) 
saltbridge:HIS:104    NaN
saltbridge:HIS:104     -1
Name: 20, dtype: object

>  <pication:HIS:104>  (21) 
pication:HIS:104    NaN
pication:HIS:104     -1
Name: 20, dtype: object

>  <halogenbond:HIS:104>  (21) 
halogenbond:HIS:104    NaN
halogenbond:HIS:104     -1
Name: 20, dtype: object

>  <hydroph_interaction:HIS:104>  (21) 
hydroph_interaction:HIS:104    NaN
hydroph_interaction:HIS:104     -1
Name: 20, dtype: object

>  <pistack:HIS:104>  (21) 
pistack:HIS:104    NaN
pistack:HIS:104     -1
Name: 20, dtype: object

>  <halogenbond:SER:105>  (21) 
halogenbond:SER:105    0.0
halogenbond:SER:105      0
Name: 20, dtype: object

>  <hbond:SER:105>  (21) 
hbond:SER:105    0.0
hbond:SER:105      0
Name: 20, dtype: object

>  <hbond:GLU:106>  (21) 
hbond:GLU:106    0.0
hbond:GLU:106      0
Name: 20, dtype: object

>  <hydroph_interaction:GLU:106>  (21) 
hydroph_interaction:GLU:106    NaN
hydroph_interaction:GLU:106     -1
Name: 20, dtype: object

>  <saltbridge:GLU:106>  (21) 
saltbridge:GLU:106    NaN
saltbridge:GLU:106     -1
Name: 20, dtype: object

>  <halogenbond:GLU:106>  (21) 
halogenbond:GLU:106    NaN
halogenbond:GLU:106     -1
Name: 20, dtype: object

>  <hydroph_interaction:PRO:107>  (21) 
hydroph_interaction:PRO:107    0
hydroph_interaction:PRO:107    0
Name: 20, dtype: object

>  <hbond:PRO:107>  (21) 
hbond:PRO:107    0.0
hbond:PRO:107      0
Name: 20, dtype: object

>  <halogenbond:PRO:107>  (21) 
halogenbond:PRO:107    0.0
halogenbond:PRO:107      0
Name: 20, dtype: object

>  <hbond:GLY:108>  (21) 
hbond:GLY:108    NaN
hbond:GLY:108     -1
Name: 20, dtype: object

>  <halogenbond:GLY:108>  (21) 
halogenbond:GLY:108    NaN
halogenbond:GLY:108     -1
Name: 20, dtype: object

>  <hbond:ASP:109>  (21) 
hbond:ASP:109    0.0
hbond:ASP:109      0
Name: 20, dtype: object

>  <hydroph_interaction:ASP:109>  (21) 
hydroph_interaction:ASP:109    0.0
hydroph_interaction:ASP:109      0
Name: 20, dtype: object

>  <saltbridge:ASP:109>  (21) 
saltbridge:ASP:109    NaN
saltbridge:ASP:109     -1
Name: 20, dtype: object

>  <halogenbond:CYS:110>  (21) 
halogenbond:CYS:110    0.0
halogenbond:CYS:110      0
Name: 20, dtype: object

>  <hbond:CYS:110>  (21) 
hbond:CYS:110    NaN
hbond:CYS:110     -1
Name: 20, dtype: object

>  <hbond:GLY:111>  (21) 
hbond:GLY:111    NaN
hbond:GLY:111     -1
Name: 20, dtype: object

>  <hbond:GLY:112>  (21) 
hbond:GLY:112    NaN
hbond:GLY:112     -1
Name: 20, dtype: object

>  <hbond:ILE:113>  (21) 
hbond:ILE:113    NaN
hbond:ILE:113     -1
Name: 20, dtype: object

>  <hydroph_interaction:LEU:114>  (21) 
hydroph_interaction:LEU:114    NaN
hydroph_interaction:LEU:114     -1
Name: 20, dtype: object

>  <hbond:LEU:114>  (21) 
hbond:LEU:114    NaN
hbond:LEU:114     -1
Name: 20, dtype: object

>  <hydroph_interaction:ILE:123>  (21) 
hydroph_interaction:ILE:123    NaN
hydroph_interaction:ILE:123     -1
Name: 20, dtype: object

>  <hbond:ILE:123>  (21) 
hbond:ILE:123    NaN
hbond:ILE:123     -1
Name: 20, dtype: object

>  <hydroph_interaction:VAL:124>  (21) 
hydroph_interaction:VAL:124    1.0
hydroph_interaction:VAL:124      1
Name: 20, dtype: object

>  <hbond:VAL:124>  (21) 
hbond:VAL:124    NaN
hbond:VAL:124     -1
Name: 20, dtype: object

>  <halogenbond:VAL:124>  (21) 
halogenbond:VAL:124    NaN
halogenbond:VAL:124     -1
Name: 20, dtype: object

>  <hbond:SER:125>  (21) 
hbond:SER:125    0
hbond:SER:125    0
Name: 20, dtype: object

>  <halogenbond:SER:125>  (21) 
halogenbond:SER:125    0.0
halogenbond:SER:125      0
Name: 20, dtype: object

>  <hydroph_interaction:THR:126>  (21) 
hydroph_interaction:THR:126    0.0
hydroph_interaction:THR:126      0
Name: 20, dtype: object

>  <hbond:THR:126>  (21) 
hbond:THR:126    NaN
hbond:THR:126     -1
Name: 20, dtype: object

>  <halogenbond:THR:126>  (21) 
halogenbond:THR:126    NaN
halogenbond:THR:126     -1
Name: 20, dtype: object

>  <hbond:GLY:127>  (21) 
hbond:GLY:127    0
hbond:GLY:127    0
Name: 20, dtype: object

>  <halogenbond:GLY:127>  (21) 
halogenbond:GLY:127    NaN
halogenbond:GLY:127     -1
Name: 20, dtype: object

>  <hydroph_interaction:GLY:127>  (21) 
hydroph_interaction:GLY:127    NaN
hydroph_interaction:GLY:127     -1
Name: 20, dtype: object

>  <hbond:GLY:128>  (21) 
hbond:GLY:128    NaN
hbond:GLY:128     -1
Name: 20, dtype: object

>  <halogenbond:GLY:128>  (21) 
halogenbond:GLY:128    NaN
halogenbond:GLY:128     -1
Name: 20, dtype: object

>  <hydroph_interaction:GLY:128>  (21) 
hydroph_interaction:GLY:128    NaN
hydroph_interaction:GLY:128     -1
Name: 20, dtype: object

>  <hbond:ASN:129>  (21) 
hbond:ASN:129    NaN
hbond:ASN:129     -1
Name: 20, dtype: object

>  <hydroph_interaction:ASN:129>  (21) 
hydroph_interaction:ASN:129    NaN
hydroph_interaction:ASN:129     -1
Name: 20, dtype: object

>  <halogenbond:ASN:129>  (21) 
halogenbond:ASN:129    NaN
halogenbond:ASN:129     -1
Name: 20, dtype: object

>  <hbond:GLY:130>  (21) 
hbond:GLY:130    NaN
hbond:GLY:130     -1
Name: 20, dtype: object

>  <hbond:LEU:131>  (21) 
hbond:LEU:131    NaN
hbond:LEU:131     -1
Name: 20, dtype: object

>  <hydroph_interaction:LEU:131>  (21) 
hydroph_interaction:LEU:131    NaN
hydroph_interaction:LEU:131     -1
Name: 20, dtype: object

>  <halogenbond:LEU:131>  (21) 
halogenbond:LEU:131    NaN
halogenbond:LEU:131     -1
Name: 20, dtype: object

>  <hydroph_interaction:VAL:132>  (21) 
hydroph_interaction:VAL:132    NaN
hydroph_interaction:VAL:132     -1
Name: 20, dtype: object

>  <hbond:VAL:132>  (21) 
hbond:VAL:132    NaN
hbond:VAL:132     -1
Name: 20, dtype: object

>  <hbond:GLY:133>  (21) 
hbond:GLY:133    NaN
hbond:GLY:133     -1
Name: 20, dtype: object

>  <halogenbond:GLY:133>  (21) 
halogenbond:GLY:133    NaN
halogenbond:GLY:133     -1
Name: 20, dtype: object

>  <hydroph_interaction:PHE:134>  (21) 
hydroph_interaction:PHE:134    NaN
hydroph_interaction:PHE:134     -1
Name: 20, dtype: object

>  <hbond:PHE:134>  (21) 
hbond:PHE:134    NaN
hbond:PHE:134     -1
Name: 20, dtype: object

>  <pistack:PHE:134>  (21) 
pistack:PHE:134    NaN
pistack:PHE:134     -1
Name: 20, dtype: object

>  <pication:PHE:134>  (21) 
pication:PHE:134    NaN
pication:PHE:134     -1
Name: 20, dtype: object

>  <halogenbond:PHE:134>  (21) 
halogenbond:PHE:134    NaN
halogenbond:PHE:134     -1
Name: 20, dtype: object

>  <hydroph_interaction:ALA:135>  (21) 
hydroph_interaction:ALA:135    NaN
hydroph_interaction:ALA:135     -1
Name: 20, dtype: object

>  <hbond:ALA:135>  (21) 
hbond:ALA:135    NaN
hbond:ALA:135     -1
Name: 20, dtype: object

$$$$
PV_003102737893
     RDKit          3D

 16 16  0  0  0  0  0  0  0  0999 V2000
   10.1320    9.2190   22.6870 C   0  0  0  0  0  0  0  0  0  0  0  0
    9.6110   10.4770   23.2670 C   0  0  0  0  0  0  0  0  0  0  0  0
   10.0620   11.6800   22.8590 N   0  0  0  0  0  0  0  0  0  0  0  0
    9.3760   12.6100   23.5640 N   0  0  0  0  0  0  0  0  0  0  0  0
    8.4450   12.1430   24.4690 C   0  0  0  0  0  0  0  0  0  0  0  0
    7.6370   12.9290   25.2730 N   0  0  0  0  0  0  0  0  0  0  0  0
    6.5130   12.5230   25.9620 C   0  0  0  0  0  0  0  0  0  0  0  0
    6.6570   11.2610   26.4540 N   0  0  0  0  0  0  0  0  0  0  0  0
    5.4640   13.1280   26.1760 O   0  0  0  0  0  0  0  0  0  0  0  0
    8.3980   10.4590   24.4820 S   0  0  0  0  0  0  0  0  0  0  0  0
   10.6240    9.4200   21.7290 H   0  0  0  0  0  0  0  0  0  0  0  0
   10.8610    8.7370   23.3420 H   0  0  0  0  0  0  0  0  0  0  0  0
    9.3130    8.5220   22.5030 H   0  0  0  0  0  0  0  0  0  0  0  0
    7.7720   13.9150   25.1430 H   0  0  0  0  0  0  0  0  0  0  0  0
    5.8360   10.8220   26.8500 H   0  0  0  0  0  0  0  0  0  0  0  0
    7.1510   10.6750   25.7960 H   0  0  0  0  0  0  0  0  0  0  0  0
  1  2  1  0
  2  3  2  0
  3  4  1  0
  4  5  2  0
  5  6  1  0
  6  7  1  0
  7  8  1  0
  7  9  2  0
  5 10  1  0
 10  2  1  0
  1 11  1  0
  1 12  1  0
  1 13  1  0
  6 14  1  0
  8 15  1  0
  8 16  1  0
A    1
 C1 
A    2
 C2 
A    3
 N1 
A    4
 N2 
A    5
 C3 
A    6
 N3 
A    7
 C4 
A    8
 N4 
A    9
 O1 
A   10
 S1 
A   11
 H1 
A   12
 H2 
A   13
 H3 
A   14
 H4 
A   15
 H5 
A   16
 H6 
M  END
>  <ref_pdb>  (22) 
x0310_0A

>  <ref_mols>  (22) 
x0451_0A,x0884_0A

>  <original SMILES>  (22) 
Cc1nnc(NC(N)=O)s1

>  <rationale>  (22) 
info halogenbond:G127+D39+S125+Q95+E106+T126+P107+H104+Y64+C65+S87+N129+F83+R93+L131+I82+G128+P91+N19+H21+V84+G133+Y90+Y89+H97+L81+F134+L98+R20+G103+S66+S67+S7+G108+R38+V124+M99+S36; hbond:G127+S105+P107+D39+A86+D109+E85+G108+G103+G128+G130+L131+N129+H104+R68+V124+R93+P91+F83+S67+S7+S66+G112+G133+V132+R20+Y89+S77+A135+Y63+A92+A101+M99+F134+L100+I82+Y64+S36+L98+V84+L81+Y94+S80+R38+S37+V102+G8+I123+G111+I113+L114+C65+L22+S96; hydroph_interaction:V124+L22+E85+E106+E88+N129+D39+N19+L40+I123+A135+Q95+I82+L100+L98+L131+F83+R93+V132+Y63+F134+H104+R20+A86+V74+P91+A101+F76+M99+L114+A92+Y94+R68+Y72+Y64+V18+V102+W28+G127+G128+L81; pication:H104+R93+Y63+F134+Y90+R68+F83+R20; pistack:H21+Y89+Y90+H104+F134+Y63+F83+Y94; saltbridge:R93+H104+E106+D109+E85+E88+R68+R20; 

>  <intxn_cluster>  (22) 
-1

>  <intxn_cluster_rank>  (22) 
-1

>  <N_interactions>  (22) 
3

>  <∆∆G>  (22) 
-7.0511

>  <$/mg>  (22) 
163.0

>  <comRMSD>  (22) 
0.619748

>  <N_rotatable_bonds>  (22) 
2

>  <deep_P1_sidechain>  (22) 
nan

>  <farthest_distance_to_substrate>  (22) 
2.928351

>  <hbond:SER:7>  (22) 
hbond:SER:7    NaN
hbond:SER:7     -1
Name: 21, dtype: object

>  <halogenbond:SER:7>  (22) 
halogenbond:SER:7    NaN
halogenbond:SER:7     -1
Name: 21, dtype: object

>  <hbond:GLY:8>  (22) 
hbond:GLY:8    NaN
hbond:GLY:8     -1
Name: 21, dtype: object

>  <hydroph_interaction:VAL:18>  (22) 
hydroph_interaction:VAL:18    NaN
hydroph_interaction:VAL:18     -1
Name: 21, dtype: object

>  <hbond:ASN:19>  (22) 
hbond:ASN:19    0.0
hbond:ASN:19      0
Name: 21, dtype: object

>  <hydroph_interaction:ASN:19>  (22) 
hydroph_interaction:ASN:19    NaN
hydroph_interaction:ASN:19     -1
Name: 21, dtype: object

>  <halogenbond:ASN:19>  (22) 
halogenbond:ASN:19    NaN
halogenbond:ASN:19     -1
Name: 21, dtype: object

>  <hbond:ARG:20>  (22) 
hbond:ARG:20    NaN
hbond:ARG:20     -1
Name: 21, dtype: object

>  <hydroph_interaction:ARG:20>  (22) 
hydroph_interaction:ARG:20    NaN
hydroph_interaction:ARG:20     -1
Name: 21, dtype: object

>  <saltbridge:ARG:20>  (22) 
saltbridge:ARG:20    NaN
saltbridge:ARG:20     -1
Name: 21, dtype: object

>  <halogenbond:ARG:20>  (22) 
halogenbond:ARG:20    NaN
halogenbond:ARG:20     -1
Name: 21, dtype: object

>  <pication:ARG:20>  (22) 
pication:ARG:20    NaN
pication:ARG:20     -1
Name: 21, dtype: object

>  <hbond:HIS:21>  (22) 
hbond:HIS:21    0.0
hbond:HIS:21      0
Name: 21, dtype: object

>  <hydroph_interaction:HIS:21>  (22) 
hydroph_interaction:HIS:21    0.0
hydroph_interaction:HIS:21      0
Name: 21, dtype: object

>  <pistack:HIS:21>  (22) 
pistack:HIS:21    NaN
pistack:HIS:21     -1
Name: 21, dtype: object

>  <pication:HIS:21>  (22) 
pication:HIS:21    0.0
pication:HIS:21      0
Name: 21, dtype: object

>  <saltbridge:HIS:21>  (22) 
saltbridge:HIS:21    0.0
saltbridge:HIS:21      0
Name: 21, dtype: object

>  <halogenbond:HIS:21>  (22) 
halogenbond:HIS:21    NaN
halogenbond:HIS:21     -1
Name: 21, dtype: object

>  <hydroph_interaction:LEU:22>  (22) 
hydroph_interaction:LEU:22    NaN
hydroph_interaction:LEU:22     -1
Name: 21, dtype: object

>  <hbond:LEU:22>  (22) 
hbond:LEU:22    NaN
hbond:LEU:22     -1
Name: 21, dtype: object

>  <hydroph_interaction:TRP:28>  (22) 
hydroph_interaction:TRP:28    NaN
hydroph_interaction:TRP:28     -1
Name: 21, dtype: object

>  <hbond:SER:36>  (22) 
hbond:SER:36    NaN
hbond:SER:36     -1
Name: 21, dtype: object

>  <halogenbond:SER:36>  (22) 
halogenbond:SER:36    NaN
halogenbond:SER:36     -1
Name: 21, dtype: object

>  <hbond:SER:37>  (22) 
hbond:SER:37    NaN
hbond:SER:37     -1
Name: 21, dtype: object

>  <hbond:ARG:38>  (22) 
hbond:ARG:38    NaN
hbond:ARG:38     -1
Name: 21, dtype: object

>  <halogenbond:ARG:38>  (22) 
halogenbond:ARG:38    NaN
halogenbond:ARG:38     -1
Name: 21, dtype: object

>  <saltbridge:ASP:39>  (22) 
saltbridge:ASP:39    0.0
saltbridge:ASP:39      0
Name: 21, dtype: object

>  <halogenbond:ASP:39>  (22) 
halogenbond:ASP:39    NaN
halogenbond:ASP:39     -1
Name: 21, dtype: object

>  <hbond:ASP:39>  (22) 
hbond:ASP:39    NaN
hbond:ASP:39     -1
Name: 21, dtype: object

>  <hydroph_interaction:ASP:39>  (22) 
hydroph_interaction:ASP:39    NaN
hydroph_interaction:ASP:39     -1
Name: 21, dtype: object

>  <hydroph_interaction:LEU:40>  (22) 
hydroph_interaction:LEU:40    NaN
hydroph_interaction:LEU:40     -1
Name: 21, dtype: object

>  <hydroph_interaction:TYR:63>  (22) 
hydroph_interaction:TYR:63    NaN
hydroph_interaction:TYR:63     -1
Name: 21, dtype: object

>  <hbond:TYR:63>  (22) 
hbond:TYR:63    NaN
hbond:TYR:63     -1
Name: 21, dtype: object

>  <pistack:TYR:63>  (22) 
pistack:TYR:63    NaN
pistack:TYR:63     -1
Name: 21, dtype: object

>  <pication:TYR:63>  (22) 
pication:TYR:63    NaN
pication:TYR:63     -1
Name: 21, dtype: object

>  <halogenbond:TYR:64>  (22) 
halogenbond:TYR:64    NaN
halogenbond:TYR:64     -1
Name: 21, dtype: object

>  <hbond:TYR:64>  (22) 
hbond:TYR:64    NaN
hbond:TYR:64     -1
Name: 21, dtype: object

>  <hydroph_interaction:TYR:64>  (22) 
hydroph_interaction:TYR:64    NaN
hydroph_interaction:TYR:64     -1
Name: 21, dtype: object

>  <halogenbond:CYS:65>  (22) 
halogenbond:CYS:65    NaN
halogenbond:CYS:65     -1
Name: 21, dtype: object

>  <hbond:CYS:65>  (22) 
hbond:CYS:65    NaN
hbond:CYS:65     -1
Name: 21, dtype: object

>  <hbond:SER:66>  (22) 
hbond:SER:66    NaN
hbond:SER:66     -1
Name: 21, dtype: object

>  <halogenbond:SER:66>  (22) 
halogenbond:SER:66    NaN
halogenbond:SER:66     -1
Name: 21, dtype: object

>  <hbond:SER:67>  (22) 
hbond:SER:67    NaN
hbond:SER:67     -1
Name: 21, dtype: object

>  <halogenbond:SER:67>  (22) 
halogenbond:SER:67    NaN
halogenbond:SER:67     -1
Name: 21, dtype: object

>  <hbond:ARG:68>  (22) 
hbond:ARG:68    NaN
hbond:ARG:68     -1
Name: 21, dtype: object

>  <saltbridge:ARG:68>  (22) 
saltbridge:ARG:68    NaN
saltbridge:ARG:68     -1
Name: 21, dtype: object

>  <hydroph_interaction:ARG:68>  (22) 
hydroph_interaction:ARG:68    NaN
hydroph_interaction:ARG:68     -1
Name: 21, dtype: object

>  <pication:ARG:68>  (22) 
pication:ARG:68    NaN
pication:ARG:68     -1
Name: 21, dtype: object

>  <hydroph_interaction:TYR:72>  (22) 
hydroph_interaction:TYR:72    NaN
hydroph_interaction:TYR:72     -1
Name: 21, dtype: object

>  <hydroph_interaction:VAL:74>  (22) 
hydroph_interaction:VAL:74    NaN
hydroph_interaction:VAL:74     -1
Name: 21, dtype: object

>  <hydroph_interaction:PHE:76>  (22) 
hydroph_interaction:PHE:76    NaN
hydroph_interaction:PHE:76     -1
Name: 21, dtype: object

>  <hbond:SER:77>  (22) 
hbond:SER:77    NaN
hbond:SER:77     -1
Name: 21, dtype: object

>  <hbond:SER:80>  (22) 
hbond:SER:80    NaN
hbond:SER:80     -1
Name: 21, dtype: object

>  <hbond:LEU:81>  (22) 
hbond:LEU:81    NaN
hbond:LEU:81     -1
Name: 21, dtype: object

>  <halogenbond:LEU:81>  (22) 
halogenbond:LEU:81    NaN
halogenbond:LEU:81     -1
Name: 21, dtype: object

>  <hydroph_interaction:LEU:81>  (22) 
hydroph_interaction:LEU:81    NaN
hydroph_interaction:LEU:81     -1
Name: 21, dtype: object

>  <hydroph_interaction:ILE:82>  (22) 
hydroph_interaction:ILE:82    NaN
hydroph_interaction:ILE:82     -1
Name: 21, dtype: object

>  <halogenbond:ILE:82>  (22) 
halogenbond:ILE:82    NaN
halogenbond:ILE:82     -1
Name: 21, dtype: object

>  <hbond:ILE:82>  (22) 
hbond:ILE:82    NaN
hbond:ILE:82     -1
Name: 21, dtype: object

>  <hbond:PHE:83>  (22) 
hbond:PHE:83    NaN
hbond:PHE:83     -1
Name: 21, dtype: object

>  <hydroph_interaction:PHE:83>  (22) 
hydroph_interaction:PHE:83    NaN
hydroph_interaction:PHE:83     -1
Name: 21, dtype: object

>  <halogenbond:PHE:83>  (22) 
halogenbond:PHE:83    NaN
halogenbond:PHE:83     -1
Name: 21, dtype: object

>  <pistack:PHE:83>  (22) 
pistack:PHE:83    NaN
pistack:PHE:83     -1
Name: 21, dtype: object

>  <pication:PHE:83>  (22) 
pication:PHE:83    NaN
pication:PHE:83     -1
Name: 21, dtype: object

>  <hydroph_interaction:VAL:84>  (22) 
hydroph_interaction:VAL:84    0.0
hydroph_interaction:VAL:84      0
Name: 21, dtype: object

>  <halogenbond:VAL:84>  (22) 
halogenbond:VAL:84    NaN
halogenbond:VAL:84     -1
Name: 21, dtype: object

>  <hbond:VAL:84>  (22) 
hbond:VAL:84    NaN
hbond:VAL:84     -1
Name: 21, dtype: object

>  <hydroph_interaction:GLU:85>  (22) 
hydroph_interaction:GLU:85    NaN
hydroph_interaction:GLU:85     -1
Name: 21, dtype: object

>  <hbond:GLU:85>  (22) 
hbond:GLU:85    NaN
hbond:GLU:85     -1
Name: 21, dtype: object

>  <halogenbond:GLU:85>  (22) 
halogenbond:GLU:85    0.0
halogenbond:GLU:85      0
Name: 21, dtype: object

>  <saltbridge:GLU:85>  (22) 
saltbridge:GLU:85    NaN
saltbridge:GLU:85     -1
Name: 21, dtype: object

>  <halogenbond:ALA:86>  (22) 
halogenbond:ALA:86    0.0
halogenbond:ALA:86      0
Name: 21, dtype: object

>  <hbond:ALA:86>  (22) 
hbond:ALA:86    NaN
hbond:ALA:86     -1
Name: 21, dtype: object

>  <hydroph_interaction:ALA:86>  (22) 
hydroph_interaction:ALA:86    NaN
hydroph_interaction:ALA:86     -1
Name: 21, dtype: object

>  <hbond:SER:87>  (22) 
hbond:SER:87    0
hbond:SER:87    0
Name: 21, dtype: object

>  <halogenbond:SER:87>  (22) 
halogenbond:SER:87    NaN
halogenbond:SER:87     -1
Name: 21, dtype: object

>  <hbond:GLU:88>  (22) 
hbond:GLU:88    0.0
hbond:GLU:88      0
Name: 21, dtype: object

>  <hydroph_interaction:GLU:88>  (22) 
hydroph_interaction:GLU:88    NaN
hydroph_interaction:GLU:88     -1
Name: 21, dtype: object

>  <halogenbond:GLU:88>  (22) 
halogenbond:GLU:88    0.0
halogenbond:GLU:88      0
Name: 21, dtype: object

>  <saltbridge:GLU:88>  (22) 
saltbridge:GLU:88    NaN
saltbridge:GLU:88     -1
Name: 21, dtype: object

>  <hydroph_interaction:TYR:89>  (22) 
hydroph_interaction:TYR:89    0.0
hydroph_interaction:TYR:89      0
Name: 21, dtype: object

>  <pistack:TYR:89>  (22) 
pistack:TYR:89    NaN
pistack:TYR:89     -1
Name: 21, dtype: object

>  <hbond:TYR:89>  (22) 
hbond:TYR:89    NaN
hbond:TYR:89     -1
Name: 21, dtype: object

>  <halogenbond:TYR:89>  (22) 
halogenbond:TYR:89    NaN
halogenbond:TYR:89     -1
Name: 21, dtype: object

>  <hydroph_interaction:TYR:90>  (22) 
hydroph_interaction:TYR:90    0.0
hydroph_interaction:TYR:90      0
Name: 21, dtype: object

>  <hbond:TYR:90>  (22) 
hbond:TYR:90    0.0
hbond:TYR:90      0
Name: 21, dtype: object

>  <pistack:TYR:90>  (22) 
pistack:TYR:90    NaN
pistack:TYR:90     -1
Name: 21, dtype: object

>  <halogenbond:TYR:90>  (22) 
halogenbond:TYR:90    NaN
halogenbond:TYR:90     -1
Name: 21, dtype: object

>  <pication:TYR:90>  (22) 
pication:TYR:90    NaN
pication:TYR:90     -1
Name: 21, dtype: object

>  <hbond:PRO:91>  (22) 
hbond:PRO:91    NaN
hbond:PRO:91     -1
Name: 21, dtype: object

>  <hydroph_interaction:PRO:91>  (22) 
hydroph_interaction:PRO:91    NaN
hydroph_interaction:PRO:91     -1
Name: 21, dtype: object

>  <halogenbond:PRO:91>  (22) 
halogenbond:PRO:91    NaN
halogenbond:PRO:91     -1
Name: 21, dtype: object

>  <hbond:ALA:92>  (22) 
hbond:ALA:92    NaN
hbond:ALA:92     -1
Name: 21, dtype: object

>  <hydroph_interaction:ALA:92>  (22) 
hydroph_interaction:ALA:92    NaN
hydroph_interaction:ALA:92     -1
Name: 21, dtype: object

>  <saltbridge:ARG:93>  (22) 
saltbridge:ARG:93    NaN
saltbridge:ARG:93     -1
Name: 21, dtype: object

>  <hbond:ARG:93>  (22) 
hbond:ARG:93    NaN
hbond:ARG:93     -1
Name: 21, dtype: object

>  <hydroph_interaction:ARG:93>  (22) 
hydroph_interaction:ARG:93    NaN
hydroph_interaction:ARG:93     -1
Name: 21, dtype: object

>  <halogenbond:ARG:93>  (22) 
halogenbond:ARG:93    NaN
halogenbond:ARG:93     -1
Name: 21, dtype: object

>  <pication:ARG:93>  (22) 
pication:ARG:93    NaN
pication:ARG:93     -1
Name: 21, dtype: object

>  <hydroph_interaction:TYR:94>  (22) 
hydroph_interaction:TYR:94    NaN
hydroph_interaction:TYR:94     -1
Name: 21, dtype: object

>  <pistack:TYR:94>  (22) 
pistack:TYR:94    NaN
pistack:TYR:94     -1
Name: 21, dtype: object

>  <hbond:TYR:94>  (22) 
hbond:TYR:94    NaN
hbond:TYR:94     -1
Name: 21, dtype: object

>  <hbond:GLN:95>  (22) 
hbond:GLN:95    0.0
hbond:GLN:95      0
Name: 21, dtype: object

>  <hydroph_interaction:GLN:95>  (22) 
hydroph_interaction:GLN:95    NaN
hydroph_interaction:GLN:95     -1
Name: 21, dtype: object

>  <halogenbond:GLN:95>  (22) 
halogenbond:GLN:95    NaN
halogenbond:GLN:95     -1
Name: 21, dtype: object

>  <hbond:SER:96>  (22) 
hbond:SER:96    NaN
hbond:SER:96     -1
Name: 21, dtype: object

>  <halogenbond:HIS:97>  (22) 
halogenbond:HIS:97    NaN
halogenbond:HIS:97     -1
Name: 21, dtype: object

>  <hydroph_interaction:LEU:98>  (22) 
hydroph_interaction:LEU:98    NaN
hydroph_interaction:LEU:98     -1
Name: 21, dtype: object

>  <hbond:LEU:98>  (22) 
hbond:LEU:98    NaN
hbond:LEU:98     -1
Name: 21, dtype: object

>  <halogenbond:LEU:98>  (22) 
halogenbond:LEU:98    NaN
halogenbond:LEU:98     -1
Name: 21, dtype: object

>  <hbond:MET:99>  (22) 
hbond:MET:99    NaN
hbond:MET:99     -1
Name: 21, dtype: object

>  <hydroph_interaction:MET:99>  (22) 
hydroph_interaction:MET:99    NaN
hydroph_interaction:MET:99     -1
Name: 21, dtype: object

>  <halogenbond:MET:99>  (22) 
halogenbond:MET:99    NaN
halogenbond:MET:99     -1
Name: 21, dtype: object

>  <hydroph_interaction:LEU:100>  (22) 
hydroph_interaction:LEU:100    NaN
hydroph_interaction:LEU:100     -1
Name: 21, dtype: object

>  <hbond:LEU:100>  (22) 
hbond:LEU:100    NaN
hbond:LEU:100     -1
Name: 21, dtype: object

>  <hbond:ALA:101>  (22) 
hbond:ALA:101    NaN
hbond:ALA:101     -1
Name: 21, dtype: object

>  <hydroph_interaction:ALA:101>  (22) 
hydroph_interaction:ALA:101    NaN
hydroph_interaction:ALA:101     -1
Name: 21, dtype: object

>  <hydroph_interaction:VAL:102>  (22) 
hydroph_interaction:VAL:102    NaN
hydroph_interaction:VAL:102     -1
Name: 21, dtype: object

>  <hbond:VAL:102>  (22) 
hbond:VAL:102    NaN
hbond:VAL:102     -1
Name: 21, dtype: object

>  <hbond:GLY:103>  (22) 
hbond:GLY:103    NaN
hbond:GLY:103     -1
Name: 21, dtype: object

>  <halogenbond:GLY:103>  (22) 
halogenbond:GLY:103    NaN
halogenbond:GLY:103     -1
Name: 21, dtype: object

>  <hbond:HIS:104>  (22) 
hbond:HIS:104    NaN
hbond:HIS:104     -1
Name: 21, dtype: object

>  <saltbridge:HIS:104>  (22) 
saltbridge:HIS:104    NaN
saltbridge:HIS:104     -1
Name: 21, dtype: object

>  <pication:HIS:104>  (22) 
pication:HIS:104    NaN
pication:HIS:104     -1
Name: 21, dtype: object

>  <halogenbond:HIS:104>  (22) 
halogenbond:HIS:104    NaN
halogenbond:HIS:104     -1
Name: 21, dtype: object

>  <hydroph_interaction:HIS:104>  (22) 
hydroph_interaction:HIS:104    NaN
hydroph_interaction:HIS:104     -1
Name: 21, dtype: object

>  <pistack:HIS:104>  (22) 
pistack:HIS:104    NaN
pistack:HIS:104     -1
Name: 21, dtype: object

>  <halogenbond:SER:105>  (22) 
halogenbond:SER:105    0.0
halogenbond:SER:105      0
Name: 21, dtype: object

>  <hbond:SER:105>  (22) 
hbond:SER:105    1.0
hbond:SER:105      1
Name: 21, dtype: object

>  <hbond:GLU:106>  (22) 
hbond:GLU:106    0.0
hbond:GLU:106      0
Name: 21, dtype: object

>  <hydroph_interaction:GLU:106>  (22) 
hydroph_interaction:GLU:106    NaN
hydroph_interaction:GLU:106     -1
Name: 21, dtype: object

>  <saltbridge:GLU:106>  (22) 
saltbridge:GLU:106    NaN
saltbridge:GLU:106     -1
Name: 21, dtype: object

>  <halogenbond:GLU:106>  (22) 
halogenbond:GLU:106    NaN
halogenbond:GLU:106     -1
Name: 21, dtype: object

>  <hydroph_interaction:PRO:107>  (22) 
hydroph_interaction:PRO:107    0
hydroph_interaction:PRO:107    0
Name: 21, dtype: object

>  <hbond:PRO:107>  (22) 
hbond:PRO:107    NaN
hbond:PRO:107     -1
Name: 21, dtype: object

>  <halogenbond:PRO:107>  (22) 
halogenbond:PRO:107    NaN
halogenbond:PRO:107     -1
Name: 21, dtype: object

>  <hbond:GLY:108>  (22) 
hbond:GLY:108    NaN
hbond:GLY:108     -1
Name: 21, dtype: object

>  <halogenbond:GLY:108>  (22) 
halogenbond:GLY:108    NaN
halogenbond:GLY:108     -1
Name: 21, dtype: object

>  <hbond:ASP:109>  (22) 
hbond:ASP:109    NaN
hbond:ASP:109     -1
Name: 21, dtype: object

>  <hydroph_interaction:ASP:109>  (22) 
hydroph_interaction:ASP:109    0.0
hydroph_interaction:ASP:109      0
Name: 21, dtype: object

>  <saltbridge:ASP:109>  (22) 
saltbridge:ASP:109    NaN
saltbridge:ASP:109     -1
Name: 21, dtype: object

>  <halogenbond:CYS:110>  (22) 
halogenbond:CYS:110    0.0
halogenbond:CYS:110      0
Name: 21, dtype: object

>  <hbond:CYS:110>  (22) 
hbond:CYS:110    0.0
hbond:CYS:110      0
Name: 21, dtype: object

>  <hbond:GLY:111>  (22) 
hbond:GLY:111    NaN
hbond:GLY:111     -1
Name: 21, dtype: object

>  <hbond:GLY:112>  (22) 
hbond:GLY:112    NaN
hbond:GLY:112     -1
Name: 21, dtype: object

>  <hbond:ILE:113>  (22) 
hbond:ILE:113    NaN
hbond:ILE:113     -1
Name: 21, dtype: object

>  <hydroph_interaction:LEU:114>  (22) 
hydroph_interaction:LEU:114    NaN
hydroph_interaction:LEU:114     -1
Name: 21, dtype: object

>  <hbond:LEU:114>  (22) 
hbond:LEU:114    NaN
hbond:LEU:114     -1
Name: 21, dtype: object

>  <hydroph_interaction:ILE:123>  (22) 
hydroph_interaction:ILE:123    NaN
hydroph_interaction:ILE:123     -1
Name: 21, dtype: object

>  <hbond:ILE:123>  (22) 
hbond:ILE:123    NaN
hbond:ILE:123     -1
Name: 21, dtype: object

>  <hydroph_interaction:VAL:124>  (22) 
hydroph_interaction:VAL:124    1.0
hydroph_interaction:VAL:124      1
Name: 21, dtype: object

>  <hbond:VAL:124>  (22) 
hbond:VAL:124    NaN
hbond:VAL:124     -1
Name: 21, dtype: object

>  <halogenbond:VAL:124>  (22) 
halogenbond:VAL:124    NaN
halogenbond:VAL:124     -1
Name: 21, dtype: object

>  <hbond:SER:125>  (22) 
hbond:SER:125    0
hbond:SER:125    0
Name: 21, dtype: object

>  <halogenbond:SER:125>  (22) 
halogenbond:SER:125    NaN
halogenbond:SER:125     -1
Name: 21, dtype: object

>  <hydroph_interaction:THR:126>  (22) 
hydroph_interaction:THR:126    0.0
hydroph_interaction:THR:126      0
Name: 21, dtype: object

>  <hbond:THR:126>  (22) 
hbond:THR:126    0.0
hbond:THR:126      0
Name: 21, dtype: object

>  <halogenbond:THR:126>  (22) 
halogenbond:THR:126    NaN
halogenbond:THR:126     -1
Name: 21, dtype: object

>  <hbond:GLY:127>  (22) 
hbond:GLY:127    1
hbond:GLY:127    1
Name: 21, dtype: object

>  <halogenbond:GLY:127>  (22) 
halogenbond:GLY:127    NaN
halogenbond:GLY:127     -1
Name: 21, dtype: object

>  <hydroph_interaction:GLY:127>  (22) 
hydroph_interaction:GLY:127    NaN
hydroph_interaction:GLY:127     -1
Name: 21, dtype: object

>  <hbond:GLY:128>  (22) 
hbond:GLY:128    NaN
hbond:GLY:128     -1
Name: 21, dtype: object

>  <halogenbond:GLY:128>  (22) 
halogenbond:GLY:128    NaN
halogenbond:GLY:128     -1
Name: 21, dtype: object

>  <hydroph_interaction:GLY:128>  (22) 
hydroph_interaction:GLY:128    NaN
hydroph_interaction:GLY:128     -1
Name: 21, dtype: object

>  <hbond:ASN:129>  (22) 
hbond:ASN:129    NaN
hbond:ASN:129     -1
Name: 21, dtype: object

>  <hydroph_interaction:ASN:129>  (22) 
hydroph_interaction:ASN:129    NaN
hydroph_interaction:ASN:129     -1
Name: 21, dtype: object

>  <halogenbond:ASN:129>  (22) 
halogenbond:ASN:129    NaN
halogenbond:ASN:129     -1
Name: 21, dtype: object

>  <hbond:GLY:130>  (22) 
hbond:GLY:130    NaN
hbond:GLY:130     -1
Name: 21, dtype: object

>  <hbond:LEU:131>  (22) 
hbond:LEU:131    NaN
hbond:LEU:131     -1
Name: 21, dtype: object

>  <hydroph_interaction:LEU:131>  (22) 
hydroph_interaction:LEU:131    NaN
hydroph_interaction:LEU:131     -1
Name: 21, dtype: object

>  <halogenbond:LEU:131>  (22) 
halogenbond:LEU:131    NaN
halogenbond:LEU:131     -1
Name: 21, dtype: object

>  <hydroph_interaction:VAL:132>  (22) 
hydroph_interaction:VAL:132    NaN
hydroph_interaction:VAL:132     -1
Name: 21, dtype: object

>  <hbond:VAL:132>  (22) 
hbond:VAL:132    NaN
hbond:VAL:132     -1
Name: 21, dtype: object

>  <hbond:GLY:133>  (22) 
hbond:GLY:133    NaN
hbond:GLY:133     -1
Name: 21, dtype: object

>  <halogenbond:GLY:133>  (22) 
halogenbond:GLY:133    NaN
halogenbond:GLY:133     -1
Name: 21, dtype: object

>  <hydroph_interaction:PHE:134>  (22) 
hydroph_interaction:PHE:134    NaN
hydroph_interaction:PHE:134     -1
Name: 21, dtype: object

>  <hbond:PHE:134>  (22) 
hbond:PHE:134    NaN
hbond:PHE:134     -1
Name: 21, dtype: object

>  <pistack:PHE:134>  (22) 
pistack:PHE:134    NaN
pistack:PHE:134     -1
Name: 21, dtype: object

>  <pication:PHE:134>  (22) 
pication:PHE:134    NaN
pication:PHE:134     -1
Name: 21, dtype: object

>  <halogenbond:PHE:134>  (22) 
halogenbond:PHE:134    NaN
halogenbond:PHE:134     -1
Name: 21, dtype: object

>  <hydroph_interaction:ALA:135>  (22) 
hydroph_interaction:ALA:135    NaN
hydroph_interaction:ALA:135     -1
Name: 21, dtype: object

>  <hbond:ALA:135>  (22) 
hbond:ALA:135    NaN
hbond:ALA:135     -1
Name: 21, dtype: object

$$$$
Z4284904547
     RDKit          3D

 30 30  0  0  0  0  0  0  0  0999 V2000
   10.5650   15.2900   19.9920 C   0  0  0  0  0  0  0  0  0  0  0  0
   11.8540   14.8300   20.6590 C   0  0  0  0  0  0  0  0  0  0  0  0
   12.1750   15.3400   22.0880 C   0  0  0  0  0  0  0  0  0  0  0  0
   11.5470   14.4260   23.1160 C   0  0  0  0  0  0  0  0  0  0  0  0
   12.2870   14.1180   24.2200 O   0  0  0  0  0  0  0  0  0  0  0  0
   10.1700   13.9650   22.8110 N   0  0  0  0  0  0  0  0  0  0  0  0
    9.6430   12.7300   23.2400 C   0  0  0  0  0  0  0  0  0  0  0  0
   10.1130   11.4100   22.7900 C   0  0  0  0  0  0  0  0  0  0  0  0
    9.6390   10.1900   23.1850 C   0  0  0  0  0  0  0  0  0  0  0  0
   10.2760    9.0980   22.5820 C   0  0  0  0  0  0  0  0  0  0  0  0
    8.6130   10.1970   24.1110 C   0  0  0  0  0  0  0  0  0  0  0  0
    8.0620   11.5120   24.6280 C   0  0  0  0  0  0  0  0  0  0  0  0
    6.9810   11.3680   25.5940 C   0  0  0  0  0  0  0  0  0  0  0  0
    8.5940   12.7380   24.1740 C   0  0  0  0  0  0  0  0  0  0  0  0
    8.1260   13.9710   24.6170 O   0  0  0  0  0  0  0  0  0  0  0  0
    9.8750   15.9630   20.5090 H   0  0  0  0  0  0  0  0  0  0  0  0
   10.2910   14.9700   18.9860 H   0  0  0  0  0  0  0  0  0  0  0  0
   12.5100   14.1550   20.0930 H   0  0  0  0  0  0  0  0  0  0  0  0
   12.0300   16.4070   22.2470 H   0  0  0  0  0  0  0  0  0  0  0  0
   13.2590   15.2240   22.2220 H   0  0  0  0  0  0  0  0  0  0  0  0
    9.4690   14.7120   22.6980 H   0  0  0  0  0  0  0  0  0  0  0  0
   10.9150   11.3810   22.0760 H   0  0  0  0  0  0  0  0  0  0  0  0
    9.5040    8.4120   22.2330 H   0  0  0  0  0  0  0  0  0  0  0  0
   10.8150    9.4410   21.6950 H   0  0  0  0  0  0  0  0  0  0  0  0
   10.9830    8.5190   23.1720 H   0  0  0  0  0  0  0  0  0  0  0  0
    8.1380    9.3030   24.5190 H   0  0  0  0  0  0  0  0  0  0  0  0
    6.6940   10.3160   25.6850 H   0  0  0  0  0  0  0  0  0  0  0  0
    6.0940   11.9200   25.2760 H   0  0  0  0  0  0  0  0  0  0  0  0
    7.2990   11.7370   26.5680 H   0  0  0  0  0  0  0  0  0  0  0  0
    8.1590   14.6490   23.9000 H   0  0  0  0  0  0  0  0  0  0  0  0
  1  2  2  0
  2  3  1  0
  3  4  1  0
  4  5  2  0
  4  6  1  0
  6  7  1  0
  7  8  2  0
  8  9  1  0
  9 10  1  0
  9 11  2  0
 11 12  1  0
 12 13  1  0
 12 14  2  0
 14 15  1  0
 14  7  1  0
  1 16  1  0
  1 17  1  0
  2 18  1  0
  3 19  1  0
  3 20  1  0
  6 21  1  0
  8 22  1  0
 10 23  1  0
 10 24  1  0
 10 25  1  0
 11 26  1  0
 13 27  1  0
 13 28  1  0
 13 29  1  0
 15 30  1  0
A    1
 C1 
A    2
 C2 
A    3
 C3 
A    4
 C4 
A    5
 O1 
A    6
 N1 
A    7
 C5 
A    8
 C6 
A    9
 C7 
A   10
 C8 
A   11
 C9 
A   12
 C10
A   13
 C11
A   14
 C12
A   15
 O2 
A   16
 H1 
A   17
 H2 
A   18
 H3 
A   19
 H4 
A   20
 H5 
A   21
 H6 
A   22
 H7 
A   23
 H8 
A   24
 H9 
A   25
 H10
A   26
 H11
A   27
 H12
A   28
 H13
A   29
 H14
A   30
 H15
M  END
>  <ref_pdb>  (23) 
x0310_0A

>  <ref_mols>  (23) 
x0451_0A,x0739_0A

>  <original SMILES>  (23) 
C=CCC(=O)Nc1cc(C)cc(C)c1O

>  <rationale>  (23) 
info halogenbond:G127+A86+S125+E85+Q95+E106+T126+H104+Y64+C65+S87+N129+F83+R93+L131+I82+G128+P91+N19+H21+V84+G133+Y90+Y89+H97+L81+F134+L98+R20+G103+S66+S67+S7+G108+R38+V124+M99+S36; hbond:S87+G108+G103+G128+G130+L131+N129+N19+R68+V124+P91+F83+S67+S7+S66+G112+G133+V132+R20+Y89+S77+A135+Y63+A92+A101+M99+F134+L100+I82+Y64+S36+L98+V84+L81+Y94+S80+R38+S37+V102+G8+I123+G111+I113+L114+C65+L22+S96; hydroph_interaction:V124+Y90+N129+D39+N19+L40+I123+A135+Q95+I82+L100+L98+L131+F83+R93+F134+H104+R20+A86+V74+P91+A101+F76+M99+L114+A92+Y94+R68+Y72+Y64+V18+V102+W28+G127+G128+L81; pication:H21+H104+R93+Y63+F134+Y90+R68+F83+R20; pistack:H21+Y89+Y90+H104+F134+Y63+F83+Y94; saltbridge:R93+H104+E106+D109+E85+E88+R68+R20; 

>  <intxn_cluster>  (23) 
-1

>  <intxn_cluster_rank>  (23) 
-1

>  <N_interactions>  (23) 
5

>  <∆∆G>  (23) 
-12.367698

>  <$/mg>  (23) 
163.0

>  <comRMSD>  (23) 
0.962016

>  <N_rotatable_bonds>  (23) 
6

>  <deep_P1_sidechain>  (23) 
nan

>  <farthest_distance_to_substrate>  (23) 
2.255063

>  <hbond:SER:7>  (23) 
hbond:SER:7    NaN
hbond:SER:7     -1
Name: 22, dtype: object

>  <halogenbond:SER:7>  (23) 
halogenbond:SER:7    NaN
halogenbond:SER:7     -1
Name: 22, dtype: object

>  <hbond:GLY:8>  (23) 
hbond:GLY:8    NaN
hbond:GLY:8     -1
Name: 22, dtype: object

>  <hydroph_interaction:VAL:18>  (23) 
hydroph_interaction:VAL:18    NaN
hydroph_interaction:VAL:18     -1
Name: 22, dtype: object

>  <hbond:ASN:19>  (23) 
hbond:ASN:19    NaN
hbond:ASN:19     -1
Name: 22, dtype: object

>  <hydroph_interaction:ASN:19>  (23) 
hydroph_interaction:ASN:19    NaN
hydroph_interaction:ASN:19     -1
Name: 22, dtype: object

>  <halogenbond:ASN:19>  (23) 
halogenbond:ASN:19    NaN
halogenbond:ASN:19     -1
Name: 22, dtype: object

>  <hbond:ARG:20>  (23) 
hbond:ARG:20    NaN
hbond:ARG:20     -1
Name: 22, dtype: object

>  <hydroph_interaction:ARG:20>  (23) 
hydroph_interaction:ARG:20    NaN
hydroph_interaction:ARG:20     -1
Name: 22, dtype: object

>  <saltbridge:ARG:20>  (23) 
saltbridge:ARG:20    NaN
saltbridge:ARG:20     -1
Name: 22, dtype: object

>  <halogenbond:ARG:20>  (23) 
halogenbond:ARG:20    NaN
halogenbond:ARG:20     -1
Name: 22, dtype: object

>  <pication:ARG:20>  (23) 
pication:ARG:20    NaN
pication:ARG:20     -1
Name: 22, dtype: object

>  <hbond:HIS:21>  (23) 
hbond:HIS:21    0.0
hbond:HIS:21      0
Name: 22, dtype: object

>  <hydroph_interaction:HIS:21>  (23) 
hydroph_interaction:HIS:21    0.0
hydroph_interaction:HIS:21      0
Name: 22, dtype: object

>  <pistack:HIS:21>  (23) 
pistack:HIS:21    NaN
pistack:HIS:21     -1
Name: 22, dtype: object

>  <pication:HIS:21>  (23) 
pication:HIS:21    NaN
pication:HIS:21     -1
Name: 22, dtype: object

>  <saltbridge:HIS:21>  (23) 
saltbridge:HIS:21    0.0
saltbridge:HIS:21      0
Name: 22, dtype: object

>  <halogenbond:HIS:21>  (23) 
halogenbond:HIS:21    NaN
halogenbond:HIS:21     -1
Name: 22, dtype: object

>  <hydroph_interaction:LEU:22>  (23) 
hydroph_interaction:LEU:22    0.0
hydroph_interaction:LEU:22      0
Name: 22, dtype: object

>  <hbond:LEU:22>  (23) 
hbond:LEU:22    NaN
hbond:LEU:22     -1
Name: 22, dtype: object

>  <hydroph_interaction:TRP:28>  (23) 
hydroph_interaction:TRP:28    NaN
hydroph_interaction:TRP:28     -1
Name: 22, dtype: object

>  <hbond:SER:36>  (23) 
hbond:SER:36    NaN
hbond:SER:36     -1
Name: 22, dtype: object

>  <halogenbond:SER:36>  (23) 
halogenbond:SER:36    NaN
halogenbond:SER:36     -1
Name: 22, dtype: object

>  <hbond:SER:37>  (23) 
hbond:SER:37    NaN
hbond:SER:37     -1
Name: 22, dtype: object

>  <hbond:ARG:38>  (23) 
hbond:ARG:38    NaN
hbond:ARG:38     -1
Name: 22, dtype: object

>  <halogenbond:ARG:38>  (23) 
halogenbond:ARG:38    NaN
halogenbond:ARG:38     -1
Name: 22, dtype: object

>  <saltbridge:ASP:39>  (23) 
saltbridge:ASP:39    0.0
saltbridge:ASP:39      0
Name: 22, dtype: object

>  <halogenbond:ASP:39>  (23) 
halogenbond:ASP:39    0.0
halogenbond:ASP:39      0
Name: 22, dtype: object

>  <hbond:ASP:39>  (23) 
hbond:ASP:39    0.0
hbond:ASP:39      0
Name: 22, dtype: object

>  <hydroph_interaction:ASP:39>  (23) 
hydroph_interaction:ASP:39    NaN
hydroph_interaction:ASP:39     -1
Name: 22, dtype: object

>  <hydroph_interaction:LEU:40>  (23) 
hydroph_interaction:LEU:40    NaN
hydroph_interaction:LEU:40     -1
Name: 22, dtype: object

>  <hydroph_interaction:TYR:63>  (23) 
hydroph_interaction:TYR:63    0.0
hydroph_interaction:TYR:63      0
Name: 22, dtype: object

>  <hbond:TYR:63>  (23) 
hbond:TYR:63    NaN
hbond:TYR:63     -1
Name: 22, dtype: object

>  <pistack:TYR:63>  (23) 
pistack:TYR:63    NaN
pistack:TYR:63     -1
Name: 22, dtype: object

>  <pication:TYR:63>  (23) 
pication:TYR:63    NaN
pication:TYR:63     -1
Name: 22, dtype: object

>  <halogenbond:TYR:64>  (23) 
halogenbond:TYR:64    NaN
halogenbond:TYR:64     -1
Name: 22, dtype: object

>  <hbond:TYR:64>  (23) 
hbond:TYR:64    NaN
hbond:TYR:64     -1
Name: 22, dtype: object

>  <hydroph_interaction:TYR:64>  (23) 
hydroph_interaction:TYR:64    NaN
hydroph_interaction:TYR:64     -1
Name: 22, dtype: object

>  <halogenbond:CYS:65>  (23) 
halogenbond:CYS:65    NaN
halogenbond:CYS:65     -1
Name: 22, dtype: object

>  <hbond:CYS:65>  (23) 
hbond:CYS:65    NaN
hbond:CYS:65     -1
Name: 22, dtype: object

>  <hbond:SER:66>  (23) 
hbond:SER:66    NaN
hbond:SER:66     -1
Name: 22, dtype: object

>  <halogenbond:SER:66>  (23) 
halogenbond:SER:66    NaN
halogenbond:SER:66     -1
Name: 22, dtype: object

>  <hbond:SER:67>  (23) 
hbond:SER:67    NaN
hbond:SER:67     -1
Name: 22, dtype: object

>  <halogenbond:SER:67>  (23) 
halogenbond:SER:67    NaN
halogenbond:SER:67     -1
Name: 22, dtype: object

>  <hbond:ARG:68>  (23) 
hbond:ARG:68    NaN
hbond:ARG:68     -1
Name: 22, dtype: object

>  <saltbridge:ARG:68>  (23) 
saltbridge:ARG:68    NaN
saltbridge:ARG:68     -1
Name: 22, dtype: object

>  <hydroph_interaction:ARG:68>  (23) 
hydroph_interaction:ARG:68    NaN
hydroph_interaction:ARG:68     -1
Name: 22, dtype: object

>  <pication:ARG:68>  (23) 
pication:ARG:68    NaN
pication:ARG:68     -1
Name: 22, dtype: object

>  <hydroph_interaction:TYR:72>  (23) 
hydroph_interaction:TYR:72    NaN
hydroph_interaction:TYR:72     -1
Name: 22, dtype: object

>  <hydroph_interaction:VAL:74>  (23) 
hydroph_interaction:VAL:74    NaN
hydroph_interaction:VAL:74     -1
Name: 22, dtype: object

>  <hydroph_interaction:PHE:76>  (23) 
hydroph_interaction:PHE:76    NaN
hydroph_interaction:PHE:76     -1
Name: 22, dtype: object

>  <hbond:SER:77>  (23) 
hbond:SER:77    NaN
hbond:SER:77     -1
Name: 22, dtype: object

>  <hbond:SER:80>  (23) 
hbond:SER:80    NaN
hbond:SER:80     -1
Name: 22, dtype: object

>  <hbond:LEU:81>  (23) 
hbond:LEU:81    NaN
hbond:LEU:81     -1
Name: 22, dtype: object

>  <halogenbond:LEU:81>  (23) 
halogenbond:LEU:81    NaN
halogenbond:LEU:81     -1
Name: 22, dtype: object

>  <hydroph_interaction:LEU:81>  (23) 
hydroph_interaction:LEU:81    NaN
hydroph_interaction:LEU:81     -1
Name: 22, dtype: object

>  <hydroph_interaction:ILE:82>  (23) 
hydroph_interaction:ILE:82    NaN
hydroph_interaction:ILE:82     -1
Name: 22, dtype: object

>  <halogenbond:ILE:82>  (23) 
halogenbond:ILE:82    NaN
halogenbond:ILE:82     -1
Name: 22, dtype: object

>  <hbond:ILE:82>  (23) 
hbond:ILE:82    NaN
hbond:ILE:82     -1
Name: 22, dtype: object

>  <hbond:PHE:83>  (23) 
hbond:PHE:83    NaN
hbond:PHE:83     -1
Name: 22, dtype: object

>  <hydroph_interaction:PHE:83>  (23) 
hydroph_interaction:PHE:83    NaN
hydroph_interaction:PHE:83     -1
Name: 22, dtype: object

>  <halogenbond:PHE:83>  (23) 
halogenbond:PHE:83    NaN
halogenbond:PHE:83     -1
Name: 22, dtype: object

>  <pistack:PHE:83>  (23) 
pistack:PHE:83    NaN
pistack:PHE:83     -1
Name: 22, dtype: object

>  <pication:PHE:83>  (23) 
pication:PHE:83    NaN
pication:PHE:83     -1
Name: 22, dtype: object

>  <hydroph_interaction:VAL:84>  (23) 
hydroph_interaction:VAL:84    0.0
hydroph_interaction:VAL:84      0
Name: 22, dtype: object

>  <halogenbond:VAL:84>  (23) 
halogenbond:VAL:84    NaN
halogenbond:VAL:84     -1
Name: 22, dtype: object

>  <hbond:VAL:84>  (23) 
hbond:VAL:84    NaN
hbond:VAL:84     -1
Name: 22, dtype: object

>  <hydroph_interaction:GLU:85>  (23) 
hydroph_interaction:GLU:85    0.0
hydroph_interaction:GLU:85      0
Name: 22, dtype: object

>  <hbond:GLU:85>  (23) 
hbond:GLU:85    0.0
hbond:GLU:85      0
Name: 22, dtype: object

>  <halogenbond:GLU:85>  (23) 
halogenbond:GLU:85    NaN
halogenbond:GLU:85     -1
Name: 22, dtype: object

>  <saltbridge:GLU:85>  (23) 
saltbridge:GLU:85    NaN
saltbridge:GLU:85     -1
Name: 22, dtype: object

>  <halogenbond:ALA:86>  (23) 
halogenbond:ALA:86    NaN
halogenbond:ALA:86     -1
Name: 22, dtype: object

>  <hbond:ALA:86>  (23) 
hbond:ALA:86    0.0
hbond:ALA:86      0
Name: 22, dtype: object

>  <hydroph_interaction:ALA:86>  (23) 
hydroph_interaction:ALA:86    NaN
hydroph_interaction:ALA:86     -1
Name: 22, dtype: object

>  <hbond:SER:87>  (23) 
hbond:SER:87    3
hbond:SER:87    3
Name: 22, dtype: object

>  <halogenbond:SER:87>  (23) 
halogenbond:SER:87    NaN
halogenbond:SER:87     -1
Name: 22, dtype: object

>  <hbond:GLU:88>  (23) 
hbond:GLU:88    0.0
hbond:GLU:88      0
Name: 22, dtype: object

>  <hydroph_interaction:GLU:88>  (23) 
hydroph_interaction:GLU:88    0.0
hydroph_interaction:GLU:88      0
Name: 22, dtype: object

>  <halogenbond:GLU:88>  (23) 
halogenbond:GLU:88    0.0
halogenbond:GLU:88      0
Name: 22, dtype: object

>  <saltbridge:GLU:88>  (23) 
saltbridge:GLU:88    NaN
saltbridge:GLU:88     -1
Name: 22, dtype: object

>  <hydroph_interaction:TYR:89>  (23) 
hydroph_interaction:TYR:89    0.0
hydroph_interaction:TYR:89      0
Name: 22, dtype: object

>  <pistack:TYR:89>  (23) 
pistack:TYR:89    NaN
pistack:TYR:89     -1
Name: 22, dtype: object

>  <hbond:TYR:89>  (23) 
hbond:TYR:89    NaN
hbond:TYR:89     -1
Name: 22, dtype: object

>  <halogenbond:TYR:89>  (23) 
halogenbond:TYR:89    NaN
halogenbond:TYR:89     -1
Name: 22, dtype: object

>  <hydroph_interaction:TYR:90>  (23) 
hydroph_interaction:TYR:90    1.0
hydroph_interaction:TYR:90      1
Name: 22, dtype: object

>  <hbond:TYR:90>  (23) 
hbond:TYR:90    0.0
hbond:TYR:90      0
Name: 22, dtype: object

>  <pistack:TYR:90>  (23) 
pistack:TYR:90    NaN
pistack:TYR:90     -1
Name: 22, dtype: object

>  <halogenbond:TYR:90>  (23) 
halogenbond:TYR:90    NaN
halogenbond:TYR:90     -1
Name: 22, dtype: object

>  <pication:TYR:90>  (23) 
pication:TYR:90    NaN
pication:TYR:90     -1
Name: 22, dtype: object

>  <hbond:PRO:91>  (23) 
hbond:PRO:91    NaN
hbond:PRO:91     -1
Name: 22, dtype: object

>  <hydroph_interaction:PRO:91>  (23) 
hydroph_interaction:PRO:91    NaN
hydroph_interaction:PRO:91     -1
Name: 22, dtype: object

>  <halogenbond:PRO:91>  (23) 
halogenbond:PRO:91    NaN
halogenbond:PRO:91     -1
Name: 22, dtype: object

>  <hbond:ALA:92>  (23) 
hbond:ALA:92    NaN
hbond:ALA:92     -1
Name: 22, dtype: object

>  <hydroph_interaction:ALA:92>  (23) 
hydroph_interaction:ALA:92    NaN
hydroph_interaction:ALA:92     -1
Name: 22, dtype: object

>  <saltbridge:ARG:93>  (23) 
saltbridge:ARG:93    NaN
saltbridge:ARG:93     -1
Name: 22, dtype: object

>  <hbond:ARG:93>  (23) 
hbond:ARG:93    0.0
hbond:ARG:93      0
Name: 22, dtype: object

>  <hydroph_interaction:ARG:93>  (23) 
hydroph_interaction:ARG:93    NaN
hydroph_interaction:ARG:93     -1
Name: 22, dtype: object

>  <halogenbond:ARG:93>  (23) 
halogenbond:ARG:93    NaN
halogenbond:ARG:93     -1
Name: 22, dtype: object

>  <pication:ARG:93>  (23) 
pication:ARG:93    NaN
pication:ARG:93     -1
Name: 22, dtype: object

>  <hydroph_interaction:TYR:94>  (23) 
hydroph_interaction:TYR:94    NaN
hydroph_interaction:TYR:94     -1
Name: 22, dtype: object

>  <pistack:TYR:94>  (23) 
pistack:TYR:94    NaN
pistack:TYR:94     -1
Name: 22, dtype: object

>  <hbond:TYR:94>  (23) 
hbond:TYR:94    NaN
hbond:TYR:94     -1
Name: 22, dtype: object

>  <hbond:GLN:95>  (23) 
hbond:GLN:95    0.0
hbond:GLN:95      0
Name: 22, dtype: object

>  <hydroph_interaction:GLN:95>  (23) 
hydroph_interaction:GLN:95    NaN
hydroph_interaction:GLN:95     -1
Name: 22, dtype: object

>  <halogenbond:GLN:95>  (23) 
halogenbond:GLN:95    NaN
halogenbond:GLN:95     -1
Name: 22, dtype: object

>  <hbond:SER:96>  (23) 
hbond:SER:96    NaN
hbond:SER:96     -1
Name: 22, dtype: object

>  <halogenbond:HIS:97>  (23) 
halogenbond:HIS:97    NaN
halogenbond:HIS:97     -1
Name: 22, dtype: object

>  <hydroph_interaction:LEU:98>  (23) 
hydroph_interaction:LEU:98    NaN
hydroph_interaction:LEU:98     -1
Name: 22, dtype: object

>  <hbond:LEU:98>  (23) 
hbond:LEU:98    NaN
hbond:LEU:98     -1
Name: 22, dtype: object

>  <halogenbond:LEU:98>  (23) 
halogenbond:LEU:98    NaN
halogenbond:LEU:98     -1
Name: 22, dtype: object

>  <hbond:MET:99>  (23) 
hbond:MET:99    NaN
hbond:MET:99     -1
Name: 22, dtype: object

>  <hydroph_interaction:MET:99>  (23) 
hydroph_interaction:MET:99    NaN
hydroph_interaction:MET:99     -1
Name: 22, dtype: object

>  <halogenbond:MET:99>  (23) 
halogenbond:MET:99    NaN
halogenbond:MET:99     -1
Name: 22, dtype: object

>  <hydroph_interaction:LEU:100>  (23) 
hydroph_interaction:LEU:100    NaN
hydroph_interaction:LEU:100     -1
Name: 22, dtype: object

>  <hbond:LEU:100>  (23) 
hbond:LEU:100    NaN
hbond:LEU:100     -1
Name: 22, dtype: object

>  <hbond:ALA:101>  (23) 
hbond:ALA:101    NaN
hbond:ALA:101     -1
Name: 22, dtype: object

>  <hydroph_interaction:ALA:101>  (23) 
hydroph_interaction:ALA:101    NaN
hydroph_interaction:ALA:101     -1
Name: 22, dtype: object

>  <hydroph_interaction:VAL:102>  (23) 
hydroph_interaction:VAL:102    NaN
hydroph_interaction:VAL:102     -1
Name: 22, dtype: object

>  <hbond:VAL:102>  (23) 
hbond:VAL:102    NaN
hbond:VAL:102     -1
Name: 22, dtype: object

>  <hbond:GLY:103>  (23) 
hbond:GLY:103    NaN
hbond:GLY:103     -1
Name: 22, dtype: object

>  <halogenbond:GLY:103>  (23) 
halogenbond:GLY:103    NaN
halogenbond:GLY:103     -1
Name: 22, dtype: object

>  <hbond:HIS:104>  (23) 
hbond:HIS:104    0.0
hbond:HIS:104      0
Name: 22, dtype: object

>  <saltbridge:HIS:104>  (23) 
saltbridge:HIS:104    NaN
saltbridge:HIS:104     -1
Name: 22, dtype: object

>  <pication:HIS:104>  (23) 
pication:HIS:104    NaN
pication:HIS:104     -1
Name: 22, dtype: object

>  <halogenbond:HIS:104>  (23) 
halogenbond:HIS:104    NaN
halogenbond:HIS:104     -1
Name: 22, dtype: object

>  <hydroph_interaction:HIS:104>  (23) 
hydroph_interaction:HIS:104    NaN
hydroph_interaction:HIS:104     -1
Name: 22, dtype: object

>  <pistack:HIS:104>  (23) 
pistack:HIS:104    NaN
pistack:HIS:104     -1
Name: 22, dtype: object

>  <halogenbond:SER:105>  (23) 
halogenbond:SER:105    0.0
halogenbond:SER:105      0
Name: 22, dtype: object

>  <hbond:SER:105>  (23) 
hbond:SER:105    0.0
hbond:SER:105      0
Name: 22, dtype: object

>  <hbond:GLU:106>  (23) 
hbond:GLU:106    0.0
hbond:GLU:106      0
Name: 22, dtype: object

>  <hydroph_interaction:GLU:106>  (23) 
hydroph_interaction:GLU:106    0.0
hydroph_interaction:GLU:106      0
Name: 22, dtype: object

>  <saltbridge:GLU:106>  (23) 
saltbridge:GLU:106    NaN
saltbridge:GLU:106     -1
Name: 22, dtype: object

>  <halogenbond:GLU:106>  (23) 
halogenbond:GLU:106    NaN
halogenbond:GLU:106     -1
Name: 22, dtype: object

>  <hydroph_interaction:PRO:107>  (23) 
hydroph_interaction:PRO:107    0
hydroph_interaction:PRO:107    0
Name: 22, dtype: object

>  <hbond:PRO:107>  (23) 
hbond:PRO:107    0.0
hbond:PRO:107      0
Name: 22, dtype: object

>  <halogenbond:PRO:107>  (23) 
halogenbond:PRO:107    0.0
halogenbond:PRO:107      0
Name: 22, dtype: object

>  <hbond:GLY:108>  (23) 
hbond:GLY:108    NaN
hbond:GLY:108     -1
Name: 22, dtype: object

>  <halogenbond:GLY:108>  (23) 
halogenbond:GLY:108    NaN
halogenbond:GLY:108     -1
Name: 22, dtype: object

>  <hbond:ASP:109>  (23) 
hbond:ASP:109    0.0
hbond:ASP:109      0
Name: 22, dtype: object

>  <hydroph_interaction:ASP:109>  (23) 
hydroph_interaction:ASP:109    0.0
hydroph_interaction:ASP:109      0
Name: 22, dtype: object

>  <saltbridge:ASP:109>  (23) 
saltbridge:ASP:109    NaN
saltbridge:ASP:109     -1
Name: 22, dtype: object

>  <halogenbond:CYS:110>  (23) 
halogenbond:CYS:110    0.0
halogenbond:CYS:110      0
Name: 22, dtype: object

>  <hbond:CYS:110>  (23) 
hbond:CYS:110    0.0
hbond:CYS:110      0
Name: 22, dtype: object

>  <hbond:GLY:111>  (23) 
hbond:GLY:111    NaN
hbond:GLY:111     -1
Name: 22, dtype: object

>  <hbond:GLY:112>  (23) 
hbond:GLY:112    NaN
hbond:GLY:112     -1
Name: 22, dtype: object

>  <hbond:ILE:113>  (23) 
hbond:ILE:113    NaN
hbond:ILE:113     -1
Name: 22, dtype: object

>  <hydroph_interaction:LEU:114>  (23) 
hydroph_interaction:LEU:114    NaN
hydroph_interaction:LEU:114     -1
Name: 22, dtype: object

>  <hbond:LEU:114>  (23) 
hbond:LEU:114    NaN
hbond:LEU:114     -1
Name: 22, dtype: object

>  <hydroph_interaction:ILE:123>  (23) 
hydroph_interaction:ILE:123    NaN
hydroph_interaction:ILE:123     -1
Name: 22, dtype: object

>  <hbond:ILE:123>  (23) 
hbond:ILE:123    NaN
hbond:ILE:123     -1
Name: 22, dtype: object

>  <hydroph_interaction:VAL:124>  (23) 
hydroph_interaction:VAL:124    1.0
hydroph_interaction:VAL:124      1
Name: 22, dtype: object

>  <hbond:VAL:124>  (23) 
hbond:VAL:124    NaN
hbond:VAL:124     -1
Name: 22, dtype: object

>  <halogenbond:VAL:124>  (23) 
halogenbond:VAL:124    NaN
halogenbond:VAL:124     -1
Name: 22, dtype: object

>  <hbond:SER:125>  (23) 
hbond:SER:125    0
hbond:SER:125    0
Name: 22, dtype: object

>  <halogenbond:SER:125>  (23) 
halogenbond:SER:125    NaN
halogenbond:SER:125     -1
Name: 22, dtype: object

>  <hydroph_interaction:THR:126>  (23) 
hydroph_interaction:THR:126    0.0
hydroph_interaction:THR:126      0
Name: 22, dtype: object

>  <hbond:THR:126>  (23) 
hbond:THR:126    0.0
hbond:THR:126      0
Name: 22, dtype: object

>  <halogenbond:THR:126>  (23) 
halogenbond:THR:126    NaN
halogenbond:THR:126     -1
Name: 22, dtype: object

>  <hbond:GLY:127>  (23) 
hbond:GLY:127    0
hbond:GLY:127    0
Name: 22, dtype: object

>  <halogenbond:GLY:127>  (23) 
halogenbond:GLY:127    NaN
halogenbond:GLY:127     -1
Name: 22, dtype: object

>  <hydroph_interaction:GLY:127>  (23) 
hydroph_interaction:GLY:127    NaN
hydroph_interaction:GLY:127     -1
Name: 22, dtype: object

>  <hbond:GLY:128>  (23) 
hbond:GLY:128    NaN
hbond:GLY:128     -1
Name: 22, dtype: object

>  <halogenbond:GLY:128>  (23) 
halogenbond:GLY:128    NaN
halogenbond:GLY:128     -1
Name: 22, dtype: object

>  <hydroph_interaction:GLY:128>  (23) 
hydroph_interaction:GLY:128    NaN
hydroph_interaction:GLY:128     -1
Name: 22, dtype: object

>  <hbond:ASN:129>  (23) 
hbond:ASN:129    NaN
hbond:ASN:129     -1
Name: 22, dtype: object

>  <hydroph_interaction:ASN:129>  (23) 
hydroph_interaction:ASN:129    NaN
hydroph_interaction:ASN:129     -1
Name: 22, dtype: object

>  <halogenbond:ASN:129>  (23) 
halogenbond:ASN:129    NaN
halogenbond:ASN:129     -1
Name: 22, dtype: object

>  <hbond:GLY:130>  (23) 
hbond:GLY:130    NaN
hbond:GLY:130     -1
Name: 22, dtype: object

>  <hbond:LEU:131>  (23) 
hbond:LEU:131    NaN
hbond:LEU:131     -1
Name: 22, dtype: object

>  <hydroph_interaction:LEU:131>  (23) 
hydroph_interaction:LEU:131    NaN
hydroph_interaction:LEU:131     -1
Name: 22, dtype: object

>  <halogenbond:LEU:131>  (23) 
halogenbond:LEU:131    NaN
halogenbond:LEU:131     -1
Name: 22, dtype: object

>  <hydroph_interaction:VAL:132>  (23) 
hydroph_interaction:VAL:132    0.0
hydroph_interaction:VAL:132      0
Name: 22, dtype: object

>  <hbond:VAL:132>  (23) 
hbond:VAL:132    NaN
hbond:VAL:132     -1
Name: 22, dtype: object

>  <hbond:GLY:133>  (23) 
hbond:GLY:133    NaN
hbond:GLY:133     -1
Name: 22, dtype: object

>  <halogenbond:GLY:133>  (23) 
halogenbond:GLY:133    NaN
halogenbond:GLY:133     -1
Name: 22, dtype: object

>  <hydroph_interaction:PHE:134>  (23) 
hydroph_interaction:PHE:134    NaN
hydroph_interaction:PHE:134     -1
Name: 22, dtype: object

>  <hbond:PHE:134>  (23) 
hbond:PHE:134    NaN
hbond:PHE:134     -1
Name: 22, dtype: object

>  <pistack:PHE:134>  (23) 
pistack:PHE:134    NaN
pistack:PHE:134     -1
Name: 22, dtype: object

>  <pication:PHE:134>  (23) 
pication:PHE:134    NaN
pication:PHE:134     -1
Name: 22, dtype: object

>  <halogenbond:PHE:134>  (23) 
halogenbond:PHE:134    NaN
halogenbond:PHE:134     -1
Name: 22, dtype: object

>  <hydroph_interaction:ALA:135>  (23) 
hydroph_interaction:ALA:135    NaN
hydroph_interaction:ALA:135     -1
Name: 22, dtype: object

>  <hbond:ALA:135>  (23) 
hbond:ALA:135    NaN
hbond:ALA:135     -1
Name: 22, dtype: object

$$$$
PV_004538515263
     RDKit          3D

 22 22  0  0  0  0  0  0  0  0999 V2000
   10.0970    9.4100   22.7910 C   0  0  0  0  0  0  0  0  0  0  0  0
    9.3260   10.4240   23.6020 C   0  0  0  0  0  0  0  0  0  0  0  0
    8.3040   10.0840   24.4730 C   0  0  0  0  0  0  0  0  0  0  0  0
    7.5430   10.8880   25.2390 N   0  0  0  0  0  0  0  0  0  0  0  0
    7.8250   12.1810   25.1300 C   0  0  0  0  0  0  0  0  0  0  0  0
    6.8360   13.4230   26.1470 Br  0  0  0  0  0  0  0  0  0  0  0  0
    8.9020   12.6840   24.2310 C   0  0  0  0  0  0  0  0  0  0  0  0
    9.6130   11.7720   23.5050 C   0  0  0  0  0  0  0  0  0  0  0  0
   10.6320   12.2290   22.6850 N   0  0  0  0  0  0  0  0  0  0  0  0
   11.2790   13.3970   23.0020 C   0  0  0  0  0  0  0  0  0  0  0  0
   11.1430   14.0470   24.0340 O   0  0  0  0  0  0  0  0  0  0  0  0
   12.1300   13.7980   21.9810 N   0  0  0  0  0  0  0  0  0  0  0  0
   12.5320   15.1640   21.9460 N   0  0  0  0  0  0  0  0  0  0  0  0
   10.6990    9.9130   22.0360 H   0  0  0  0  0  0  0  0  0  0  0  0
   10.7430    8.8110   23.4290 H   0  0  0  0  0  0  0  0  0  0  0  0
    9.3990    8.7630   22.2650 H   0  0  0  0  0  0  0  0  0  0  0  0
    8.1160    9.0180   24.5150 H   0  0  0  0  0  0  0  0  0  0  0  0
    9.0940   13.7480   24.1790 H   0  0  0  0  0  0  0  0  0  0  0  0
   11.2750   11.5110   22.3770 H   0  0  0  0  0  0  0  0  0  0  0  0
   11.9830   13.3100   21.0860 H   0  0  0  0  0  0  0  0  0  0  0  0
   12.7810   15.4260   22.9050 H   0  0  0  0  0  0  0  0  0  0  0  0
   13.4460   15.1780   21.4640 H   0  0  0  0  0  0  0  0  0  0  0  0
  1  2  1  0
  2  3  2  0
  3  4  1  0
  4  5  2  0
  5  6  1  0
  5  7  1  0
  7  8  2  0
  8  9  1  0
  9 10  1  0
 10 11  2  0
 10 12  1  0
 12 13  1  0
  8  2  1  0
  1 14  1  0
  1 15  1  0
  1 16  1  0
  3 17  1  0
  7 18  1  0
  9 19  1  0
 12 20  1  0
 13 21  1  0
 13 22  1  0
A    1
 C1 
A    2
 C2 
A    3
 C3 
A    4
 N1 
A    5
 C4 
A    6
BR1 
A    7
 C5 
A    8
 C6 
A    9
 N2 
A   10
 C7 
A   11
 O1 
A   12
 N3 
A   13
 N4 
A   14
 H1 
A   15
 H2 
A   16
 H3 
A   17
 H4 
A   18
 H5 
A   19
 H6 
A   20
 H7 
A   21
 H8 
A   22
 H9 
M  END
>  <ref_pdb>  (24) 
x0310_0A

>  <ref_mols>  (24) 
x0416_0A,x0310_0A

>  <original SMILES>  (24) 
Cc1cnc(Br)cc1NC(=O)NN

>  <rationale>  (24) 
info halogenbond:C110+G127+D39+E85+Q95+E106+E88+T126+P107+H104+Y64+C65+S87+N129+F83+R93+L131+I82+G128+P91+N19+H21+V84+G133+Y90+Y89+H97+L81+F134+L98+R20+G103+S66+S67+S7+G108+R38+V124+M99+S36; hbond:S125+E88+Q95+G108+G103+G130+L131+N129+H104+R68+V124+R93+P91+F83+S67+S66+G112+V132+R20+Y89+S77+A135+Y63+A92+A101+M99+F134+L100+I82+Y64+S36+L98+V84+L81+Y94+S80+R38+S37+V102+G8+I123+G111+I113+L114+C65+L22+S96; hydroph_interaction:V124+P107+N129+N19+L40+I123+A135+Q95+L98+F83+R93+H104+R20+A86+V74+P91+A101+F76+M99+L114+A92+Y94+R68+Y72+Y64+V18+V102+W28+G127+G128+L81; pication:H21+H104+R93+Y63+F134+Y90+R68+F83+R20; pistack:Y89+Y90+H104+F134+Y63+F83+Y94; saltbridge:R93+H104+E106+D109+E85+E88+R68+R20; 

>  <intxn_cluster>  (24) 
-1

>  <intxn_cluster_rank>  (24) 
-1

>  <N_interactions>  (24) 
5

>  <∆∆G>  (24) 
-7.688393

>  <$/mg>  (24) 
163.0

>  <comRMSD>  (24) 
0.612614

>  <N_rotatable_bonds>  (24) 
3

>  <deep_P1_sidechain>  (24) 
nan

>  <farthest_distance_to_substrate>  (24) 
2.500242

>  <hbond:SER:7>  (24) 
hbond:SER:7    0.0
hbond:SER:7      0
Name: 23, dtype: object

>  <halogenbond:SER:7>  (24) 
halogenbond:SER:7    NaN
halogenbond:SER:7     -1
Name: 23, dtype: object

>  <hbond:GLY:8>  (24) 
hbond:GLY:8    NaN
hbond:GLY:8     -1
Name: 23, dtype: object

>  <hydroph_interaction:VAL:18>  (24) 
hydroph_interaction:VAL:18    NaN
hydroph_interaction:VAL:18     -1
Name: 23, dtype: object

>  <hbond:ASN:19>  (24) 
hbond:ASN:19    0.0
hbond:ASN:19      0
Name: 23, dtype: object

>  <hydroph_interaction:ASN:19>  (24) 
hydroph_interaction:ASN:19    NaN
hydroph_interaction:ASN:19     -1
Name: 23, dtype: object

>  <halogenbond:ASN:19>  (24) 
halogenbond:ASN:19    NaN
halogenbond:ASN:19     -1
Name: 23, dtype: object

>  <hbond:ARG:20>  (24) 
hbond:ARG:20    NaN
hbond:ARG:20     -1
Name: 23, dtype: object

>  <hydroph_interaction:ARG:20>  (24) 
hydroph_interaction:ARG:20    NaN
hydroph_interaction:ARG:20     -1
Name: 23, dtype: object

>  <saltbridge:ARG:20>  (24) 
saltbridge:ARG:20    NaN
saltbridge:ARG:20     -1
Name: 23, dtype: object

>  <halogenbond:ARG:20>  (24) 
halogenbond:ARG:20    NaN
halogenbond:ARG:20     -1
Name: 23, dtype: object

>  <pication:ARG:20>  (24) 
pication:ARG:20    NaN
pication:ARG:20     -1
Name: 23, dtype: object

>  <hbond:HIS:21>  (24) 
hbond:HIS:21    0.0
hbond:HIS:21      0
Name: 23, dtype: object

>  <hydroph_interaction:HIS:21>  (24) 
hydroph_interaction:HIS:21    0.0
hydroph_interaction:HIS:21      0
Name: 23, dtype: object

>  <pistack:HIS:21>  (24) 
pistack:HIS:21    0.0
pistack:HIS:21      0
Name: 23, dtype: object

>  <pication:HIS:21>  (24) 
pication:HIS:21    NaN
pication:HIS:21     -1
Name: 23, dtype: object

>  <saltbridge:HIS:21>  (24) 
saltbridge:HIS:21    0.0
saltbridge:HIS:21      0
Name: 23, dtype: object

>  <halogenbond:HIS:21>  (24) 
halogenbond:HIS:21    NaN
halogenbond:HIS:21     -1
Name: 23, dtype: object

>  <hydroph_interaction:LEU:22>  (24) 
hydroph_interaction:LEU:22    0.0
hydroph_interaction:LEU:22      0
Name: 23, dtype: object

>  <hbond:LEU:22>  (24) 
hbond:LEU:22    NaN
hbond:LEU:22     -1
Name: 23, dtype: object

>  <hydroph_interaction:TRP:28>  (24) 
hydroph_interaction:TRP:28    NaN
hydroph_interaction:TRP:28     -1
Name: 23, dtype: object

>  <hbond:SER:36>  (24) 
hbond:SER:36    NaN
hbond:SER:36     -1
Name: 23, dtype: object

>  <halogenbond:SER:36>  (24) 
halogenbond:SER:36    NaN
halogenbond:SER:36     -1
Name: 23, dtype: object

>  <hbond:SER:37>  (24) 
hbond:SER:37    NaN
hbond:SER:37     -1
Name: 23, dtype: object

>  <hbond:ARG:38>  (24) 
hbond:ARG:38    NaN
hbond:ARG:38     -1
Name: 23, dtype: object

>  <halogenbond:ARG:38>  (24) 
halogenbond:ARG:38    NaN
halogenbond:ARG:38     -1
Name: 23, dtype: object

>  <saltbridge:ASP:39>  (24) 
saltbridge:ASP:39    0.0
saltbridge:ASP:39      0
Name: 23, dtype: object

>  <halogenbond:ASP:39>  (24) 
halogenbond:ASP:39    NaN
halogenbond:ASP:39     -1
Name: 23, dtype: object

>  <hbond:ASP:39>  (24) 
hbond:ASP:39    0.0
hbond:ASP:39      0
Name: 23, dtype: object

>  <hydroph_interaction:ASP:39>  (24) 
hydroph_interaction:ASP:39    0.0
hydroph_interaction:ASP:39      0
Name: 23, dtype: object

>  <hydroph_interaction:LEU:40>  (24) 
hydroph_interaction:LEU:40    NaN
hydroph_interaction:LEU:40     -1
Name: 23, dtype: object

>  <hydroph_interaction:TYR:63>  (24) 
hydroph_interaction:TYR:63    0.0
hydroph_interaction:TYR:63      0
Name: 23, dtype: object

>  <hbond:TYR:63>  (24) 
hbond:TYR:63    NaN
hbond:TYR:63     -1
Name: 23, dtype: object

>  <pistack:TYR:63>  (24) 
pistack:TYR:63    NaN
pistack:TYR:63     -1
Name: 23, dtype: object

>  <pication:TYR:63>  (24) 
pication:TYR:63    NaN
pication:TYR:63     -1
Name: 23, dtype: object

>  <halogenbond:TYR:64>  (24) 
halogenbond:TYR:64    NaN
halogenbond:TYR:64     -1
Name: 23, dtype: object

>  <hbond:TYR:64>  (24) 
hbond:TYR:64    NaN
hbond:TYR:64     -1
Name: 23, dtype: object

>  <hydroph_interaction:TYR:64>  (24) 
hydroph_interaction:TYR:64    NaN
hydroph_interaction:TYR:64     -1
Name: 23, dtype: object

>  <halogenbond:CYS:65>  (24) 
halogenbond:CYS:65    NaN
halogenbond:CYS:65     -1
Name: 23, dtype: object

>  <hbond:CYS:65>  (24) 
hbond:CYS:65    NaN
hbond:CYS:65     -1
Name: 23, dtype: object

>  <hbond:SER:66>  (24) 
hbond:SER:66    NaN
hbond:SER:66     -1
Name: 23, dtype: object

>  <halogenbond:SER:66>  (24) 
halogenbond:SER:66    NaN
halogenbond:SER:66     -1
Name: 23, dtype: object

>  <hbond:SER:67>  (24) 
hbond:SER:67    NaN
hbond:SER:67     -1
Name: 23, dtype: object

>  <halogenbond:SER:67>  (24) 
halogenbond:SER:67    NaN
halogenbond:SER:67     -1
Name: 23, dtype: object

>  <hbond:ARG:68>  (24) 
hbond:ARG:68    NaN
hbond:ARG:68     -1
Name: 23, dtype: object

>  <saltbridge:ARG:68>  (24) 
saltbridge:ARG:68    NaN
saltbridge:ARG:68     -1
Name: 23, dtype: object

>  <hydroph_interaction:ARG:68>  (24) 
hydroph_interaction:ARG:68    NaN
hydroph_interaction:ARG:68     -1
Name: 23, dtype: object

>  <pication:ARG:68>  (24) 
pication:ARG:68    NaN
pication:ARG:68     -1
Name: 23, dtype: object

>  <hydroph_interaction:TYR:72>  (24) 
hydroph_interaction:TYR:72    NaN
hydroph_interaction:TYR:72     -1
Name: 23, dtype: object

>  <hydroph_interaction:VAL:74>  (24) 
hydroph_interaction:VAL:74    NaN
hydroph_interaction:VAL:74     -1
Name: 23, dtype: object

>  <hydroph_interaction:PHE:76>  (24) 
hydroph_interaction:PHE:76    NaN
hydroph_interaction:PHE:76     -1
Name: 23, dtype: object

>  <hbond:SER:77>  (24) 
hbond:SER:77    NaN
hbond:SER:77     -1
Name: 23, dtype: object

>  <hbond:SER:80>  (24) 
hbond:SER:80    NaN
hbond:SER:80     -1
Name: 23, dtype: object

>  <hbond:LEU:81>  (24) 
hbond:LEU:81    NaN
hbond:LEU:81     -1
Name: 23, dtype: object

>  <halogenbond:LEU:81>  (24) 
halogenbond:LEU:81    NaN
halogenbond:LEU:81     -1
Name: 23, dtype: object

>  <hydroph_interaction:LEU:81>  (24) 
hydroph_interaction:LEU:81    NaN
hydroph_interaction:LEU:81     -1
Name: 23, dtype: object

>  <hydroph_interaction:ILE:82>  (24) 
hydroph_interaction:ILE:82    0.0
hydroph_interaction:ILE:82      0
Name: 23, dtype: object

>  <halogenbond:ILE:82>  (24) 
halogenbond:ILE:82    NaN
halogenbond:ILE:82     -1
Name: 23, dtype: object

>  <hbond:ILE:82>  (24) 
hbond:ILE:82    NaN
hbond:ILE:82     -1
Name: 23, dtype: object

>  <hbond:PHE:83>  (24) 
hbond:PHE:83    NaN
hbond:PHE:83     -1
Name: 23, dtype: object

>  <hydroph_interaction:PHE:83>  (24) 
hydroph_interaction:PHE:83    NaN
hydroph_interaction:PHE:83     -1
Name: 23, dtype: object

>  <halogenbond:PHE:83>  (24) 
halogenbond:PHE:83    NaN
halogenbond:PHE:83     -1
Name: 23, dtype: object

>  <pistack:PHE:83>  (24) 
pistack:PHE:83    NaN
pistack:PHE:83     -1
Name: 23, dtype: object

>  <pication:PHE:83>  (24) 
pication:PHE:83    NaN
pication:PHE:83     -1
Name: 23, dtype: object

>  <hydroph_interaction:VAL:84>  (24) 
hydroph_interaction:VAL:84    0.0
hydroph_interaction:VAL:84      0
Name: 23, dtype: object

>  <halogenbond:VAL:84>  (24) 
halogenbond:VAL:84    NaN
halogenbond:VAL:84     -1
Name: 23, dtype: object

>  <hbond:VAL:84>  (24) 
hbond:VAL:84    NaN
hbond:VAL:84     -1
Name: 23, dtype: object

>  <hydroph_interaction:GLU:85>  (24) 
hydroph_interaction:GLU:85    0.0
hydroph_interaction:GLU:85      0
Name: 23, dtype: object

>  <hbond:GLU:85>  (24) 
hbond:GLU:85    0.0
hbond:GLU:85      0
Name: 23, dtype: object

>  <halogenbond:GLU:85>  (24) 
halogenbond:GLU:85    NaN
halogenbond:GLU:85     -1
Name: 23, dtype: object

>  <saltbridge:GLU:85>  (24) 
saltbridge:GLU:85    NaN
saltbridge:GLU:85     -1
Name: 23, dtype: object

>  <halogenbond:ALA:86>  (24) 
halogenbond:ALA:86    0.0
halogenbond:ALA:86      0
Name: 23, dtype: object

>  <hbond:ALA:86>  (24) 
hbond:ALA:86    0.0
hbond:ALA:86      0
Name: 23, dtype: object

>  <hydroph_interaction:ALA:86>  (24) 
hydroph_interaction:ALA:86    NaN
hydroph_interaction:ALA:86     -1
Name: 23, dtype: object

>  <hbond:SER:87>  (24) 
hbond:SER:87    0
hbond:SER:87    0
Name: 23, dtype: object

>  <halogenbond:SER:87>  (24) 
halogenbond:SER:87    NaN
halogenbond:SER:87     -1
Name: 23, dtype: object

>  <hbond:GLU:88>  (24) 
hbond:GLU:88    1.0
hbond:GLU:88      1
Name: 23, dtype: object

>  <hydroph_interaction:GLU:88>  (24) 
hydroph_interaction:GLU:88    0.0
hydroph_interaction:GLU:88      0
Name: 23, dtype: object

>  <halogenbond:GLU:88>  (24) 
halogenbond:GLU:88    NaN
halogenbond:GLU:88     -1
Name: 23, dtype: object

>  <saltbridge:GLU:88>  (24) 
saltbridge:GLU:88    NaN
saltbridge:GLU:88     -1
Name: 23, dtype: object

>  <hydroph_interaction:TYR:89>  (24) 
hydroph_interaction:TYR:89    0.0
hydroph_interaction:TYR:89      0
Name: 23, dtype: object

>  <pistack:TYR:89>  (24) 
pistack:TYR:89    NaN
pistack:TYR:89     -1
Name: 23, dtype: object

>  <hbond:TYR:89>  (24) 
hbond:TYR:89    NaN
hbond:TYR:89     -1
Name: 23, dtype: object

>  <halogenbond:TYR:89>  (24) 
halogenbond:TYR:89    NaN
halogenbond:TYR:89     -1
Name: 23, dtype: object

>  <hydroph_interaction:TYR:90>  (24) 
hydroph_interaction:TYR:90    0.0
hydroph_interaction:TYR:90      0
Name: 23, dtype: object

>  <hbond:TYR:90>  (24) 
hbond:TYR:90    0.0
hbond:TYR:90      0
Name: 23, dtype: object

>  <pistack:TYR:90>  (24) 
pistack:TYR:90    NaN
pistack:TYR:90     -1
Name: 23, dtype: object

>  <halogenbond:TYR:90>  (24) 
halogenbond:TYR:90    NaN
halogenbond:TYR:90     -1
Name: 23, dtype: object

>  <pication:TYR:90>  (24) 
pication:TYR:90    NaN
pication:TYR:90     -1
Name: 23, dtype: object

>  <hbond:PRO:91>  (24) 
hbond:PRO:91    NaN
hbond:PRO:91     -1
Name: 23, dtype: object

>  <hydroph_interaction:PRO:91>  (24) 
hydroph_interaction:PRO:91    NaN
hydroph_interaction:PRO:91     -1
Name: 23, dtype: object

>  <halogenbond:PRO:91>  (24) 
halogenbond:PRO:91    NaN
halogenbond:PRO:91     -1
Name: 23, dtype: object

>  <hbond:ALA:92>  (24) 
hbond:ALA:92    NaN
hbond:ALA:92     -1
Name: 23, dtype: object

>  <hydroph_interaction:ALA:92>  (24) 
hydroph_interaction:ALA:92    NaN
hydroph_interaction:ALA:92     -1
Name: 23, dtype: object

>  <saltbridge:ARG:93>  (24) 
saltbridge:ARG:93    NaN
saltbridge:ARG:93     -1
Name: 23, dtype: object

>  <hbond:ARG:93>  (24) 
hbond:ARG:93    NaN
hbond:ARG:93     -1
Name: 23, dtype: object

>  <hydroph_interaction:ARG:93>  (24) 
hydroph_interaction:ARG:93    NaN
hydroph_interaction:ARG:93     -1
Name: 23, dtype: object

>  <halogenbond:ARG:93>  (24) 
halogenbond:ARG:93    NaN
halogenbond:ARG:93     -1
Name: 23, dtype: object

>  <pication:ARG:93>  (24) 
pication:ARG:93    NaN
pication:ARG:93     -1
Name: 23, dtype: object

>  <hydroph_interaction:TYR:94>  (24) 
hydroph_interaction:TYR:94    NaN
hydroph_interaction:TYR:94     -1
Name: 23, dtype: object

>  <pistack:TYR:94>  (24) 
pistack:TYR:94    NaN
pistack:TYR:94     -1
Name: 23, dtype: object

>  <hbond:TYR:94>  (24) 
hbond:TYR:94    NaN
hbond:TYR:94     -1
Name: 23, dtype: object

>  <hbond:GLN:95>  (24) 
hbond:GLN:95    NaN
hbond:GLN:95     -1
Name: 23, dtype: object

>  <hydroph_interaction:GLN:95>  (24) 
hydroph_interaction:GLN:95    NaN
hydroph_interaction:GLN:95     -1
Name: 23, dtype: object

>  <halogenbond:GLN:95>  (24) 
halogenbond:GLN:95    NaN
halogenbond:GLN:95     -1
Name: 23, dtype: object

>  <hbond:SER:96>  (24) 
hbond:SER:96    NaN
hbond:SER:96     -1
Name: 23, dtype: object

>  <halogenbond:HIS:97>  (24) 
halogenbond:HIS:97    NaN
halogenbond:HIS:97     -1
Name: 23, dtype: object

>  <hydroph_interaction:LEU:98>  (24) 
hydroph_interaction:LEU:98    NaN
hydroph_interaction:LEU:98     -1
Name: 23, dtype: object

>  <hbond:LEU:98>  (24) 
hbond:LEU:98    NaN
hbond:LEU:98     -1
Name: 23, dtype: object

>  <halogenbond:LEU:98>  (24) 
halogenbond:LEU:98    NaN
halogenbond:LEU:98     -1
Name: 23, dtype: object

>  <hbond:MET:99>  (24) 
hbond:MET:99    NaN
hbond:MET:99     -1
Name: 23, dtype: object

>  <hydroph_interaction:MET:99>  (24) 
hydroph_interaction:MET:99    NaN
hydroph_interaction:MET:99     -1
Name: 23, dtype: object

>  <halogenbond:MET:99>  (24) 
halogenbond:MET:99    NaN
halogenbond:MET:99     -1
Name: 23, dtype: object

>  <hydroph_interaction:LEU:100>  (24) 
hydroph_interaction:LEU:100    0.0
hydroph_interaction:LEU:100      0
Name: 23, dtype: object

>  <hbond:LEU:100>  (24) 
hbond:LEU:100    NaN
hbond:LEU:100     -1
Name: 23, dtype: object

>  <hbond:ALA:101>  (24) 
hbond:ALA:101    NaN
hbond:ALA:101     -1
Name: 23, dtype: object

>  <hydroph_interaction:ALA:101>  (24) 
hydroph_interaction:ALA:101    NaN
hydroph_interaction:ALA:101     -1
Name: 23, dtype: object

>  <hydroph_interaction:VAL:102>  (24) 
hydroph_interaction:VAL:102    NaN
hydroph_interaction:VAL:102     -1
Name: 23, dtype: object

>  <hbond:VAL:102>  (24) 
hbond:VAL:102    NaN
hbond:VAL:102     -1
Name: 23, dtype: object

>  <hbond:GLY:103>  (24) 
hbond:GLY:103    NaN
hbond:GLY:103     -1
Name: 23, dtype: object

>  <halogenbond:GLY:103>  (24) 
halogenbond:GLY:103    NaN
halogenbond:GLY:103     -1
Name: 23, dtype: object

>  <hbond:HIS:104>  (24) 
hbond:HIS:104    NaN
hbond:HIS:104     -1
Name: 23, dtype: object

>  <saltbridge:HIS:104>  (24) 
saltbridge:HIS:104    NaN
saltbridge:HIS:104     -1
Name: 23, dtype: object

>  <pication:HIS:104>  (24) 
pication:HIS:104    NaN
pication:HIS:104     -1
Name: 23, dtype: object

>  <halogenbond:HIS:104>  (24) 
halogenbond:HIS:104    NaN
halogenbond:HIS:104     -1
Name: 23, dtype: object

>  <hydroph_interaction:HIS:104>  (24) 
hydroph_interaction:HIS:104    NaN
hydroph_interaction:HIS:104     -1
Name: 23, dtype: object

>  <pistack:HIS:104>  (24) 
pistack:HIS:104    NaN
pistack:HIS:104     -1
Name: 23, dtype: object

>  <halogenbond:SER:105>  (24) 
halogenbond:SER:105    0.0
halogenbond:SER:105      0
Name: 23, dtype: object

>  <hbond:SER:105>  (24) 
hbond:SER:105    0.0
hbond:SER:105      0
Name: 23, dtype: object

>  <hbond:GLU:106>  (24) 
hbond:GLU:106    0.0
hbond:GLU:106      0
Name: 23, dtype: object

>  <hydroph_interaction:GLU:106>  (24) 
hydroph_interaction:GLU:106    0.0
hydroph_interaction:GLU:106      0
Name: 23, dtype: object

>  <saltbridge:GLU:106>  (24) 
saltbridge:GLU:106    NaN
saltbridge:GLU:106     -1
Name: 23, dtype: object

>  <halogenbond:GLU:106>  (24) 
halogenbond:GLU:106    NaN
halogenbond:GLU:106     -1
Name: 23, dtype: object

>  <hydroph_interaction:PRO:107>  (24) 
hydroph_interaction:PRO:107    1
hydroph_interaction:PRO:107    1
Name: 23, dtype: object

>  <hbond:PRO:107>  (24) 
hbond:PRO:107    0.0
hbond:PRO:107      0
Name: 23, dtype: object

>  <halogenbond:PRO:107>  (24) 
halogenbond:PRO:107    NaN
halogenbond:PRO:107     -1
Name: 23, dtype: object

>  <hbond:GLY:108>  (24) 
hbond:GLY:108    NaN
hbond:GLY:108     -1
Name: 23, dtype: object

>  <halogenbond:GLY:108>  (24) 
halogenbond:GLY:108    NaN
halogenbond:GLY:108     -1
Name: 23, dtype: object

>  <hbond:ASP:109>  (24) 
hbond:ASP:109    0.0
hbond:ASP:109      0
Name: 23, dtype: object

>  <hydroph_interaction:ASP:109>  (24) 
hydroph_interaction:ASP:109    0.0
hydroph_interaction:ASP:109      0
Name: 23, dtype: object

>  <saltbridge:ASP:109>  (24) 
saltbridge:ASP:109    NaN
saltbridge:ASP:109     -1
Name: 23, dtype: object

>  <halogenbond:CYS:110>  (24) 
halogenbond:CYS:110    NaN
halogenbond:CYS:110     -1
Name: 23, dtype: object

>  <hbond:CYS:110>  (24) 
hbond:CYS:110    0.0
hbond:CYS:110      0
Name: 23, dtype: object

>  <hbond:GLY:111>  (24) 
hbond:GLY:111    NaN
hbond:GLY:111     -1
Name: 23, dtype: object

>  <hbond:GLY:112>  (24) 
hbond:GLY:112    NaN
hbond:GLY:112     -1
Name: 23, dtype: object

>  <hbond:ILE:113>  (24) 
hbond:ILE:113    NaN
hbond:ILE:113     -1
Name: 23, dtype: object

>  <hydroph_interaction:LEU:114>  (24) 
hydroph_interaction:LEU:114    NaN
hydroph_interaction:LEU:114     -1
Name: 23, dtype: object

>  <hbond:LEU:114>  (24) 
hbond:LEU:114    NaN
hbond:LEU:114     -1
Name: 23, dtype: object

>  <hydroph_interaction:ILE:123>  (24) 
hydroph_interaction:ILE:123    NaN
hydroph_interaction:ILE:123     -1
Name: 23, dtype: object

>  <hbond:ILE:123>  (24) 
hbond:ILE:123    NaN
hbond:ILE:123     -1
Name: 23, dtype: object

>  <hydroph_interaction:VAL:124>  (24) 
hydroph_interaction:VAL:124    1.0
hydroph_interaction:VAL:124      1
Name: 23, dtype: object

>  <hbond:VAL:124>  (24) 
hbond:VAL:124    NaN
hbond:VAL:124     -1
Name: 23, dtype: object

>  <halogenbond:VAL:124>  (24) 
halogenbond:VAL:124    NaN
halogenbond:VAL:124     -1
Name: 23, dtype: object

>  <hbond:SER:125>  (24) 
hbond:SER:125    2
hbond:SER:125    2
Name: 23, dtype: object

>  <halogenbond:SER:125>  (24) 
halogenbond:SER:125    0.0
halogenbond:SER:125      0
Name: 23, dtype: object

>  <hydroph_interaction:THR:126>  (24) 
hydroph_interaction:THR:126    0.0
hydroph_interaction:THR:126      0
Name: 23, dtype: object

>  <hbond:THR:126>  (24) 
hbond:THR:126    0.0
hbond:THR:126      0
Name: 23, dtype: object

>  <halogenbond:THR:126>  (24) 
halogenbond:THR:126    NaN
halogenbond:THR:126     -1
Name: 23, dtype: object

>  <hbond:GLY:127>  (24) 
hbond:GLY:127    0
hbond:GLY:127    0
Name: 23, dtype: object

>  <halogenbond:GLY:127>  (24) 
halogenbond:GLY:127    NaN
halogenbond:GLY:127     -1
Name: 23, dtype: object

>  <hydroph_interaction:GLY:127>  (24) 
hydroph_interaction:GLY:127    NaN
hydroph_interaction:GLY:127     -1
Name: 23, dtype: object

>  <hbond:GLY:128>  (24) 
hbond:GLY:128    0.0
hbond:GLY:128      0
Name: 23, dtype: object

>  <halogenbond:GLY:128>  (24) 
halogenbond:GLY:128    NaN
halogenbond:GLY:128     -1
Name: 23, dtype: object

>  <hydroph_interaction:GLY:128>  (24) 
hydroph_interaction:GLY:128    NaN
hydroph_interaction:GLY:128     -1
Name: 23, dtype: object

>  <hbond:ASN:129>  (24) 
hbond:ASN:129    NaN
hbond:ASN:129     -1
Name: 23, dtype: object

>  <hydroph_interaction:ASN:129>  (24) 
hydroph_interaction:ASN:129    NaN
hydroph_interaction:ASN:129     -1
Name: 23, dtype: object

>  <halogenbond:ASN:129>  (24) 
halogenbond:ASN:129    NaN
halogenbond:ASN:129     -1
Name: 23, dtype: object

>  <hbond:GLY:130>  (24) 
hbond:GLY:130    NaN
hbond:GLY:130     -1
Name: 23, dtype: object

>  <hbond:LEU:131>  (24) 
hbond:LEU:131    NaN
hbond:LEU:131     -1
Name: 23, dtype: object

>  <hydroph_interaction:LEU:131>  (24) 
hydroph_interaction:LEU:131    0.0
hydroph_interaction:LEU:131      0
Name: 23, dtype: object

>  <halogenbond:LEU:131>  (24) 
halogenbond:LEU:131    NaN
halogenbond:LEU:131     -1
Name: 23, dtype: object

>  <hydroph_interaction:VAL:132>  (24) 
hydroph_interaction:VAL:132    0.0
hydroph_interaction:VAL:132      0
Name: 23, dtype: object

>  <hbond:VAL:132>  (24) 
hbond:VAL:132    NaN
hbond:VAL:132     -1
Name: 23, dtype: object

>  <hbond:GLY:133>  (24) 
hbond:GLY:133    0.0
hbond:GLY:133      0
Name: 23, dtype: object

>  <halogenbond:GLY:133>  (24) 
halogenbond:GLY:133    NaN
halogenbond:GLY:133     -1
Name: 23, dtype: object

>  <hydroph_interaction:PHE:134>  (24) 
hydroph_interaction:PHE:134    0.0
hydroph_interaction:PHE:134      0
Name: 23, dtype: object

>  <hbond:PHE:134>  (24) 
hbond:PHE:134    NaN
hbond:PHE:134     -1
Name: 23, dtype: object

>  <pistack:PHE:134>  (24) 
pistack:PHE:134    NaN
pistack:PHE:134     -1
Name: 23, dtype: object

>  <pication:PHE:134>  (24) 
pication:PHE:134    NaN
pication:PHE:134     -1
Name: 23, dtype: object

>  <halogenbond:PHE:134>  (24) 
halogenbond:PHE:134    NaN
halogenbond:PHE:134     -1
Name: 23, dtype: object

>  <hydroph_interaction:ALA:135>  (24) 
hydroph_interaction:ALA:135    NaN
hydroph_interaction:ALA:135     -1
Name: 23, dtype: object

>  <hbond:ALA:135>  (24) 
hbond:ALA:135    NaN
hbond:ALA:135     -1
Name: 23, dtype: object

$$$$
Z5088932893
     RDKit          3D

 28 29  0  0  0  0  0  0  0  0999 V2000
   10.1940    8.7640   22.8600 C   0  0  0  0  0  0  0  0  0  0  0  0
    9.6440   10.0790   23.3100 C   0  0  0  0  0  0  0  0  0  0  0  0
    8.6580   10.1170   24.2710 C   0  0  0  0  0  0  0  0  0  0  0  0
    8.1960   11.3740   24.6360 C   0  0  0  0  0  0  0  0  0  0  0  0
    8.7350   12.5780   24.0190 C   0  0  0  0  0  0  0  0  0  0  0  0
    8.0950   13.6400   24.5670 N   0  0  0  0  0  0  0  0  0  0  0  0
    7.2120   13.1050   25.4730 C   0  0  0  0  0  0  0  0  0  0  0  0
    7.2600   11.7700   25.5270 N   0  0  0  0  0  0  0  0  0  0  0  0
    9.7260   12.4870   23.0520 C   0  0  0  0  0  0  0  0  0  0  0  0
   10.3030   13.6840   22.3840 C   0  0  0  0  0  0  0  0  0  0  0  0
    9.6210   14.2260   21.5230 O   0  0  0  0  0  0  0  0  0  0  0  0
   11.5370   14.1250   22.7460 N   0  0  0  0  0  0  0  0  0  0  0  0
   12.2840   14.7500   21.8310 C   0  0  0  0  0  0  0  0  0  0  0  0
   11.9230   14.3570   24.1220 C   0  0  0  0  0  0  0  0  0  0  0  0
   10.1530   11.2120   22.7320 C   0  0  0  0  0  0  0  0  0  0  0  0
   10.1620    8.0560   23.6630 H   0  0  0  0  0  0  0  0  0  0  0  0
    9.6010    8.3630   22.0330 H   0  0  0  0  0  0  0  0  0  0  0  0
   11.2120    8.8910   22.5070 H   0  0  0  0  0  0  0  0  0  0  0  0
    8.2860    9.2010   24.6950 H   0  0  0  0  0  0  0  0  0  0  0  0
    8.2680   14.6080   24.3240 H   0  0  0  0  0  0  0  0  0  0  0  0
    6.5520   13.7380   26.0730 H   0  0  0  0  0  0  0  0  0  0  0  0
   11.8070   15.6910   21.5430 H   0  0  0  0  0  0  0  0  0  0  0  0
   13.2220   15.0090   22.2990 H   0  0  0  0  0  0  0  0  0  0  0  0
   12.4970   14.2180   20.9140 H   0  0  0  0  0  0  0  0  0  0  0  0
   12.1860   15.4020   24.3170 H   0  0  0  0  0  0  0  0  0  0  0  0
   12.8070   13.7490   24.3360 H   0  0  0  0  0  0  0  0  0  0  0  0
   11.1000   14.0480   24.7710 H   0  0  0  0  0  0  0  0  0  0  0  0
   10.9190   11.1000   21.9910 H   0  0  0  0  0  0  0  0  0  0  0  0
  1  2  1  0
  2  3  2  0
  3  4  1  0
  4  5  2  0
  5  6  1  0
  6  7  1  0
  7  8  2  0
  5  9  1  0
  9 10  1  0
 10 11  2  0
 10 12  1  0
 12 13  1  0
 12 14  1  0
  9 15  2  0
 15  2  1  0
  8  4  1  0
  1 16  1  0
  1 17  1  0
  1 18  1  0
  3 19  1  0
  6 20  1  0
  7 21  1  0
 13 22  1  0
 13 23  1  0
 13 24  1  0
 14 25  1  0
 14 26  1  0
 14 27  1  0
 15 28  1  0
A    1
 C1 
A    2
 C2 
A    3
 C3 
A    4
 C4 
A    5
 C5 
A    6
 N1 
A    7
 C6 
A    8
 N2 
A    9
 C7 
A   10
 C8 
A   11
 O1 
A   12
 N3 
A   13
 C9 
A   14
 C10
A   15
 C11
A   16
 H1 
A   17
 H2 
A   18
 H3 
A   19
 H4 
A   20
 H5 
A   21
 H6 
A   22
 H7 
A   23
 H8 
A   24
 H9 
A   25
 H10
A   26
 H11
A   27
 H12
A   28
 H13
M  END
>  <ref_pdb>  (25) 
x0310_0A

>  <ref_mols>  (25) 
x0554_0A,x0739_0A

>  <original SMILES>  (25) 
Cc1cc(C(=O)N(C)C)c2[nH]cnc2c1

>  <rationale>  (25) 
info halogenbond:C110+G127+D39+A86+S125+E85+Q95+E106+E88+T126+P107+H104+Y64+C65+S87+N129+F83+R93+L131+I82+G128+P91+N19+H21+V84+G133+Y90+Y89+H97+L81+F134+L98+R20+G103+S66+S67+S7+G108+R38+V124+M99+S36; hbond:S87+Y90+Q95+D39+A86+E85+G108+G103+G128+G130+L131+N129+N19+H104+R68+V124+R93+P91+F83+S67+S7+S66+G112+G133+V132+R20+Y89+S77+A135+Y63+A92+A101+M99+F134+L100+I82+Y64+S36+L98+V84+L81+Y94+S80+R38+S37+V102+G8+I123+G111+I113+L114+C65+L22+S96; hydroph_interaction:V84+V124+T126+H21+L22+E85+E106+N129+D39+N19+L40+I123+A135+Q95+I82+L100+L98+L131+F83+R93+V132+Y63+F134+H104+R20+A86+V74+P91+A101+F76+M99+L114+A92+Y94+R68+Y72+Y64+V18+V102+W28+G127+G128+L81; pication:H21+H104+R93+Y63+F134+Y90+R68+F83+R20; pistack:H21+Y89+Y90+H104+F134+Y63+F83+Y94; saltbridge:D39+R93+H104+E106+D109+E85+E88+R68+R20; 

>  <intxn_cluster>  (25) 
-1

>  <intxn_cluster_rank>  (25) 
-1

>  <N_interactions>  (25) 
2

>  <∆∆G>  (25) 
-11.432849

>  <$/mg>  (25) 
163.0

>  <comRMSD>  (25) 
0.766929

>  <N_rotatable_bonds>  (25) 
4

>  <deep_P1_sidechain>  (25) 
nan

>  <farthest_distance_to_substrate>  (25) 
2.311455

>  <hbond:SER:7>  (25) 
hbond:SER:7    NaN
hbond:SER:7     -1
Name: 24, dtype: object

>  <halogenbond:SER:7>  (25) 
halogenbond:SER:7    NaN
halogenbond:SER:7     -1
Name: 24, dtype: object

>  <hbond:GLY:8>  (25) 
hbond:GLY:8    NaN
hbond:GLY:8     -1
Name: 24, dtype: object

>  <hydroph_interaction:VAL:18>  (25) 
hydroph_interaction:VAL:18    NaN
hydroph_interaction:VAL:18     -1
Name: 24, dtype: object

>  <hbond:ASN:19>  (25) 
hbond:ASN:19    NaN
hbond:ASN:19     -1
Name: 24, dtype: object

>  <hydroph_interaction:ASN:19>  (25) 
hydroph_interaction:ASN:19    NaN
hydroph_interaction:ASN:19     -1
Name: 24, dtype: object

>  <halogenbond:ASN:19>  (25) 
halogenbond:ASN:19    NaN
halogenbond:ASN:19     -1
Name: 24, dtype: object

>  <hbond:ARG:20>  (25) 
hbond:ARG:20    NaN
hbond:ARG:20     -1
Name: 24, dtype: object

>  <hydroph_interaction:ARG:20>  (25) 
hydroph_interaction:ARG:20    NaN
hydroph_interaction:ARG:20     -1
Name: 24, dtype: object

>  <saltbridge:ARG:20>  (25) 
saltbridge:ARG:20    NaN
saltbridge:ARG:20     -1
Name: 24, dtype: object

>  <halogenbond:ARG:20>  (25) 
halogenbond:ARG:20    NaN
halogenbond:ARG:20     -1
Name: 24, dtype: object

>  <pication:ARG:20>  (25) 
pication:ARG:20    NaN
pication:ARG:20     -1
Name: 24, dtype: object

>  <hbond:HIS:21>  (25) 
hbond:HIS:21    0.0
hbond:HIS:21      0
Name: 24, dtype: object

>  <hydroph_interaction:HIS:21>  (25) 
hydroph_interaction:HIS:21    NaN
hydroph_interaction:HIS:21     -1
Name: 24, dtype: object

>  <pistack:HIS:21>  (25) 
pistack:HIS:21    NaN
pistack:HIS:21     -1
Name: 24, dtype: object

>  <pication:HIS:21>  (25) 
pication:HIS:21    NaN
pication:HIS:21     -1
Name: 24, dtype: object

>  <saltbridge:HIS:21>  (25) 
saltbridge:HIS:21    0.0
saltbridge:HIS:21      0
Name: 24, dtype: object

>  <halogenbond:HIS:21>  (25) 
halogenbond:HIS:21    NaN
halogenbond:HIS:21     -1
Name: 24, dtype: object

>  <hydroph_interaction:LEU:22>  (25) 
hydroph_interaction:LEU:22    NaN
hydroph_interaction:LEU:22     -1
Name: 24, dtype: object

>  <hbond:LEU:22>  (25) 
hbond:LEU:22    NaN
hbond:LEU:22     -1
Name: 24, dtype: object

>  <hydroph_interaction:TRP:28>  (25) 
hydroph_interaction:TRP:28    NaN
hydroph_interaction:TRP:28     -1
Name: 24, dtype: object

>  <hbond:SER:36>  (25) 
hbond:SER:36    NaN
hbond:SER:36     -1
Name: 24, dtype: object

>  <halogenbond:SER:36>  (25) 
halogenbond:SER:36    NaN
halogenbond:SER:36     -1
Name: 24, dtype: object

>  <hbond:SER:37>  (25) 
hbond:SER:37    NaN
hbond:SER:37     -1
Name: 24, dtype: object

>  <hbond:ARG:38>  (25) 
hbond:ARG:38    NaN
hbond:ARG:38     -1
Name: 24, dtype: object

>  <halogenbond:ARG:38>  (25) 
halogenbond:ARG:38    NaN
halogenbond:ARG:38     -1
Name: 24, dtype: object

>  <saltbridge:ASP:39>  (25) 
saltbridge:ASP:39    NaN
saltbridge:ASP:39     -1
Name: 24, dtype: object

>  <halogenbond:ASP:39>  (25) 
halogenbond:ASP:39    NaN
halogenbond:ASP:39     -1
Name: 24, dtype: object

>  <hbond:ASP:39>  (25) 
hbond:ASP:39    NaN
hbond:ASP:39     -1
Name: 24, dtype: object

>  <hydroph_interaction:ASP:39>  (25) 
hydroph_interaction:ASP:39    NaN
hydroph_interaction:ASP:39     -1
Name: 24, dtype: object

>  <hydroph_interaction:LEU:40>  (25) 
hydroph_interaction:LEU:40    NaN
hydroph_interaction:LEU:40     -1
Name: 24, dtype: object

>  <hydroph_interaction:TYR:63>  (25) 
hydroph_interaction:TYR:63    NaN
hydroph_interaction:TYR:63     -1
Name: 24, dtype: object

>  <hbond:TYR:63>  (25) 
hbond:TYR:63    NaN
hbond:TYR:63     -1
Name: 24, dtype: object

>  <pistack:TYR:63>  (25) 
pistack:TYR:63    NaN
pistack:TYR:63     -1
Name: 24, dtype: object

>  <pication:TYR:63>  (25) 
pication:TYR:63    NaN
pication:TYR:63     -1
Name: 24, dtype: object

>  <halogenbond:TYR:64>  (25) 
halogenbond:TYR:64    NaN
halogenbond:TYR:64     -1
Name: 24, dtype: object

>  <hbond:TYR:64>  (25) 
hbond:TYR:64    NaN
hbond:TYR:64     -1
Name: 24, dtype: object

>  <hydroph_interaction:TYR:64>  (25) 
hydroph_interaction:TYR:64    NaN
hydroph_interaction:TYR:64     -1
Name: 24, dtype: object

>  <halogenbond:CYS:65>  (25) 
halogenbond:CYS:65    NaN
halogenbond:CYS:65     -1
Name: 24, dtype: object

>  <hbond:CYS:65>  (25) 
hbond:CYS:65    NaN
hbond:CYS:65     -1
Name: 24, dtype: object

>  <hbond:SER:66>  (25) 
hbond:SER:66    NaN
hbond:SER:66     -1
Name: 24, dtype: object

>  <halogenbond:SER:66>  (25) 
halogenbond:SER:66    NaN
halogenbond:SER:66     -1
Name: 24, dtype: object

>  <hbond:SER:67>  (25) 
hbond:SER:67    NaN
hbond:SER:67     -1
Name: 24, dtype: object

>  <halogenbond:SER:67>  (25) 
halogenbond:SER:67    NaN
halogenbond:SER:67     -1
Name: 24, dtype: object

>  <hbond:ARG:68>  (25) 
hbond:ARG:68    NaN
hbond:ARG:68     -1
Name: 24, dtype: object

>  <saltbridge:ARG:68>  (25) 
saltbridge:ARG:68    NaN
saltbridge:ARG:68     -1
Name: 24, dtype: object

>  <hydroph_interaction:ARG:68>  (25) 
hydroph_interaction:ARG:68    NaN
hydroph_interaction:ARG:68     -1
Name: 24, dtype: object

>  <pication:ARG:68>  (25) 
pication:ARG:68    NaN
pication:ARG:68     -1
Name: 24, dtype: object

>  <hydroph_interaction:TYR:72>  (25) 
hydroph_interaction:TYR:72    NaN
hydroph_interaction:TYR:72     -1
Name: 24, dtype: object

>  <hydroph_interaction:VAL:74>  (25) 
hydroph_interaction:VAL:74    NaN
hydroph_interaction:VAL:74     -1
Name: 24, dtype: object

>  <hydroph_interaction:PHE:76>  (25) 
hydroph_interaction:PHE:76    NaN
hydroph_interaction:PHE:76     -1
Name: 24, dtype: object

>  <hbond:SER:77>  (25) 
hbond:SER:77    NaN
hbond:SER:77     -1
Name: 24, dtype: object

>  <hbond:SER:80>  (25) 
hbond:SER:80    NaN
hbond:SER:80     -1
Name: 24, dtype: object

>  <hbond:LEU:81>  (25) 
hbond:LEU:81    NaN
hbond:LEU:81     -1
Name: 24, dtype: object

>  <halogenbond:LEU:81>  (25) 
halogenbond:LEU:81    NaN
halogenbond:LEU:81     -1
Name: 24, dtype: object

>  <hydroph_interaction:LEU:81>  (25) 
hydroph_interaction:LEU:81    NaN
hydroph_interaction:LEU:81     -1
Name: 24, dtype: object

>  <hydroph_interaction:ILE:82>  (25) 
hydroph_interaction:ILE:82    NaN
hydroph_interaction:ILE:82     -1
Name: 24, dtype: object

>  <halogenbond:ILE:82>  (25) 
halogenbond:ILE:82    NaN
halogenbond:ILE:82     -1
Name: 24, dtype: object

>  <hbond:ILE:82>  (25) 
hbond:ILE:82    NaN
hbond:ILE:82     -1
Name: 24, dtype: object

>  <hbond:PHE:83>  (25) 
hbond:PHE:83    NaN
hbond:PHE:83     -1
Name: 24, dtype: object

>  <hydroph_interaction:PHE:83>  (25) 
hydroph_interaction:PHE:83    NaN
hydroph_interaction:PHE:83     -1
Name: 24, dtype: object

>  <halogenbond:PHE:83>  (25) 
halogenbond:PHE:83    NaN
halogenbond:PHE:83     -1
Name: 24, dtype: object

>  <pistack:PHE:83>  (25) 
pistack:PHE:83    NaN
pistack:PHE:83     -1
Name: 24, dtype: object

>  <pication:PHE:83>  (25) 
pication:PHE:83    NaN
pication:PHE:83     -1
Name: 24, dtype: object

>  <hydroph_interaction:VAL:84>  (25) 
hydroph_interaction:VAL:84    NaN
hydroph_interaction:VAL:84     -1
Name: 24, dtype: object

>  <halogenbond:VAL:84>  (25) 
halogenbond:VAL:84    NaN
halogenbond:VAL:84     -1
Name: 24, dtype: object

>  <hbond:VAL:84>  (25) 
hbond:VAL:84    NaN
hbond:VAL:84     -1
Name: 24, dtype: object

>  <hydroph_interaction:GLU:85>  (25) 
hydroph_interaction:GLU:85    NaN
hydroph_interaction:GLU:85     -1
Name: 24, dtype: object

>  <hbond:GLU:85>  (25) 
hbond:GLU:85    NaN
hbond:GLU:85     -1
Name: 24, dtype: object

>  <halogenbond:GLU:85>  (25) 
halogenbond:GLU:85    NaN
halogenbond:GLU:85     -1
Name: 24, dtype: object

>  <saltbridge:GLU:85>  (25) 
saltbridge:GLU:85    NaN
saltbridge:GLU:85     -1
Name: 24, dtype: object

>  <halogenbond:ALA:86>  (25) 
halogenbond:ALA:86    NaN
halogenbond:ALA:86     -1
Name: 24, dtype: object

>  <hbond:ALA:86>  (25) 
hbond:ALA:86    NaN
hbond:ALA:86     -1
Name: 24, dtype: object

>  <hydroph_interaction:ALA:86>  (25) 
hydroph_interaction:ALA:86    NaN
hydroph_interaction:ALA:86     -1
Name: 24, dtype: object

>  <hbond:SER:87>  (25) 
hbond:SER:87    1
hbond:SER:87    1
Name: 24, dtype: object

>  <halogenbond:SER:87>  (25) 
halogenbond:SER:87    NaN
halogenbond:SER:87     -1
Name: 24, dtype: object

>  <hbond:GLU:88>  (25) 
hbond:GLU:88    0.0
hbond:GLU:88      0
Name: 24, dtype: object

>  <hydroph_interaction:GLU:88>  (25) 
hydroph_interaction:GLU:88    0.0
hydroph_interaction:GLU:88      0
Name: 24, dtype: object

>  <halogenbond:GLU:88>  (25) 
halogenbond:GLU:88    NaN
halogenbond:GLU:88     -1
Name: 24, dtype: object

>  <saltbridge:GLU:88>  (25) 
saltbridge:GLU:88    NaN
saltbridge:GLU:88     -1
Name: 24, dtype: object

>  <hydroph_interaction:TYR:89>  (25) 
hydroph_interaction:TYR:89    0.0
hydroph_interaction:TYR:89      0
Name: 24, dtype: object

>  <pistack:TYR:89>  (25) 
pistack:TYR:89    NaN
pistack:TYR:89     -1
Name: 24, dtype: object

>  <hbond:TYR:89>  (25) 
hbond:TYR:89    NaN
hbond:TYR:89     -1
Name: 24, dtype: object

>  <halogenbond:TYR:89>  (25) 
halogenbond:TYR:89    NaN
halogenbond:TYR:89     -1
Name: 24, dtype: object

>  <hydroph_interaction:TYR:90>  (25) 
hydroph_interaction:TYR:90    0.0
hydroph_interaction:TYR:90      0
Name: 24, dtype: object

>  <hbond:TYR:90>  (25) 
hbond:TYR:90    NaN
hbond:TYR:90     -1
Name: 24, dtype: object

>  <pistack:TYR:90>  (25) 
pistack:TYR:90    NaN
pistack:TYR:90     -1
Name: 24, dtype: object

>  <halogenbond:TYR:90>  (25) 
halogenbond:TYR:90    NaN
halogenbond:TYR:90     -1
Name: 24, dtype: object

>  <pication:TYR:90>  (25) 
pication:TYR:90    NaN
pication:TYR:90     -1
Name: 24, dtype: object

>  <hbond:PRO:91>  (25) 
hbond:PRO:91    NaN
hbond:PRO:91     -1
Name: 24, dtype: object

>  <hydroph_interaction:PRO:91>  (25) 
hydroph_interaction:PRO:91    NaN
hydroph_interaction:PRO:91     -1
Name: 24, dtype: object

>  <halogenbond:PRO:91>  (25) 
halogenbond:PRO:91    NaN
halogenbond:PRO:91     -1
Name: 24, dtype: object

>  <hbond:ALA:92>  (25) 
hbond:ALA:92    NaN
hbond:ALA:92     -1
Name: 24, dtype: object

>  <hydroph_interaction:ALA:92>  (25) 
hydroph_interaction:ALA:92    NaN
hydroph_interaction:ALA:92     -1
Name: 24, dtype: object

>  <saltbridge:ARG:93>  (25) 
saltbridge:ARG:93    NaN
saltbridge:ARG:93     -1
Name: 24, dtype: object

>  <hbond:ARG:93>  (25) 
hbond:ARG:93    NaN
hbond:ARG:93     -1
Name: 24, dtype: object

>  <hydroph_interaction:ARG:93>  (25) 
hydroph_interaction:ARG:93    NaN
hydroph_interaction:ARG:93     -1
Name: 24, dtype: object

>  <halogenbond:ARG:93>  (25) 
halogenbond:ARG:93    NaN
halogenbond:ARG:93     -1
Name: 24, dtype: object

>  <pication:ARG:93>  (25) 
pication:ARG:93    NaN
pication:ARG:93     -1
Name: 24, dtype: object

>  <hydroph_interaction:TYR:94>  (25) 
hydroph_interaction:TYR:94    NaN
hydroph_interaction:TYR:94     -1
Name: 24, dtype: object

>  <pistack:TYR:94>  (25) 
pistack:TYR:94    NaN
pistack:TYR:94     -1
Name: 24, dtype: object

>  <hbond:TYR:94>  (25) 
hbond:TYR:94    NaN
hbond:TYR:94     -1
Name: 24, dtype: object

>  <hbond:GLN:95>  (25) 
hbond:GLN:95    NaN
hbond:GLN:95     -1
Name: 24, dtype: object

>  <hydroph_interaction:GLN:95>  (25) 
hydroph_interaction:GLN:95    NaN
hydroph_interaction:GLN:95     -1
Name: 24, dtype: object

>  <halogenbond:GLN:95>  (25) 
halogenbond:GLN:95    NaN
halogenbond:GLN:95     -1
Name: 24, dtype: object

>  <hbond:SER:96>  (25) 
hbond:SER:96    NaN
hbond:SER:96     -1
Name: 24, dtype: object

>  <halogenbond:HIS:97>  (25) 
halogenbond:HIS:97    NaN
halogenbond:HIS:97     -1
Name: 24, dtype: object

>  <hydroph_interaction:LEU:98>  (25) 
hydroph_interaction:LEU:98    NaN
hydroph_interaction:LEU:98     -1
Name: 24, dtype: object

>  <hbond:LEU:98>  (25) 
hbond:LEU:98    NaN
hbond:LEU:98     -1
Name: 24, dtype: object

>  <halogenbond:LEU:98>  (25) 
halogenbond:LEU:98    NaN
halogenbond:LEU:98     -1
Name: 24, dtype: object

>  <hbond:MET:99>  (25) 
hbond:MET:99    NaN
hbond:MET:99     -1
Name: 24, dtype: object

>  <hydroph_interaction:MET:99>  (25) 
hydroph_interaction:MET:99    NaN
hydroph_interaction:MET:99     -1
Name: 24, dtype: object

>  <halogenbond:MET:99>  (25) 
halogenbond:MET:99    NaN
halogenbond:MET:99     -1
Name: 24, dtype: object

>  <hydroph_interaction:LEU:100>  (25) 
hydroph_interaction:LEU:100    NaN
hydroph_interaction:LEU:100     -1
Name: 24, dtype: object

>  <hbond:LEU:100>  (25) 
hbond:LEU:100    NaN
hbond:LEU:100     -1
Name: 24, dtype: object

>  <hbond:ALA:101>  (25) 
hbond:ALA:101    NaN
hbond:ALA:101     -1
Name: 24, dtype: object

>  <hydroph_interaction:ALA:101>  (25) 
hydroph_interaction:ALA:101    NaN
hydroph_interaction:ALA:101     -1
Name: 24, dtype: object

>  <hydroph_interaction:VAL:102>  (25) 
hydroph_interaction:VAL:102    NaN
hydroph_interaction:VAL:102     -1
Name: 24, dtype: object

>  <hbond:VAL:102>  (25) 
hbond:VAL:102    NaN
hbond:VAL:102     -1
Name: 24, dtype: object

>  <hbond:GLY:103>  (25) 
hbond:GLY:103    NaN
hbond:GLY:103     -1
Name: 24, dtype: object

>  <halogenbond:GLY:103>  (25) 
halogenbond:GLY:103    NaN
halogenbond:GLY:103     -1
Name: 24, dtype: object

>  <hbond:HIS:104>  (25) 
hbond:HIS:104    NaN
hbond:HIS:104     -1
Name: 24, dtype: object

>  <saltbridge:HIS:104>  (25) 
saltbridge:HIS:104    NaN
saltbridge:HIS:104     -1
Name: 24, dtype: object

>  <pication:HIS:104>  (25) 
pication:HIS:104    NaN
pication:HIS:104     -1
Name: 24, dtype: object

>  <halogenbond:HIS:104>  (25) 
halogenbond:HIS:104    NaN
halogenbond:HIS:104     -1
Name: 24, dtype: object

>  <hydroph_interaction:HIS:104>  (25) 
hydroph_interaction:HIS:104    NaN
hydroph_interaction:HIS:104     -1
Name: 24, dtype: object

>  <pistack:HIS:104>  (25) 
pistack:HIS:104    NaN
pistack:HIS:104     -1
Name: 24, dtype: object

>  <halogenbond:SER:105>  (25) 
halogenbond:SER:105    0.0
halogenbond:SER:105      0
Name: 24, dtype: object

>  <hbond:SER:105>  (25) 
hbond:SER:105    0.0
hbond:SER:105      0
Name: 24, dtype: object

>  <hbond:GLU:106>  (25) 
hbond:GLU:106    0.0
hbond:GLU:106      0
Name: 24, dtype: object

>  <hydroph_interaction:GLU:106>  (25) 
hydroph_interaction:GLU:106    NaN
hydroph_interaction:GLU:106     -1
Name: 24, dtype: object

>  <saltbridge:GLU:106>  (25) 
saltbridge:GLU:106    NaN
saltbridge:GLU:106     -1
Name: 24, dtype: object

>  <halogenbond:GLU:106>  (25) 
halogenbond:GLU:106    NaN
halogenbond:GLU:106     -1
Name: 24, dtype: object

>  <hydroph_interaction:PRO:107>  (25) 
hydroph_interaction:PRO:107    0
hydroph_interaction:PRO:107    0
Name: 24, dtype: object

>  <hbond:PRO:107>  (25) 
hbond:PRO:107    0.0
hbond:PRO:107      0
Name: 24, dtype: object

>  <halogenbond:PRO:107>  (25) 
halogenbond:PRO:107    NaN
halogenbond:PRO:107     -1
Name: 24, dtype: object

>  <hbond:GLY:108>  (25) 
hbond:GLY:108    NaN
hbond:GLY:108     -1
Name: 24, dtype: object

>  <halogenbond:GLY:108>  (25) 
halogenbond:GLY:108    NaN
halogenbond:GLY:108     -1
Name: 24, dtype: object

>  <hbond:ASP:109>  (25) 
hbond:ASP:109    0.0
hbond:ASP:109      0
Name: 24, dtype: object

>  <hydroph_interaction:ASP:109>  (25) 
hydroph_interaction:ASP:109    0.0
hydroph_interaction:ASP:109      0
Name: 24, dtype: object

>  <saltbridge:ASP:109>  (25) 
saltbridge:ASP:109    NaN
saltbridge:ASP:109     -1
Name: 24, dtype: object

>  <halogenbond:CYS:110>  (25) 
halogenbond:CYS:110    NaN
halogenbond:CYS:110     -1
Name: 24, dtype: object

>  <hbond:CYS:110>  (25) 
hbond:CYS:110    0.0
hbond:CYS:110      0
Name: 24, dtype: object

>  <hbond:GLY:111>  (25) 
hbond:GLY:111    NaN
hbond:GLY:111     -1
Name: 24, dtype: object

>  <hbond:GLY:112>  (25) 
hbond:GLY:112    NaN
hbond:GLY:112     -1
Name: 24, dtype: object

>  <hbond:ILE:113>  (25) 
hbond:ILE:113    NaN
hbond:ILE:113     -1
Name: 24, dtype: object

>  <hydroph_interaction:LEU:114>  (25) 
hydroph_interaction:LEU:114    NaN
hydroph_interaction:LEU:114     -1
Name: 24, dtype: object

>  <hbond:LEU:114>  (25) 
hbond:LEU:114    NaN
hbond:LEU:114     -1
Name: 24, dtype: object

>  <hydroph_interaction:ILE:123>  (25) 
hydroph_interaction:ILE:123    NaN
hydroph_interaction:ILE:123     -1
Name: 24, dtype: object

>  <hbond:ILE:123>  (25) 
hbond:ILE:123    NaN
hbond:ILE:123     -1
Name: 24, dtype: object

>  <hydroph_interaction:VAL:124>  (25) 
hydroph_interaction:VAL:124    1.0
hydroph_interaction:VAL:124      1
Name: 24, dtype: object

>  <hbond:VAL:124>  (25) 
hbond:VAL:124    NaN
hbond:VAL:124     -1
Name: 24, dtype: object

>  <halogenbond:VAL:124>  (25) 
halogenbond:VAL:124    NaN
halogenbond:VAL:124     -1
Name: 24, dtype: object

>  <hbond:SER:125>  (25) 
hbond:SER:125    0
hbond:SER:125    0
Name: 24, dtype: object

>  <halogenbond:SER:125>  (25) 
halogenbond:SER:125    NaN
halogenbond:SER:125     -1
Name: 24, dtype: object

>  <hydroph_interaction:THR:126>  (25) 
hydroph_interaction:THR:126    NaN
hydroph_interaction:THR:126     -1
Name: 24, dtype: object

>  <hbond:THR:126>  (25) 
hbond:THR:126    0.0
hbond:THR:126      0
Name: 24, dtype: object

>  <halogenbond:THR:126>  (25) 
halogenbond:THR:126    NaN
halogenbond:THR:126     -1
Name: 24, dtype: object

>  <hbond:GLY:127>  (25) 
hbond:GLY:127    0
hbond:GLY:127    0
Name: 24, dtype: object

>  <halogenbond:GLY:127>  (25) 
halogenbond:GLY:127    NaN
halogenbond:GLY:127     -1
Name: 24, dtype: object

>  <hydroph_interaction:GLY:127>  (25) 
hydroph_interaction:GLY:127    NaN
hydroph_interaction:GLY:127     -1
Name: 24, dtype: object

>  <hbond:GLY:128>  (25) 
hbond:GLY:128    NaN
hbond:GLY:128     -1
Name: 24, dtype: object

>  <halogenbond:GLY:128>  (25) 
halogenbond:GLY:128    NaN
halogenbond:GLY:128     -1
Name: 24, dtype: object

>  <hydroph_interaction:GLY:128>  (25) 
hydroph_interaction:GLY:128    NaN
hydroph_interaction:GLY:128     -1
Name: 24, dtype: object

>  <hbond:ASN:129>  (25) 
hbond:ASN:129    NaN
hbond:ASN:129     -1
Name: 24, dtype: object

>  <hydroph_interaction:ASN:129>  (25) 
hydroph_interaction:ASN:129    NaN
hydroph_interaction:ASN:129     -1
Name: 24, dtype: object

>  <halogenbond:ASN:129>  (25) 
halogenbond:ASN:129    NaN
halogenbond:ASN:129     -1
Name: 24, dtype: object

>  <hbond:GLY:130>  (25) 
hbond:GLY:130    NaN
hbond:GLY:130     -1
Name: 24, dtype: object

>  <hbond:LEU:131>  (25) 
hbond:LEU:131    NaN
hbond:LEU:131     -1
Name: 24, dtype: object

>  <hydroph_interaction:LEU:131>  (25) 
hydroph_interaction:LEU:131    NaN
hydroph_interaction:LEU:131     -1
Name: 24, dtype: object

>  <halogenbond:LEU:131>  (25) 
halogenbond:LEU:131    NaN
halogenbond:LEU:131     -1
Name: 24, dtype: object

>  <hydroph_interaction:VAL:132>  (25) 
hydroph_interaction:VAL:132    NaN
hydroph_interaction:VAL:132     -1
Name: 24, dtype: object

>  <hbond:VAL:132>  (25) 
hbond:VAL:132    NaN
hbond:VAL:132     -1
Name: 24, dtype: object

>  <hbond:GLY:133>  (25) 
hbond:GLY:133    NaN
hbond:GLY:133     -1
Name: 24, dtype: object

>  <halogenbond:GLY:133>  (25) 
halogenbond:GLY:133    NaN
halogenbond:GLY:133     -1
Name: 24, dtype: object

>  <hydroph_interaction:PHE:134>  (25) 
hydroph_interaction:PHE:134    NaN
hydroph_interaction:PHE:134     -1
Name: 24, dtype: object

>  <hbond:PHE:134>  (25) 
hbond:PHE:134    NaN
hbond:PHE:134     -1
Name: 24, dtype: object

>  <pistack:PHE:134>  (25) 
pistack:PHE:134    NaN
pistack:PHE:134     -1
Name: 24, dtype: object

>  <pication:PHE:134>  (25) 
pication:PHE:134    NaN
pication:PHE:134     -1
Name: 24, dtype: object

>  <halogenbond:PHE:134>  (25) 
halogenbond:PHE:134    NaN
halogenbond:PHE:134     -1
Name: 24, dtype: object

>  <hydroph_interaction:ALA:135>  (25) 
hydroph_interaction:ALA:135    NaN
hydroph_interaction:ALA:135     -1
Name: 24, dtype: object

>  <hbond:ALA:135>  (25) 
hbond:ALA:135    NaN
hbond:ALA:135     -1
Name: 24, dtype: object

$$$$
Z5485425157
     RDKit          3D

 34 34  0  0  0  0  0  0  0  0999 V2000
   13.4470   15.9820   20.8190 C   0  0  0  0  0  0  0  0  0  0  0  0
   12.7920   14.8950   20.4480 C   0  0  0  0  0  0  0  0  0  0  0  0
   12.1770   14.0690   21.5390 C   0  0  0  0  0  0  0  0  0  0  0  0
   10.3610   14.1550   21.4990 S   0  0  0  0  0  4  0  0  0  0  0  0
    9.9260   15.4910   20.9830 O   0  0  0  0  0  0  0  0  0  0  0  0
   10.1280   13.8510   23.1830 N   0  0  0  0  0  0  0  0  0  0  0  0
   11.1600   14.4200   23.9690 C   0  0  0  0  0  0  0  0  0  0  0  0
    9.6290   12.5800   23.4580 C   0  0  0  0  0  0  0  0  0  0  0  0
    8.5050   12.4380   24.4140 C   0  0  0  0  0  0  0  0  0  0  0  0
    8.0200   11.1660   24.6990 C   0  0  0  0  0  0  0  0  0  0  0  0
    6.8820   11.0040   25.6550 C   0  0  0  0  0  0  0  0  0  0  0  0
    8.6020   10.0550   24.0780 C   0  0  0  0  0  0  0  0  0  0  0  0
    9.6450   10.1890   23.1770 C   0  0  0  0  0  0  0  0  0  0  0  0
   10.2380    9.0020   22.5170 C   0  0  0  0  0  0  0  0  0  0  0  0
   10.1460   11.4430   22.8770 C   0  0  0  0  0  0  0  0  0  0  0  0
   14.2840   16.3160   20.2110 H   0  0  0  0  0  0  0  0  0  0  0  0
   12.8310   16.8650   21.0030 H   0  0  0  0  0  0  0  0  0  0  0  0
   13.8900   15.7370   21.7870 H   0  0  0  0  0  0  0  0  0  0  0  0
   11.9740   15.1980   19.7880 H   0  0  0  0  0  0  0  0  0  0  0  0
   13.4640   14.2720   19.8480 H   0  0  0  0  0  0  0  0  0  0  0  0
   12.5130   14.4600   22.5050 H   0  0  0  0  0  0  0  0  0  0  0  0
   12.4920   13.0330   21.4650 H   0  0  0  0  0  0  0  0  0  0  0  0
   11.5980   15.3080   23.4950 H   0  0  0  0  0  0  0  0  0  0  0  0
   10.7760   14.7150   24.9530 H   0  0  0  0  0  0  0  0  0  0  0  0
   11.9660   13.6930   24.1350 H   0  0  0  0  0  0  0  0  0  0  0  0
    8.0580   13.3040   24.8950 H   0  0  0  0  0  0  0  0  0  0  0  0
    7.1950   11.1140   26.6890 H   0  0  0  0  0  0  0  0  0  0  0  0
    6.4280   10.0160   25.5590 H   0  0  0  0  0  0  0  0  0  0  0  0
    6.1160   11.7620   25.4740 H   0  0  0  0  0  0  0  0  0  0  0  0
    8.2250    9.0650   24.3010 H   0  0  0  0  0  0  0  0  0  0  0  0
    9.4610    8.3360   22.1370 H   0  0  0  0  0  0  0  0  0  0  0  0
   10.8430    9.3290   21.6690 H   0  0  0  0  0  0  0  0  0  0  0  0
   10.8960    8.4490   23.1960 H   0  0  0  0  0  0  0  0  0  0  0  0
   10.9610   11.5390   22.1760 H   0  0  0  0  0  0  0  0  0  0  0  0
  1  2  1  0
  2  3  1  0
  3  4  1  0
  4  5  2  0
  4  6  1  0
  6  7  1  0
  6  8  1  0
  8  9  2  0
  9 10  1  0
 10 11  1  0
 10 12  2  0
 12 13  1  0
 13 14  1  0
 13 15  2  0
 15  8  1  0
  1 16  1  0
  1 17  1  0
  1 18  1  0
  2 19  1  0
  2 20  1  0
  3 21  1  0
  3 22  1  0
  7 23  1  0
  7 24  1  0
  7 25  1  0
  9 26  1  0
 11 27  1  0
 11 28  1  0
 11 29  1  0
 12 30  1  0
 14 31  1  0
 14 32  1  0
 14 33  1  0
 15 34  1  0
A    1
 C1 
A    2
 C2 
A    3
 C3 
A    4
 S1 
A    5
 O1 
A    6
 N1 
A    7
 C4 
A    8
 C5 
A    9
 C6 
A   10
 C7 
A   11
 C8 
A   12
 C9 
A   13
 C10
A   14
 C11
A   15
 C12
A   16
 H1 
A   17
 H2 
A   18
 H3 
A   19
 H4 
A   20
 H5 
A   21
 H6 
A   22
 H7 
A   23
 H8 
A   24
 H9 
A   25
 H10
A   26
 H11
A   27
 H12
A   28
 H13
A   29
 H14
A   30
 H15
A   31
 H16
A   32
 H17
A   33
 H18
A   34
 H19
M  END
>  <ref_pdb>  (26) 
x0310_0A

>  <ref_mols>  (26) 
x0451_0A,x0739_0A

>  <original SMILES>  (26) 
CCCS(=O)N(C)c1cc(C)cc(C)c1

>  <rationale>  (26) 
info halogenbond:G127+S125+E85+E106+E88+T126+P107+H104+Y64+C65+S87+N129+F83+R93+L131+I82+G128+P91+N19+H21+V84+G133+Y90+Y89+H97+L81+F134+L98+R20+G103+S66+S67+S7+G108+R38+V124+M99+S36; hbond:S87+Q95+G108+G103+G130+L131+N129+N19+H104+R68+V124+R93+P91+F83+S67+S7+S66+G112+G133+V132+R20+Y89+S77+A135+Y63+A92+A101+M99+F134+L100+I82+Y64+S36+L98+V84+L81+Y94+S80+R38+S37+V102+G8+I123+G111+I113+L114+C65+L22+S96; hydroph_interaction:V124+Y90+Y89+H21+P107+N129+D39+N19+L40+I123+A135+Q95+I82+L100+L98+L131+F83+R93+F134+H104+R20+A86+V74+P91+A101+F76+M99+L114+A92+Y94+R68+Y72+Y64+V18+V102+W28+G127+G128+L81; pication:H21+H104+R93+Y63+F134+Y90+R68+F83+R20; pistack:H21+Y89+Y90+H104+F134+Y63+F83+Y94; saltbridge:D39+R93+H104+E106+D109+E85+E88+R68+R20; 

>  <intxn_cluster>  (26) 
-1

>  <intxn_cluster_rank>  (26) 
-1

>  <N_interactions>  (26) 
6

>  <∆∆G>  (26) 
-13.982441

>  <$/mg>  (26) 
0.0

>  <comRMSD>  (26) 
0.906144

>  <N_rotatable_bonds>  (26) 
8

>  <deep_P1_sidechain>  (26) 
nan

>  <farthest_distance_to_substrate>  (26) 
2.534422

>  <hbond:SER:7>  (26) 
hbond:SER:7    NaN
hbond:SER:7     -1
Name: 25, dtype: object

>  <halogenbond:SER:7>  (26) 
halogenbond:SER:7    NaN
halogenbond:SER:7     -1
Name: 25, dtype: object

>  <hbond:GLY:8>  (26) 
hbond:GLY:8    NaN
hbond:GLY:8     -1
Name: 25, dtype: object

>  <hydroph_interaction:VAL:18>  (26) 
hydroph_interaction:VAL:18    NaN
hydroph_interaction:VAL:18     -1
Name: 25, dtype: object

>  <hbond:ASN:19>  (26) 
hbond:ASN:19    NaN
hbond:ASN:19     -1
Name: 25, dtype: object

>  <hydroph_interaction:ASN:19>  (26) 
hydroph_interaction:ASN:19    NaN
hydroph_interaction:ASN:19     -1
Name: 25, dtype: object

>  <halogenbond:ASN:19>  (26) 
halogenbond:ASN:19    NaN
halogenbond:ASN:19     -1
Name: 25, dtype: object

>  <hbond:ARG:20>  (26) 
hbond:ARG:20    NaN
hbond:ARG:20     -1
Name: 25, dtype: object

>  <hydroph_interaction:ARG:20>  (26) 
hydroph_interaction:ARG:20    NaN
hydroph_interaction:ARG:20     -1
Name: 25, dtype: object

>  <saltbridge:ARG:20>  (26) 
saltbridge:ARG:20    NaN
saltbridge:ARG:20     -1
Name: 25, dtype: object

>  <halogenbond:ARG:20>  (26) 
halogenbond:ARG:20    NaN
halogenbond:ARG:20     -1
Name: 25, dtype: object

>  <pication:ARG:20>  (26) 
pication:ARG:20    NaN
pication:ARG:20     -1
Name: 25, dtype: object

>  <hbond:HIS:21>  (26) 
hbond:HIS:21    0.0
hbond:HIS:21      0
Name: 25, dtype: object

>  <hydroph_interaction:HIS:21>  (26) 
hydroph_interaction:HIS:21    1.0
hydroph_interaction:HIS:21      1
Name: 25, dtype: object

>  <pistack:HIS:21>  (26) 
pistack:HIS:21    NaN
pistack:HIS:21     -1
Name: 25, dtype: object

>  <pication:HIS:21>  (26) 
pication:HIS:21    NaN
pication:HIS:21     -1
Name: 25, dtype: object

>  <saltbridge:HIS:21>  (26) 
saltbridge:HIS:21    0.0
saltbridge:HIS:21      0
Name: 25, dtype: object

>  <halogenbond:HIS:21>  (26) 
halogenbond:HIS:21    NaN
halogenbond:HIS:21     -1
Name: 25, dtype: object

>  <hydroph_interaction:LEU:22>  (26) 
hydroph_interaction:LEU:22    0.0
hydroph_interaction:LEU:22      0
Name: 25, dtype: object

>  <hbond:LEU:22>  (26) 
hbond:LEU:22    NaN
hbond:LEU:22     -1
Name: 25, dtype: object

>  <hydroph_interaction:TRP:28>  (26) 
hydroph_interaction:TRP:28    NaN
hydroph_interaction:TRP:28     -1
Name: 25, dtype: object

>  <hbond:SER:36>  (26) 
hbond:SER:36    NaN
hbond:SER:36     -1
Name: 25, dtype: object

>  <halogenbond:SER:36>  (26) 
halogenbond:SER:36    NaN
halogenbond:SER:36     -1
Name: 25, dtype: object

>  <hbond:SER:37>  (26) 
hbond:SER:37    NaN
hbond:SER:37     -1
Name: 25, dtype: object

>  <hbond:ARG:38>  (26) 
hbond:ARG:38    NaN
hbond:ARG:38     -1
Name: 25, dtype: object

>  <halogenbond:ARG:38>  (26) 
halogenbond:ARG:38    NaN
halogenbond:ARG:38     -1
Name: 25, dtype: object

>  <saltbridge:ASP:39>  (26) 
saltbridge:ASP:39    NaN
saltbridge:ASP:39     -1
Name: 25, dtype: object

>  <halogenbond:ASP:39>  (26) 
halogenbond:ASP:39    0.0
halogenbond:ASP:39      0
Name: 25, dtype: object

>  <hbond:ASP:39>  (26) 
hbond:ASP:39    0.0
hbond:ASP:39      0
Name: 25, dtype: object

>  <hydroph_interaction:ASP:39>  (26) 
hydroph_interaction:ASP:39    NaN
hydroph_interaction:ASP:39     -1
Name: 25, dtype: object

>  <hydroph_interaction:LEU:40>  (26) 
hydroph_interaction:LEU:40    NaN
hydroph_interaction:LEU:40     -1
Name: 25, dtype: object

>  <hydroph_interaction:TYR:63>  (26) 
hydroph_interaction:TYR:63    0.0
hydroph_interaction:TYR:63      0
Name: 25, dtype: object

>  <hbond:TYR:63>  (26) 
hbond:TYR:63    NaN
hbond:TYR:63     -1
Name: 25, dtype: object

>  <pistack:TYR:63>  (26) 
pistack:TYR:63    NaN
pistack:TYR:63     -1
Name: 25, dtype: object

>  <pication:TYR:63>  (26) 
pication:TYR:63    NaN
pication:TYR:63     -1
Name: 25, dtype: object

>  <halogenbond:TYR:64>  (26) 
halogenbond:TYR:64    NaN
halogenbond:TYR:64     -1
Name: 25, dtype: object

>  <hbond:TYR:64>  (26) 
hbond:TYR:64    NaN
hbond:TYR:64     -1
Name: 25, dtype: object

>  <hydroph_interaction:TYR:64>  (26) 
hydroph_interaction:TYR:64    NaN
hydroph_interaction:TYR:64     -1
Name: 25, dtype: object

>  <halogenbond:CYS:65>  (26) 
halogenbond:CYS:65    NaN
halogenbond:CYS:65     -1
Name: 25, dtype: object

>  <hbond:CYS:65>  (26) 
hbond:CYS:65    NaN
hbond:CYS:65     -1
Name: 25, dtype: object

>  <hbond:SER:66>  (26) 
hbond:SER:66    NaN
hbond:SER:66     -1
Name: 25, dtype: object

>  <halogenbond:SER:66>  (26) 
halogenbond:SER:66    NaN
halogenbond:SER:66     -1
Name: 25, dtype: object

>  <hbond:SER:67>  (26) 
hbond:SER:67    NaN
hbond:SER:67     -1
Name: 25, dtype: object

>  <halogenbond:SER:67>  (26) 
halogenbond:SER:67    NaN
halogenbond:SER:67     -1
Name: 25, dtype: object

>  <hbond:ARG:68>  (26) 
hbond:ARG:68    NaN
hbond:ARG:68     -1
Name: 25, dtype: object

>  <saltbridge:ARG:68>  (26) 
saltbridge:ARG:68    NaN
saltbridge:ARG:68     -1
Name: 25, dtype: object

>  <hydroph_interaction:ARG:68>  (26) 
hydroph_interaction:ARG:68    NaN
hydroph_interaction:ARG:68     -1
Name: 25, dtype: object

>  <pication:ARG:68>  (26) 
pication:ARG:68    NaN
pication:ARG:68     -1
Name: 25, dtype: object

>  <hydroph_interaction:TYR:72>  (26) 
hydroph_interaction:TYR:72    NaN
hydroph_interaction:TYR:72     -1
Name: 25, dtype: object

>  <hydroph_interaction:VAL:74>  (26) 
hydroph_interaction:VAL:74    NaN
hydroph_interaction:VAL:74     -1
Name: 25, dtype: object

>  <hydroph_interaction:PHE:76>  (26) 
hydroph_interaction:PHE:76    NaN
hydroph_interaction:PHE:76     -1
Name: 25, dtype: object

>  <hbond:SER:77>  (26) 
hbond:SER:77    NaN
hbond:SER:77     -1
Name: 25, dtype: object

>  <hbond:SER:80>  (26) 
hbond:SER:80    NaN
hbond:SER:80     -1
Name: 25, dtype: object

>  <hbond:LEU:81>  (26) 
hbond:LEU:81    NaN
hbond:LEU:81     -1
Name: 25, dtype: object

>  <halogenbond:LEU:81>  (26) 
halogenbond:LEU:81    NaN
halogenbond:LEU:81     -1
Name: 25, dtype: object

>  <hydroph_interaction:LEU:81>  (26) 
hydroph_interaction:LEU:81    NaN
hydroph_interaction:LEU:81     -1
Name: 25, dtype: object

>  <hydroph_interaction:ILE:82>  (26) 
hydroph_interaction:ILE:82    NaN
hydroph_interaction:ILE:82     -1
Name: 25, dtype: object

>  <halogenbond:ILE:82>  (26) 
halogenbond:ILE:82    NaN
halogenbond:ILE:82     -1
Name: 25, dtype: object

>  <hbond:ILE:82>  (26) 
hbond:ILE:82    NaN
hbond:ILE:82     -1
Name: 25, dtype: object

>  <hbond:PHE:83>  (26) 
hbond:PHE:83    NaN
hbond:PHE:83     -1
Name: 25, dtype: object

>  <hydroph_interaction:PHE:83>  (26) 
hydroph_interaction:PHE:83    NaN
hydroph_interaction:PHE:83     -1
Name: 25, dtype: object

>  <halogenbond:PHE:83>  (26) 
halogenbond:PHE:83    NaN
halogenbond:PHE:83     -1
Name: 25, dtype: object

>  <pistack:PHE:83>  (26) 
pistack:PHE:83    NaN
pistack:PHE:83     -1
Name: 25, dtype: object

>  <pication:PHE:83>  (26) 
pication:PHE:83    NaN
pication:PHE:83     -1
Name: 25, dtype: object

>  <hydroph_interaction:VAL:84>  (26) 
hydroph_interaction:VAL:84    0.0
hydroph_interaction:VAL:84      0
Name: 25, dtype: object

>  <halogenbond:VAL:84>  (26) 
halogenbond:VAL:84    NaN
halogenbond:VAL:84     -1
Name: 25, dtype: object

>  <hbond:VAL:84>  (26) 
hbond:VAL:84    NaN
hbond:VAL:84     -1
Name: 25, dtype: object

>  <hydroph_interaction:GLU:85>  (26) 
hydroph_interaction:GLU:85    0.0
hydroph_interaction:GLU:85      0
Name: 25, dtype: object

>  <hbond:GLU:85>  (26) 
hbond:GLU:85    0.0
hbond:GLU:85      0
Name: 25, dtype: object

>  <halogenbond:GLU:85>  (26) 
halogenbond:GLU:85    NaN
halogenbond:GLU:85     -1
Name: 25, dtype: object

>  <saltbridge:GLU:85>  (26) 
saltbridge:GLU:85    NaN
saltbridge:GLU:85     -1
Name: 25, dtype: object

>  <halogenbond:ALA:86>  (26) 
halogenbond:ALA:86    0.0
halogenbond:ALA:86      0
Name: 25, dtype: object

>  <hbond:ALA:86>  (26) 
hbond:ALA:86    0.0
hbond:ALA:86      0
Name: 25, dtype: object

>  <hydroph_interaction:ALA:86>  (26) 
hydroph_interaction:ALA:86    NaN
hydroph_interaction:ALA:86     -1
Name: 25, dtype: object

>  <hbond:SER:87>  (26) 
hbond:SER:87    1
hbond:SER:87    1
Name: 25, dtype: object

>  <halogenbond:SER:87>  (26) 
halogenbond:SER:87    NaN
halogenbond:SER:87     -1
Name: 25, dtype: object

>  <hbond:GLU:88>  (26) 
hbond:GLU:88    0.0
hbond:GLU:88      0
Name: 25, dtype: object

>  <hydroph_interaction:GLU:88>  (26) 
hydroph_interaction:GLU:88    0.0
hydroph_interaction:GLU:88      0
Name: 25, dtype: object

>  <halogenbond:GLU:88>  (26) 
halogenbond:GLU:88    NaN
halogenbond:GLU:88     -1
Name: 25, dtype: object

>  <saltbridge:GLU:88>  (26) 
saltbridge:GLU:88    NaN
saltbridge:GLU:88     -1
Name: 25, dtype: object

>  <hydroph_interaction:TYR:89>  (26) 
hydroph_interaction:TYR:89    1.0
hydroph_interaction:TYR:89      1
Name: 25, dtype: object

>  <pistack:TYR:89>  (26) 
pistack:TYR:89    NaN
pistack:TYR:89     -1
Name: 25, dtype: object

>  <hbond:TYR:89>  (26) 
hbond:TYR:89    NaN
hbond:TYR:89     -1
Name: 25, dtype: object

>  <halogenbond:TYR:89>  (26) 
halogenbond:TYR:89    NaN
halogenbond:TYR:89     -1
Name: 25, dtype: object

>  <hydroph_interaction:TYR:90>  (26) 
hydroph_interaction:TYR:90    1.0
hydroph_interaction:TYR:90      1
Name: 25, dtype: object

>  <hbond:TYR:90>  (26) 
hbond:TYR:90    0.0
hbond:TYR:90      0
Name: 25, dtype: object

>  <pistack:TYR:90>  (26) 
pistack:TYR:90    NaN
pistack:TYR:90     -1
Name: 25, dtype: object

>  <halogenbond:TYR:90>  (26) 
halogenbond:TYR:90    NaN
halogenbond:TYR:90     -1
Name: 25, dtype: object

>  <pication:TYR:90>  (26) 
pication:TYR:90    NaN
pication:TYR:90     -1
Name: 25, dtype: object

>  <hbond:PRO:91>  (26) 
hbond:PRO:91    NaN
hbond:PRO:91     -1
Name: 25, dtype: object

>  <hydroph_interaction:PRO:91>  (26) 
hydroph_interaction:PRO:91    NaN
hydroph_interaction:PRO:91     -1
Name: 25, dtype: object

>  <halogenbond:PRO:91>  (26) 
halogenbond:PRO:91    NaN
halogenbond:PRO:91     -1
Name: 25, dtype: object

>  <hbond:ALA:92>  (26) 
hbond:ALA:92    NaN
hbond:ALA:92     -1
Name: 25, dtype: object

>  <hydroph_interaction:ALA:92>  (26) 
hydroph_interaction:ALA:92    NaN
hydroph_interaction:ALA:92     -1
Name: 25, dtype: object

>  <saltbridge:ARG:93>  (26) 
saltbridge:ARG:93    NaN
saltbridge:ARG:93     -1
Name: 25, dtype: object

>  <hbond:ARG:93>  (26) 
hbond:ARG:93    NaN
hbond:ARG:93     -1
Name: 25, dtype: object

>  <hydroph_interaction:ARG:93>  (26) 
hydroph_interaction:ARG:93    NaN
hydroph_interaction:ARG:93     -1
Name: 25, dtype: object

>  <halogenbond:ARG:93>  (26) 
halogenbond:ARG:93    NaN
halogenbond:ARG:93     -1
Name: 25, dtype: object

>  <pication:ARG:93>  (26) 
pication:ARG:93    NaN
pication:ARG:93     -1
Name: 25, dtype: object

>  <hydroph_interaction:TYR:94>  (26) 
hydroph_interaction:TYR:94    NaN
hydroph_interaction:TYR:94     -1
Name: 25, dtype: object

>  <pistack:TYR:94>  (26) 
pistack:TYR:94    NaN
pistack:TYR:94     -1
Name: 25, dtype: object

>  <hbond:TYR:94>  (26) 
hbond:TYR:94    NaN
hbond:TYR:94     -1
Name: 25, dtype: object

>  <hbond:GLN:95>  (26) 
hbond:GLN:95    NaN
hbond:GLN:95     -1
Name: 25, dtype: object

>  <hydroph_interaction:GLN:95>  (26) 
hydroph_interaction:GLN:95    NaN
hydroph_interaction:GLN:95     -1
Name: 25, dtype: object

>  <halogenbond:GLN:95>  (26) 
halogenbond:GLN:95    0.0
halogenbond:GLN:95      0
Name: 25, dtype: object

>  <hbond:SER:96>  (26) 
hbond:SER:96    NaN
hbond:SER:96     -1
Name: 25, dtype: object

>  <halogenbond:HIS:97>  (26) 
halogenbond:HIS:97    NaN
halogenbond:HIS:97     -1
Name: 25, dtype: object

>  <hydroph_interaction:LEU:98>  (26) 
hydroph_interaction:LEU:98    NaN
hydroph_interaction:LEU:98     -1
Name: 25, dtype: object

>  <hbond:LEU:98>  (26) 
hbond:LEU:98    NaN
hbond:LEU:98     -1
Name: 25, dtype: object

>  <halogenbond:LEU:98>  (26) 
halogenbond:LEU:98    NaN
halogenbond:LEU:98     -1
Name: 25, dtype: object

>  <hbond:MET:99>  (26) 
hbond:MET:99    NaN
hbond:MET:99     -1
Name: 25, dtype: object

>  <hydroph_interaction:MET:99>  (26) 
hydroph_interaction:MET:99    NaN
hydroph_interaction:MET:99     -1
Name: 25, dtype: object

>  <halogenbond:MET:99>  (26) 
halogenbond:MET:99    NaN
halogenbond:MET:99     -1
Name: 25, dtype: object

>  <hydroph_interaction:LEU:100>  (26) 
hydroph_interaction:LEU:100    NaN
hydroph_interaction:LEU:100     -1
Name: 25, dtype: object

>  <hbond:LEU:100>  (26) 
hbond:LEU:100    NaN
hbond:LEU:100     -1
Name: 25, dtype: object

>  <hbond:ALA:101>  (26) 
hbond:ALA:101    NaN
hbond:ALA:101     -1
Name: 25, dtype: object

>  <hydroph_interaction:ALA:101>  (26) 
hydroph_interaction:ALA:101    NaN
hydroph_interaction:ALA:101     -1
Name: 25, dtype: object

>  <hydroph_interaction:VAL:102>  (26) 
hydroph_interaction:VAL:102    NaN
hydroph_interaction:VAL:102     -1
Name: 25, dtype: object

>  <hbond:VAL:102>  (26) 
hbond:VAL:102    NaN
hbond:VAL:102     -1
Name: 25, dtype: object

>  <hbond:GLY:103>  (26) 
hbond:GLY:103    NaN
hbond:GLY:103     -1
Name: 25, dtype: object

>  <halogenbond:GLY:103>  (26) 
halogenbond:GLY:103    NaN
halogenbond:GLY:103     -1
Name: 25, dtype: object

>  <hbond:HIS:104>  (26) 
hbond:HIS:104    NaN
hbond:HIS:104     -1
Name: 25, dtype: object

>  <saltbridge:HIS:104>  (26) 
saltbridge:HIS:104    NaN
saltbridge:HIS:104     -1
Name: 25, dtype: object

>  <pication:HIS:104>  (26) 
pication:HIS:104    NaN
pication:HIS:104     -1
Name: 25, dtype: object

>  <halogenbond:HIS:104>  (26) 
halogenbond:HIS:104    NaN
halogenbond:HIS:104     -1
Name: 25, dtype: object

>  <hydroph_interaction:HIS:104>  (26) 
hydroph_interaction:HIS:104    NaN
hydroph_interaction:HIS:104     -1
Name: 25, dtype: object

>  <pistack:HIS:104>  (26) 
pistack:HIS:104    NaN
pistack:HIS:104     -1
Name: 25, dtype: object

>  <halogenbond:SER:105>  (26) 
halogenbond:SER:105    0.0
halogenbond:SER:105      0
Name: 25, dtype: object

>  <hbond:SER:105>  (26) 
hbond:SER:105    0.0
hbond:SER:105      0
Name: 25, dtype: object

>  <hbond:GLU:106>  (26) 
hbond:GLU:106    0.0
hbond:GLU:106      0
Name: 25, dtype: object

>  <hydroph_interaction:GLU:106>  (26) 
hydroph_interaction:GLU:106    0.0
hydroph_interaction:GLU:106      0
Name: 25, dtype: object

>  <saltbridge:GLU:106>  (26) 
saltbridge:GLU:106    NaN
saltbridge:GLU:106     -1
Name: 25, dtype: object

>  <halogenbond:GLU:106>  (26) 
halogenbond:GLU:106    NaN
halogenbond:GLU:106     -1
Name: 25, dtype: object

>  <hydroph_interaction:PRO:107>  (26) 
hydroph_interaction:PRO:107    1
hydroph_interaction:PRO:107    1
Name: 25, dtype: object

>  <hbond:PRO:107>  (26) 
hbond:PRO:107    0.0
hbond:PRO:107      0
Name: 25, dtype: object

>  <halogenbond:PRO:107>  (26) 
halogenbond:PRO:107    NaN
halogenbond:PRO:107     -1
Name: 25, dtype: object

>  <hbond:GLY:108>  (26) 
hbond:GLY:108    NaN
hbond:GLY:108     -1
Name: 25, dtype: object

>  <halogenbond:GLY:108>  (26) 
halogenbond:GLY:108    NaN
halogenbond:GLY:108     -1
Name: 25, dtype: object

>  <hbond:ASP:109>  (26) 
hbond:ASP:109    0.0
hbond:ASP:109      0
Name: 25, dtype: object

>  <hydroph_interaction:ASP:109>  (26) 
hydroph_interaction:ASP:109    0.0
hydroph_interaction:ASP:109      0
Name: 25, dtype: object

>  <saltbridge:ASP:109>  (26) 
saltbridge:ASP:109    NaN
saltbridge:ASP:109     -1
Name: 25, dtype: object

>  <halogenbond:CYS:110>  (26) 
halogenbond:CYS:110    0.0
halogenbond:CYS:110      0
Name: 25, dtype: object

>  <hbond:CYS:110>  (26) 
hbond:CYS:110    0.0
hbond:CYS:110      0
Name: 25, dtype: object

>  <hbond:GLY:111>  (26) 
hbond:GLY:111    NaN
hbond:GLY:111     -1
Name: 25, dtype: object

>  <hbond:GLY:112>  (26) 
hbond:GLY:112    NaN
hbond:GLY:112     -1
Name: 25, dtype: object

>  <hbond:ILE:113>  (26) 
hbond:ILE:113    NaN
hbond:ILE:113     -1
Name: 25, dtype: object

>  <hydroph_interaction:LEU:114>  (26) 
hydroph_interaction:LEU:114    NaN
hydroph_interaction:LEU:114     -1
Name: 25, dtype: object

>  <hbond:LEU:114>  (26) 
hbond:LEU:114    NaN
hbond:LEU:114     -1
Name: 25, dtype: object

>  <hydroph_interaction:ILE:123>  (26) 
hydroph_interaction:ILE:123    NaN
hydroph_interaction:ILE:123     -1
Name: 25, dtype: object

>  <hbond:ILE:123>  (26) 
hbond:ILE:123    NaN
hbond:ILE:123     -1
Name: 25, dtype: object

>  <hydroph_interaction:VAL:124>  (26) 
hydroph_interaction:VAL:124    1.0
hydroph_interaction:VAL:124      1
Name: 25, dtype: object

>  <hbond:VAL:124>  (26) 
hbond:VAL:124    NaN
hbond:VAL:124     -1
Name: 25, dtype: object

>  <halogenbond:VAL:124>  (26) 
halogenbond:VAL:124    NaN
halogenbond:VAL:124     -1
Name: 25, dtype: object

>  <hbond:SER:125>  (26) 
hbond:SER:125    0
hbond:SER:125    0
Name: 25, dtype: object

>  <halogenbond:SER:125>  (26) 
halogenbond:SER:125    NaN
halogenbond:SER:125     -1
Name: 25, dtype: object

>  <hydroph_interaction:THR:126>  (26) 
hydroph_interaction:THR:126    0.0
hydroph_interaction:THR:126      0
Name: 25, dtype: object

>  <hbond:THR:126>  (26) 
hbond:THR:126    0.0
hbond:THR:126      0
Name: 25, dtype: object

>  <halogenbond:THR:126>  (26) 
halogenbond:THR:126    NaN
halogenbond:THR:126     -1
Name: 25, dtype: object

>  <hbond:GLY:127>  (26) 
hbond:GLY:127    0
hbond:GLY:127    0
Name: 25, dtype: object

>  <halogenbond:GLY:127>  (26) 
halogenbond:GLY:127    NaN
halogenbond:GLY:127     -1
Name: 25, dtype: object

>  <hydroph_interaction:GLY:127>  (26) 
hydroph_interaction:GLY:127    NaN
hydroph_interaction:GLY:127     -1
Name: 25, dtype: object

>  <hbond:GLY:128>  (26) 
hbond:GLY:128    0.0
hbond:GLY:128      0
Name: 25, dtype: object

>  <halogenbond:GLY:128>  (26) 
halogenbond:GLY:128    NaN
halogenbond:GLY:128     -1
Name: 25, dtype: object

>  <hydroph_interaction:GLY:128>  (26) 
hydroph_interaction:GLY:128    NaN
hydroph_interaction:GLY:128     -1
Name: 25, dtype: object

>  <hbond:ASN:129>  (26) 
hbond:ASN:129    NaN
hbond:ASN:129     -1
Name: 25, dtype: object

>  <hydroph_interaction:ASN:129>  (26) 
hydroph_interaction:ASN:129    NaN
hydroph_interaction:ASN:129     -1
Name: 25, dtype: object

>  <halogenbond:ASN:129>  (26) 
halogenbond:ASN:129    NaN
halogenbond:ASN:129     -1
Name: 25, dtype: object

>  <hbond:GLY:130>  (26) 
hbond:GLY:130    NaN
hbond:GLY:130     -1
Name: 25, dtype: object

>  <hbond:LEU:131>  (26) 
hbond:LEU:131    NaN
hbond:LEU:131     -1
Name: 25, dtype: object

>  <hydroph_interaction:LEU:131>  (26) 
hydroph_interaction:LEU:131    NaN
hydroph_interaction:LEU:131     -1
Name: 25, dtype: object

>  <halogenbond:LEU:131>  (26) 
halogenbond:LEU:131    NaN
halogenbond:LEU:131     -1
Name: 25, dtype: object

>  <hydroph_interaction:VAL:132>  (26) 
hydroph_interaction:VAL:132    0.0
hydroph_interaction:VAL:132      0
Name: 25, dtype: object

>  <hbond:VAL:132>  (26) 
hbond:VAL:132    NaN
hbond:VAL:132     -1
Name: 25, dtype: object

>  <hbond:GLY:133>  (26) 
hbond:GLY:133    NaN
hbond:GLY:133     -1
Name: 25, dtype: object

>  <halogenbond:GLY:133>  (26) 
halogenbond:GLY:133    NaN
halogenbond:GLY:133     -1
Name: 25, dtype: object

>  <hydroph_interaction:PHE:134>  (26) 
hydroph_interaction:PHE:134    NaN
hydroph_interaction:PHE:134     -1
Name: 25, dtype: object

>  <hbond:PHE:134>  (26) 
hbond:PHE:134    NaN
hbond:PHE:134     -1
Name: 25, dtype: object

>  <pistack:PHE:134>  (26) 
pistack:PHE:134    NaN
pistack:PHE:134     -1
Name: 25, dtype: object

>  <pication:PHE:134>  (26) 
pication:PHE:134    NaN
pication:PHE:134     -1
Name: 25, dtype: object

>  <halogenbond:PHE:134>  (26) 
halogenbond:PHE:134    NaN
halogenbond:PHE:134     -1
Name: 25, dtype: object

>  <hydroph_interaction:ALA:135>  (26) 
hydroph_interaction:ALA:135    NaN
hydroph_interaction:ALA:135     -1
Name: 25, dtype: object

>  <hbond:ALA:135>  (26) 
hbond:ALA:135    NaN
hbond:ALA:135     -1
Name: 25, dtype: object

$$$$
Z1728826271
     RDKit          3D

 27 28  0  0  0  0  0  0  0  0999 V2000
   12.2810   14.6820   21.8320 C   0  0  0  0  0  0  0  0  0  0  0  0
   11.1440   14.2170   22.7230 C   0  0  0  0  0  0  0  0  0  0  0  0
   11.5380   14.1110   24.0550 C   0  0  0  0  0  0  0  0  0  0  0  0
   10.6420   12.9360   22.2670 N   0  0  0  0  0  0  0  0  0  0  0  0
    9.8820   12.0440   23.0320 C   0  0  0  0  0  0  0  0  0  0  0  0
   10.0690   10.6770   22.9270 C   0  0  0  0  0  0  0  0  0  0  0  0
    9.3280    9.8070   23.6700 C   0  0  0  0  0  0  0  0  0  0  0  0
    8.2980   10.2730   24.6120 C   0  0  0  0  0  0  0  0  0  0  0  0
    8.1020   11.6260   24.7210 C   0  0  0  0  0  0  0  0  0  0  0  0
    8.8840   12.4780   23.9420 C   0  0  0  0  0  0  0  0  0  0  0  0
    8.4640   13.7500   24.2630 N   0  0  0  0  0  0  0  0  0  0  0  0
    7.4620   13.7180   25.2020 C   0  0  0  0  0  0  0  0  0  0  0  0
    7.2200   12.4070   25.5030 C   0  0  0  0  0  0  0  0  0  0  0  0
   13.1950   14.8370   22.4130 H   0  0  0  0  0  0  0  0  0  0  0  0
   12.4960   13.9320   21.0620 H   0  0  0  0  0  0  0  0  0  0  0  0
   12.0400   15.6400   21.3560 H   0  0  0  0  0  0  0  0  0  0  0  0
   10.3460   14.9430   22.6550 H   0  0  0  0  0  0  0  0  0  0  0  0
   12.3420   13.4210   24.2900 H   0  0  0  0  0  0  0  0  0  0  0  0
   10.6860   13.8090   24.6710 H   0  0  0  0  0  0  0  0  0  0  0  0
   11.8560   15.0970   24.4170 H   0  0  0  0  0  0  0  0  0  0  0  0
   10.9900   12.5960   21.3780 H   0  0  0  0  0  0  0  0  0  0  0  0
   10.8080   10.2670   22.2500 H   0  0  0  0  0  0  0  0  0  0  0  0
    9.5100    8.7680   23.5580 H   0  0  0  0  0  0  0  0  0  0  0  0
    7.7150    9.5820   25.1950 H   0  0  0  0  0  0  0  0  0  0  0  0
    8.8460   14.5880   23.8580 H   0  0  0  0  0  0  0  0  0  0  0  0
    7.0160   14.6330   25.5670 H   0  0  0  0  0  0  0  0  0  0  0  0
    6.4860   12.0430   26.2090 H   0  0  0  0  0  0  0  0  0  0  0  0
  1  2  1  0
  2  3  1  0
  2  4  1  0
  4  5  1  0
  5  6  2  0
  6  7  1  0
  7  8  2  0
  8  9  1  0
  9 10  2  0
 10 11  1  0
 11 12  1  0
 12 13  2  0
 10  5  1  0
 13  9  1  0
  1 14  1  0
  1 15  1  0
  1 16  1  0
  2 17  1  0
  3 18  1  0
  3 19  1  0
  3 20  1  0
  4 21  1  0
  6 22  1  0
  7 23  1  0
  8 24  1  0
 11 25  1  0
 12 26  1  0
 13 27  1  0
A    1
 C1 
A    2
 C2 
A    3
 C3 
A    4
 N1 
A    5
 C4 
A    6
 C5 
A    7
 C6 
A    8
 C7 
A    9
 C8 
A   10
 C9 
A   11
 N2 
A   12
 C10
A   13
 C11
A   14
 H1 
A   15
 H2 
A   16
 H3 
A   17
 H4 
A   18
 H5 
A   19
 H6 
A   20
 H7 
A   21
 H8 
A   22
 H9 
A   23
 H10
A   24
 H11
A   25
 H12
A   26
 H13
A   27
 H14
M  END
>  <ref_pdb>  (27) 
x0310_0A

>  <ref_mols>  (27) 
x0554_0A,x0739_0A

>  <original SMILES>  (27) 
CC(C)Nc1cccc2cc[nH]c12

>  <rationale>  (27) 
info halogenbond:C110+G127+D39+A86+S125+E85+Q95+E106+E88+T126+P107+H104+Y64+C65+S87+N129+F83+R93+L131+I82+G128+P91+N19+H21+V84+G133+Y90+Y89+H97+L81+F134+L98+R20+G103+S66+S67+S7+G108+R38+V124+M99+S36; hbond:S125+Y90+Q95+D39+A86+E85+G108+G103+G128+G130+L131+N129+N19+H104+R68+V124+R93+P91+F83+S67+S7+S66+G112+G133+V132+R20+Y89+S77+A135+Y63+A92+A101+M99+F134+L100+I82+Y64+S36+L98+V84+L81+Y94+S80+R38+S37+V102+G8+I123+G111+I113+L114+C65+L22+S96; hydroph_interaction:V84+T126+H21+P107+L22+E85+E106+N129+D39+N19+L40+I123+A135+Q95+I82+L100+L98+L131+F83+R93+V132+Y63+F134+H104+R20+A86+V74+P91+A101+F76+M99+L114+A92+Y94+R68+Y72+Y64+V18+V102+W28+G127+G128+L81; pication:H21+H104+R93+Y63+F134+Y90+R68+F83+R20; pistack:H21+Y89+Y90+H104+F134+Y63+F83+Y94; saltbridge:D39+R93+H104+E106+D109+E85+E88+R68+R20; 

>  <intxn_cluster>  (27) 
-1

>  <intxn_cluster_rank>  (27) 
-1

>  <N_interactions>  (27) 
3

>  <∆∆G>  (27) 
-9.28074

>  <$/mg>  (27) 
0.0

>  <comRMSD>  (27) 
0.755152

>  <N_rotatable_bonds>  (27) 
4

>  <deep_P1_sidechain>  (27) 
nan

>  <farthest_distance_to_substrate>  (27) 
2.496754

>  <hbond:SER:7>  (27) 
hbond:SER:7    NaN
hbond:SER:7     -1
Name: 26, dtype: object

>  <halogenbond:SER:7>  (27) 
halogenbond:SER:7    NaN
halogenbond:SER:7     -1
Name: 26, dtype: object

>  <hbond:GLY:8>  (27) 
hbond:GLY:8    NaN
hbond:GLY:8     -1
Name: 26, dtype: object

>  <hydroph_interaction:VAL:18>  (27) 
hydroph_interaction:VAL:18    NaN
hydroph_interaction:VAL:18     -1
Name: 26, dtype: object

>  <hbond:ASN:19>  (27) 
hbond:ASN:19    NaN
hbond:ASN:19     -1
Name: 26, dtype: object

>  <hydroph_interaction:ASN:19>  (27) 
hydroph_interaction:ASN:19    NaN
hydroph_interaction:ASN:19     -1
Name: 26, dtype: object

>  <halogenbond:ASN:19>  (27) 
halogenbond:ASN:19    NaN
halogenbond:ASN:19     -1
Name: 26, dtype: object

>  <hbond:ARG:20>  (27) 
hbond:ARG:20    NaN
hbond:ARG:20     -1
Name: 26, dtype: object

>  <hydroph_interaction:ARG:20>  (27) 
hydroph_interaction:ARG:20    NaN
hydroph_interaction:ARG:20     -1
Name: 26, dtype: object

>  <saltbridge:ARG:20>  (27) 
saltbridge:ARG:20    NaN
saltbridge:ARG:20     -1
Name: 26, dtype: object

>  <halogenbond:ARG:20>  (27) 
halogenbond:ARG:20    NaN
halogenbond:ARG:20     -1
Name: 26, dtype: object

>  <pication:ARG:20>  (27) 
pication:ARG:20    NaN
pication:ARG:20     -1
Name: 26, dtype: object

>  <hbond:HIS:21>  (27) 
hbond:HIS:21    0.0
hbond:HIS:21      0
Name: 26, dtype: object

>  <hydroph_interaction:HIS:21>  (27) 
hydroph_interaction:HIS:21    NaN
hydroph_interaction:HIS:21     -1
Name: 26, dtype: object

>  <pistack:HIS:21>  (27) 
pistack:HIS:21    NaN
pistack:HIS:21     -1
Name: 26, dtype: object

>  <pication:HIS:21>  (27) 
pication:HIS:21    NaN
pication:HIS:21     -1
Name: 26, dtype: object

>  <saltbridge:HIS:21>  (27) 
saltbridge:HIS:21    0.0
saltbridge:HIS:21      0
Name: 26, dtype: object

>  <halogenbond:HIS:21>  (27) 
halogenbond:HIS:21    NaN
halogenbond:HIS:21     -1
Name: 26, dtype: object

>  <hydroph_interaction:LEU:22>  (27) 
hydroph_interaction:LEU:22    NaN
hydroph_interaction:LEU:22     -1
Name: 26, dtype: object

>  <hbond:LEU:22>  (27) 
hbond:LEU:22    NaN
hbond:LEU:22     -1
Name: 26, dtype: object

>  <hydroph_interaction:TRP:28>  (27) 
hydroph_interaction:TRP:28    NaN
hydroph_interaction:TRP:28     -1
Name: 26, dtype: object

>  <hbond:SER:36>  (27) 
hbond:SER:36    NaN
hbond:SER:36     -1
Name: 26, dtype: object

>  <halogenbond:SER:36>  (27) 
halogenbond:SER:36    NaN
halogenbond:SER:36     -1
Name: 26, dtype: object

>  <hbond:SER:37>  (27) 
hbond:SER:37    NaN
hbond:SER:37     -1
Name: 26, dtype: object

>  <hbond:ARG:38>  (27) 
hbond:ARG:38    NaN
hbond:ARG:38     -1
Name: 26, dtype: object

>  <halogenbond:ARG:38>  (27) 
halogenbond:ARG:38    NaN
halogenbond:ARG:38     -1
Name: 26, dtype: object

>  <saltbridge:ASP:39>  (27) 
saltbridge:ASP:39    NaN
saltbridge:ASP:39     -1
Name: 26, dtype: object

>  <halogenbond:ASP:39>  (27) 
halogenbond:ASP:39    NaN
halogenbond:ASP:39     -1
Name: 26, dtype: object

>  <hbond:ASP:39>  (27) 
hbond:ASP:39    NaN
hbond:ASP:39     -1
Name: 26, dtype: object

>  <hydroph_interaction:ASP:39>  (27) 
hydroph_interaction:ASP:39    NaN
hydroph_interaction:ASP:39     -1
Name: 26, dtype: object

>  <hydroph_interaction:LEU:40>  (27) 
hydroph_interaction:LEU:40    NaN
hydroph_interaction:LEU:40     -1
Name: 26, dtype: object

>  <hydroph_interaction:TYR:63>  (27) 
hydroph_interaction:TYR:63    NaN
hydroph_interaction:TYR:63     -1
Name: 26, dtype: object

>  <hbond:TYR:63>  (27) 
hbond:TYR:63    NaN
hbond:TYR:63     -1
Name: 26, dtype: object

>  <pistack:TYR:63>  (27) 
pistack:TYR:63    NaN
pistack:TYR:63     -1
Name: 26, dtype: object

>  <pication:TYR:63>  (27) 
pication:TYR:63    NaN
pication:TYR:63     -1
Name: 26, dtype: object

>  <halogenbond:TYR:64>  (27) 
halogenbond:TYR:64    NaN
halogenbond:TYR:64     -1
Name: 26, dtype: object

>  <hbond:TYR:64>  (27) 
hbond:TYR:64    NaN
hbond:TYR:64     -1
Name: 26, dtype: object

>  <hydroph_interaction:TYR:64>  (27) 
hydroph_interaction:TYR:64    NaN
hydroph_interaction:TYR:64     -1
Name: 26, dtype: object

>  <halogenbond:CYS:65>  (27) 
halogenbond:CYS:65    NaN
halogenbond:CYS:65     -1
Name: 26, dtype: object

>  <hbond:CYS:65>  (27) 
hbond:CYS:65    NaN
hbond:CYS:65     -1
Name: 26, dtype: object

>  <hbond:SER:66>  (27) 
hbond:SER:66    NaN
hbond:SER:66     -1
Name: 26, dtype: object

>  <halogenbond:SER:66>  (27) 
halogenbond:SER:66    NaN
halogenbond:SER:66     -1
Name: 26, dtype: object

>  <hbond:SER:67>  (27) 
hbond:SER:67    NaN
hbond:SER:67     -1
Name: 26, dtype: object

>  <halogenbond:SER:67>  (27) 
halogenbond:SER:67    NaN
halogenbond:SER:67     -1
Name: 26, dtype: object

>  <hbond:ARG:68>  (27) 
hbond:ARG:68    NaN
hbond:ARG:68     -1
Name: 26, dtype: object

>  <saltbridge:ARG:68>  (27) 
saltbridge:ARG:68    NaN
saltbridge:ARG:68     -1
Name: 26, dtype: object

>  <hydroph_interaction:ARG:68>  (27) 
hydroph_interaction:ARG:68    NaN
hydroph_interaction:ARG:68     -1
Name: 26, dtype: object

>  <pication:ARG:68>  (27) 
pication:ARG:68    NaN
pication:ARG:68     -1
Name: 26, dtype: object

>  <hydroph_interaction:TYR:72>  (27) 
hydroph_interaction:TYR:72    NaN
hydroph_interaction:TYR:72     -1
Name: 26, dtype: object

>  <hydroph_interaction:VAL:74>  (27) 
hydroph_interaction:VAL:74    NaN
hydroph_interaction:VAL:74     -1
Name: 26, dtype: object

>  <hydroph_interaction:PHE:76>  (27) 
hydroph_interaction:PHE:76    NaN
hydroph_interaction:PHE:76     -1
Name: 26, dtype: object

>  <hbond:SER:77>  (27) 
hbond:SER:77    NaN
hbond:SER:77     -1
Name: 26, dtype: object

>  <hbond:SER:80>  (27) 
hbond:SER:80    NaN
hbond:SER:80     -1
Name: 26, dtype: object

>  <hbond:LEU:81>  (27) 
hbond:LEU:81    NaN
hbond:LEU:81     -1
Name: 26, dtype: object

>  <halogenbond:LEU:81>  (27) 
halogenbond:LEU:81    NaN
halogenbond:LEU:81     -1
Name: 26, dtype: object

>  <hydroph_interaction:LEU:81>  (27) 
hydroph_interaction:LEU:81    NaN
hydroph_interaction:LEU:81     -1
Name: 26, dtype: object

>  <hydroph_interaction:ILE:82>  (27) 
hydroph_interaction:ILE:82    NaN
hydroph_interaction:ILE:82     -1
Name: 26, dtype: object

>  <halogenbond:ILE:82>  (27) 
halogenbond:ILE:82    NaN
halogenbond:ILE:82     -1
Name: 26, dtype: object

>  <hbond:ILE:82>  (27) 
hbond:ILE:82    NaN
hbond:ILE:82     -1
Name: 26, dtype: object

>  <hbond:PHE:83>  (27) 
hbond:PHE:83    NaN
hbond:PHE:83     -1
Name: 26, dtype: object

>  <hydroph_interaction:PHE:83>  (27) 
hydroph_interaction:PHE:83    NaN
hydroph_interaction:PHE:83     -1
Name: 26, dtype: object

>  <halogenbond:PHE:83>  (27) 
halogenbond:PHE:83    NaN
halogenbond:PHE:83     -1
Name: 26, dtype: object

>  <pistack:PHE:83>  (27) 
pistack:PHE:83    NaN
pistack:PHE:83     -1
Name: 26, dtype: object

>  <pication:PHE:83>  (27) 
pication:PHE:83    NaN
pication:PHE:83     -1
Name: 26, dtype: object

>  <hydroph_interaction:VAL:84>  (27) 
hydroph_interaction:VAL:84    NaN
hydroph_interaction:VAL:84     -1
Name: 26, dtype: object

>  <halogenbond:VAL:84>  (27) 
halogenbond:VAL:84    NaN
halogenbond:VAL:84     -1
Name: 26, dtype: object

>  <hbond:VAL:84>  (27) 
hbond:VAL:84    NaN
hbond:VAL:84     -1
Name: 26, dtype: object

>  <hydroph_interaction:GLU:85>  (27) 
hydroph_interaction:GLU:85    NaN
hydroph_interaction:GLU:85     -1
Name: 26, dtype: object

>  <hbond:GLU:85>  (27) 
hbond:GLU:85    NaN
hbond:GLU:85     -1
Name: 26, dtype: object

>  <halogenbond:GLU:85>  (27) 
halogenbond:GLU:85    NaN
halogenbond:GLU:85     -1
Name: 26, dtype: object

>  <saltbridge:GLU:85>  (27) 
saltbridge:GLU:85    NaN
saltbridge:GLU:85     -1
Name: 26, dtype: object

>  <halogenbond:ALA:86>  (27) 
halogenbond:ALA:86    NaN
halogenbond:ALA:86     -1
Name: 26, dtype: object

>  <hbond:ALA:86>  (27) 
hbond:ALA:86    NaN
hbond:ALA:86     -1
Name: 26, dtype: object

>  <hydroph_interaction:ALA:86>  (27) 
hydroph_interaction:ALA:86    NaN
hydroph_interaction:ALA:86     -1
Name: 26, dtype: object

>  <hbond:SER:87>  (27) 
hbond:SER:87    0
hbond:SER:87    0
Name: 26, dtype: object

>  <halogenbond:SER:87>  (27) 
halogenbond:SER:87    NaN
halogenbond:SER:87     -1
Name: 26, dtype: object

>  <hbond:GLU:88>  (27) 
hbond:GLU:88    0.0
hbond:GLU:88      0
Name: 26, dtype: object

>  <hydroph_interaction:GLU:88>  (27) 
hydroph_interaction:GLU:88    0.0
hydroph_interaction:GLU:88      0
Name: 26, dtype: object

>  <halogenbond:GLU:88>  (27) 
halogenbond:GLU:88    NaN
halogenbond:GLU:88     -1
Name: 26, dtype: object

>  <saltbridge:GLU:88>  (27) 
saltbridge:GLU:88    NaN
saltbridge:GLU:88     -1
Name: 26, dtype: object

>  <hydroph_interaction:TYR:89>  (27) 
hydroph_interaction:TYR:89    0.0
hydroph_interaction:TYR:89      0
Name: 26, dtype: object

>  <pistack:TYR:89>  (27) 
pistack:TYR:89    NaN
pistack:TYR:89     -1
Name: 26, dtype: object

>  <hbond:TYR:89>  (27) 
hbond:TYR:89    NaN
hbond:TYR:89     -1
Name: 26, dtype: object

>  <halogenbond:TYR:89>  (27) 
halogenbond:TYR:89    NaN
halogenbond:TYR:89     -1
Name: 26, dtype: object

>  <hydroph_interaction:TYR:90>  (27) 
hydroph_interaction:TYR:90    0.0
hydroph_interaction:TYR:90      0
Name: 26, dtype: object

>  <hbond:TYR:90>  (27) 
hbond:TYR:90    NaN
hbond:TYR:90     -1
Name: 26, dtype: object

>  <pistack:TYR:90>  (27) 
pistack:TYR:90    NaN
pistack:TYR:90     -1
Name: 26, dtype: object

>  <halogenbond:TYR:90>  (27) 
halogenbond:TYR:90    NaN
halogenbond:TYR:90     -1
Name: 26, dtype: object

>  <pication:TYR:90>  (27) 
pication:TYR:90    NaN
pication:TYR:90     -1
Name: 26, dtype: object

>  <hbond:PRO:91>  (27) 
hbond:PRO:91    NaN
hbond:PRO:91     -1
Name: 26, dtype: object

>  <hydroph_interaction:PRO:91>  (27) 
hydroph_interaction:PRO:91    NaN
hydroph_interaction:PRO:91     -1
Name: 26, dtype: object

>  <halogenbond:PRO:91>  (27) 
halogenbond:PRO:91    NaN
halogenbond:PRO:91     -1
Name: 26, dtype: object

>  <hbond:ALA:92>  (27) 
hbond:ALA:92    NaN
hbond:ALA:92     -1
Name: 26, dtype: object

>  <hydroph_interaction:ALA:92>  (27) 
hydroph_interaction:ALA:92    NaN
hydroph_interaction:ALA:92     -1
Name: 26, dtype: object

>  <saltbridge:ARG:93>  (27) 
saltbridge:ARG:93    NaN
saltbridge:ARG:93     -1
Name: 26, dtype: object

>  <hbond:ARG:93>  (27) 
hbond:ARG:93    NaN
hbond:ARG:93     -1
Name: 26, dtype: object

>  <hydroph_interaction:ARG:93>  (27) 
hydroph_interaction:ARG:93    NaN
hydroph_interaction:ARG:93     -1
Name: 26, dtype: object

>  <halogenbond:ARG:93>  (27) 
halogenbond:ARG:93    NaN
halogenbond:ARG:93     -1
Name: 26, dtype: object

>  <pication:ARG:93>  (27) 
pication:ARG:93    NaN
pication:ARG:93     -1
Name: 26, dtype: object

>  <hydroph_interaction:TYR:94>  (27) 
hydroph_interaction:TYR:94    NaN
hydroph_interaction:TYR:94     -1
Name: 26, dtype: object

>  <pistack:TYR:94>  (27) 
pistack:TYR:94    NaN
pistack:TYR:94     -1
Name: 26, dtype: object

>  <hbond:TYR:94>  (27) 
hbond:TYR:94    NaN
hbond:TYR:94     -1
Name: 26, dtype: object

>  <hbond:GLN:95>  (27) 
hbond:GLN:95    NaN
hbond:GLN:95     -1
Name: 26, dtype: object

>  <hydroph_interaction:GLN:95>  (27) 
hydroph_interaction:GLN:95    NaN
hydroph_interaction:GLN:95     -1
Name: 26, dtype: object

>  <halogenbond:GLN:95>  (27) 
halogenbond:GLN:95    NaN
halogenbond:GLN:95     -1
Name: 26, dtype: object

>  <hbond:SER:96>  (27) 
hbond:SER:96    NaN
hbond:SER:96     -1
Name: 26, dtype: object

>  <halogenbond:HIS:97>  (27) 
halogenbond:HIS:97    NaN
halogenbond:HIS:97     -1
Name: 26, dtype: object

>  <hydroph_interaction:LEU:98>  (27) 
hydroph_interaction:LEU:98    NaN
hydroph_interaction:LEU:98     -1
Name: 26, dtype: object

>  <hbond:LEU:98>  (27) 
hbond:LEU:98    NaN
hbond:LEU:98     -1
Name: 26, dtype: object

>  <halogenbond:LEU:98>  (27) 
halogenbond:LEU:98    NaN
halogenbond:LEU:98     -1
Name: 26, dtype: object

>  <hbond:MET:99>  (27) 
hbond:MET:99    NaN
hbond:MET:99     -1
Name: 26, dtype: object

>  <hydroph_interaction:MET:99>  (27) 
hydroph_interaction:MET:99    NaN
hydroph_interaction:MET:99     -1
Name: 26, dtype: object

>  <halogenbond:MET:99>  (27) 
halogenbond:MET:99    NaN
halogenbond:MET:99     -1
Name: 26, dtype: object

>  <hydroph_interaction:LEU:100>  (27) 
hydroph_interaction:LEU:100    NaN
hydroph_interaction:LEU:100     -1
Name: 26, dtype: object

>  <hbond:LEU:100>  (27) 
hbond:LEU:100    NaN
hbond:LEU:100     -1
Name: 26, dtype: object

>  <hbond:ALA:101>  (27) 
hbond:ALA:101    NaN
hbond:ALA:101     -1
Name: 26, dtype: object

>  <hydroph_interaction:ALA:101>  (27) 
hydroph_interaction:ALA:101    NaN
hydroph_interaction:ALA:101     -1
Name: 26, dtype: object

>  <hydroph_interaction:VAL:102>  (27) 
hydroph_interaction:VAL:102    NaN
hydroph_interaction:VAL:102     -1
Name: 26, dtype: object

>  <hbond:VAL:102>  (27) 
hbond:VAL:102    NaN
hbond:VAL:102     -1
Name: 26, dtype: object

>  <hbond:GLY:103>  (27) 
hbond:GLY:103    NaN
hbond:GLY:103     -1
Name: 26, dtype: object

>  <halogenbond:GLY:103>  (27) 
halogenbond:GLY:103    NaN
halogenbond:GLY:103     -1
Name: 26, dtype: object

>  <hbond:HIS:104>  (27) 
hbond:HIS:104    NaN
hbond:HIS:104     -1
Name: 26, dtype: object

>  <saltbridge:HIS:104>  (27) 
saltbridge:HIS:104    NaN
saltbridge:HIS:104     -1
Name: 26, dtype: object

>  <pication:HIS:104>  (27) 
pication:HIS:104    NaN
pication:HIS:104     -1
Name: 26, dtype: object

>  <halogenbond:HIS:104>  (27) 
halogenbond:HIS:104    NaN
halogenbond:HIS:104     -1
Name: 26, dtype: object

>  <hydroph_interaction:HIS:104>  (27) 
hydroph_interaction:HIS:104    NaN
hydroph_interaction:HIS:104     -1
Name: 26, dtype: object

>  <pistack:HIS:104>  (27) 
pistack:HIS:104    NaN
pistack:HIS:104     -1
Name: 26, dtype: object

>  <halogenbond:SER:105>  (27) 
halogenbond:SER:105    0.0
halogenbond:SER:105      0
Name: 26, dtype: object

>  <hbond:SER:105>  (27) 
hbond:SER:105    0.0
hbond:SER:105      0
Name: 26, dtype: object

>  <hbond:GLU:106>  (27) 
hbond:GLU:106    0.0
hbond:GLU:106      0
Name: 26, dtype: object

>  <hydroph_interaction:GLU:106>  (27) 
hydroph_interaction:GLU:106    NaN
hydroph_interaction:GLU:106     -1
Name: 26, dtype: object

>  <saltbridge:GLU:106>  (27) 
saltbridge:GLU:106    NaN
saltbridge:GLU:106     -1
Name: 26, dtype: object

>  <halogenbond:GLU:106>  (27) 
halogenbond:GLU:106    NaN
halogenbond:GLU:106     -1
Name: 26, dtype: object

>  <hydroph_interaction:PRO:107>  (27) 
hydroph_interaction:PRO:107    2
hydroph_interaction:PRO:107    2
Name: 26, dtype: object

>  <hbond:PRO:107>  (27) 
hbond:PRO:107    0.0
hbond:PRO:107      0
Name: 26, dtype: object

>  <halogenbond:PRO:107>  (27) 
halogenbond:PRO:107    NaN
halogenbond:PRO:107     -1
Name: 26, dtype: object

>  <hbond:GLY:108>  (27) 
hbond:GLY:108    NaN
hbond:GLY:108     -1
Name: 26, dtype: object

>  <halogenbond:GLY:108>  (27) 
halogenbond:GLY:108    NaN
halogenbond:GLY:108     -1
Name: 26, dtype: object

>  <hbond:ASP:109>  (27) 
hbond:ASP:109    0.0
hbond:ASP:109      0
Name: 26, dtype: object

>  <hydroph_interaction:ASP:109>  (27) 
hydroph_interaction:ASP:109    0.0
hydroph_interaction:ASP:109      0
Name: 26, dtype: object

>  <saltbridge:ASP:109>  (27) 
saltbridge:ASP:109    NaN
saltbridge:ASP:109     -1
Name: 26, dtype: object

>  <halogenbond:CYS:110>  (27) 
halogenbond:CYS:110    NaN
halogenbond:CYS:110     -1
Name: 26, dtype: object

>  <hbond:CYS:110>  (27) 
hbond:CYS:110    0.0
hbond:CYS:110      0
Name: 26, dtype: object

>  <hbond:GLY:111>  (27) 
hbond:GLY:111    NaN
hbond:GLY:111     -1
Name: 26, dtype: object

>  <hbond:GLY:112>  (27) 
hbond:GLY:112    NaN
hbond:GLY:112     -1
Name: 26, dtype: object

>  <hbond:ILE:113>  (27) 
hbond:ILE:113    NaN
hbond:ILE:113     -1
Name: 26, dtype: object

>  <hydroph_interaction:LEU:114>  (27) 
hydroph_interaction:LEU:114    NaN
hydroph_interaction:LEU:114     -1
Name: 26, dtype: object

>  <hbond:LEU:114>  (27) 
hbond:LEU:114    NaN
hbond:LEU:114     -1
Name: 26, dtype: object

>  <hydroph_interaction:ILE:123>  (27) 
hydroph_interaction:ILE:123    NaN
hydroph_interaction:ILE:123     -1
Name: 26, dtype: object

>  <hbond:ILE:123>  (27) 
hbond:ILE:123    NaN
hbond:ILE:123     -1
Name: 26, dtype: object

>  <hydroph_interaction:VAL:124>  (27) 
hydroph_interaction:VAL:124    0.0
hydroph_interaction:VAL:124      0
Name: 26, dtype: object

>  <hbond:VAL:124>  (27) 
hbond:VAL:124    NaN
hbond:VAL:124     -1
Name: 26, dtype: object

>  <halogenbond:VAL:124>  (27) 
halogenbond:VAL:124    NaN
halogenbond:VAL:124     -1
Name: 26, dtype: object

>  <hbond:SER:125>  (27) 
hbond:SER:125    1
hbond:SER:125    1
Name: 26, dtype: object

>  <halogenbond:SER:125>  (27) 
halogenbond:SER:125    NaN
halogenbond:SER:125     -1
Name: 26, dtype: object

>  <hydroph_interaction:THR:126>  (27) 
hydroph_interaction:THR:126    NaN
hydroph_interaction:THR:126     -1
Name: 26, dtype: object

>  <hbond:THR:126>  (27) 
hbond:THR:126    0.0
hbond:THR:126      0
Name: 26, dtype: object

>  <halogenbond:THR:126>  (27) 
halogenbond:THR:126    NaN
halogenbond:THR:126     -1
Name: 26, dtype: object

>  <hbond:GLY:127>  (27) 
hbond:GLY:127    0
hbond:GLY:127    0
Name: 26, dtype: object

>  <halogenbond:GLY:127>  (27) 
halogenbond:GLY:127    NaN
halogenbond:GLY:127     -1
Name: 26, dtype: object

>  <hydroph_interaction:GLY:127>  (27) 
hydroph_interaction:GLY:127    NaN
hydroph_interaction:GLY:127     -1
Name: 26, dtype: object

>  <hbond:GLY:128>  (27) 
hbond:GLY:128    NaN
hbond:GLY:128     -1
Name: 26, dtype: object

>  <halogenbond:GLY:128>  (27) 
halogenbond:GLY:128    NaN
halogenbond:GLY:128     -1
Name: 26, dtype: object

>  <hydroph_interaction:GLY:128>  (27) 
hydroph_interaction:GLY:128    NaN
hydroph_interaction:GLY:128     -1
Name: 26, dtype: object

>  <hbond:ASN:129>  (27) 
hbond:ASN:129    NaN
hbond:ASN:129     -1
Name: 26, dtype: object

>  <hydroph_interaction:ASN:129>  (27) 
hydroph_interaction:ASN:129    NaN
hydroph_interaction:ASN:129     -1
Name: 26, dtype: object

>  <halogenbond:ASN:129>  (27) 
halogenbond:ASN:129    NaN
halogenbond:ASN:129     -1
Name: 26, dtype: object

>  <hbond:GLY:130>  (27) 
hbond:GLY:130    NaN
hbond:GLY:130     -1
Name: 26, dtype: object

>  <hbond:LEU:131>  (27) 
hbond:LEU:131    NaN
hbond:LEU:131     -1
Name: 26, dtype: object

>  <hydroph_interaction:LEU:131>  (27) 
hydroph_interaction:LEU:131    NaN
hydroph_interaction:LEU:131     -1
Name: 26, dtype: object

>  <halogenbond:LEU:131>  (27) 
halogenbond:LEU:131    NaN
halogenbond:LEU:131     -1
Name: 26, dtype: object

>  <hydroph_interaction:VAL:132>  (27) 
hydroph_interaction:VAL:132    NaN
hydroph_interaction:VAL:132     -1
Name: 26, dtype: object

>  <hbond:VAL:132>  (27) 
hbond:VAL:132    NaN
hbond:VAL:132     -1
Name: 26, dtype: object

>  <hbond:GLY:133>  (27) 
hbond:GLY:133    NaN
hbond:GLY:133     -1
Name: 26, dtype: object

>  <halogenbond:GLY:133>  (27) 
halogenbond:GLY:133    NaN
halogenbond:GLY:133     -1
Name: 26, dtype: object

>  <hydroph_interaction:PHE:134>  (27) 
hydroph_interaction:PHE:134    NaN
hydroph_interaction:PHE:134     -1
Name: 26, dtype: object

>  <hbond:PHE:134>  (27) 
hbond:PHE:134    NaN
hbond:PHE:134     -1
Name: 26, dtype: object

>  <pistack:PHE:134>  (27) 
pistack:PHE:134    NaN
pistack:PHE:134     -1
Name: 26, dtype: object

>  <pication:PHE:134>  (27) 
pication:PHE:134    NaN
pication:PHE:134     -1
Name: 26, dtype: object

>  <halogenbond:PHE:134>  (27) 
halogenbond:PHE:134    NaN
halogenbond:PHE:134     -1
Name: 26, dtype: object

>  <hydroph_interaction:ALA:135>  (27) 
hydroph_interaction:ALA:135    NaN
hydroph_interaction:ALA:135     -1
Name: 26, dtype: object

>  <hbond:ALA:135>  (27) 
hbond:ALA:135    NaN
hbond:ALA:135     -1
Name: 26, dtype: object

$$$$
PV_002801438273
     RDKit          3D

 24 25  0  0  0  0  0  0  0  0999 V2000
   10.4820    9.5140   22.4370 C   0  0  0  0  0  0  0  0  0  0  0  0
    9.6110   10.3670   23.2890 C   0  0  0  0  0  0  0  0  0  0  0  0
    9.6480   11.7720   23.3280 C   0  0  0  0  0  0  0  0  0  0  0  0
   10.5920   12.5350   22.5140 N   0  0  0  0  0  0  0  0  0  0  0  0
   11.3450   13.5920   23.0050 C   0  0  0  0  0  0  0  0  0  0  0  0
   11.1360   14.0790   24.1210 O   0  0  0  0  0  0  0  0  0  0  0  0
   12.3650   14.1210   22.2200 C   0  0  0  0  0  0  0  0  0  0  0  0
   12.2700   15.5770   21.9100 C   0  0  0  0  0  0  0  0  0  0  0  0
   12.1120   16.9070   21.6880 N   0  0  0  0  0  0  0  0  0  0  0  0
    8.7310   12.4270   24.1960 C   0  0  0  0  0  0  0  0  0  0  0  0
    8.5740   13.7350   24.4020 N   0  0  0  0  0  0  0  0  0  0  0  0
    7.5500   13.8310   25.3380 O   0  0  0  0  0  0  0  0  0  0  0  0
    7.0790   12.5900   25.7080 N   0  0  0  0  0  0  0  0  0  0  0  0
    7.8330   11.7050   24.9810 C   0  0  0  0  0  0  0  0  0  0  0  0
    7.7980   10.3500   24.9520 C   0  0  0  0  0  0  0  0  0  0  0  0
    8.6960    9.7250   24.0990 C   0  0  0  0  0  0  0  0  0  0  0  0
   10.9430   10.1290   21.6850 H   0  0  0  0  0  0  0  0  0  0  0  0
    9.8920    8.7350   21.9480 H   0  0  0  0  0  0  0  0  0  0  0  0
   11.2390    9.0270   23.0570 H   0  0  0  0  0  0  0  0  0  0  0  0
   10.7640   12.2310   21.5570 H   0  0  0  0  0  0  0  0  0  0  0  0
   13.2980   13.9520   22.7630 H   0  0  0  0  0  0  0  0  0  0  0  0
   12.4300   13.5560   21.2850 H   0  0  0  0  0  0  0  0  0  0  0  0
    7.1030    9.8050   25.5620 H   0  0  0  0  0  0  0  0  0  0  0  0
    8.6630    8.6620   24.0780 H   0  0  0  0  0  0  0  0  0  0  0  0
  1  2  1  0
  2  3  2  0
  3  4  1  0
  4  5  1  0
  5  6  2  0
  5  7  1  0
  7  8  1  0
  8  9  3  0
  3 10  1  0
 10 11  2  0
 11 12  1  0
 12 13  1  0
 13 14  2  0
 14 15  1  0
 15 16  2  0
 16  2  1  0
 14 10  1  0
  1 17  1  0
  1 18  1  0
  1 19  1  0
  4 20  1  0
  7 21  1  0
  7 22  1  0
 15 23  1  0
 16 24  1  0
A    1
 C1 
A    2
 C2 
A    3
 C3 
A    4
 N1 
A    5
 C4 
A    6
 O1 
A    7
 C5 
A    8
 C6 
A    9
 N2 
A   10
 C7 
A   11
 N3 
A   12
 O2 
A   13
 N4 
A   14
 C8 
A   15
 C9 
A   16
 C10
A   17
 H1 
A   18
 H2 
A   19
 H3 
A   20
 H4 
A   21
 H5 
A   22
 H6 
A   23
 H7 
A   24
 H8 
M  END
>  <ref_pdb>  (28) 
x0310_0A

>  <ref_mols>  (28) 
x0473_0A,x0554_0A

>  <original SMILES>  (28) 
Cc1ccc2nonc2c1NC(=O)CC#N

>  <rationale>  (28) 
info halogenbond:G127+D39+A86+S125+Q95+E106+E88+T126+P107+H104+Y64+C65+S87+F83+R93+L131+I82+G128+P91+N19+H21+V84+G133+Y90+Y89+H97+L81+F134+L98+R20+G103+S66+S67+S7+G108+R38+V124+M99+S36; hbond:S87+S125+E88+Y90+G108+G103+H104+R68+R93+P91+S67+S66+G112+R20+Y89+S77+A135+Y63+A92+A101+M99+F134+L100+I82+Y64+S36+L98+V84+L81+Y94+S80+R38+S37+V102+G8+I123+G111+I113+L114+C65+L22+S96; hydroph_interaction:V124+L40+I123+A135+R93+Y63+H104+R20+A86+V74+P91+A101+F76+M99+L114+A92+Y94+R68+Y72+Y64+V18+V102+W28+G127+G128+L81; pication:H104+R93+Y63+F134+Y90+R68+F83+R20; pistack:Y89+Y90+H104+F134+Y63+Y94; saltbridge:D39+H21+R93+H104+E106+D109+E88+R68+R20; 

>  <intxn_cluster>  (28) 
-1

>  <intxn_cluster_rank>  (28) 
-1

>  <N_interactions>  (28) 
5

>  <∆∆G>  (28) 
-7.59757

>  <$/mg>  (28) 
0.0

>  <comRMSD>  (28) 
0.559124

>  <N_rotatable_bonds>  (28) 
3

>  <deep_P1_sidechain>  (28) 
nan

>  <farthest_distance_to_substrate>  (28) 
2.812212

>  <hbond:SER:7>  (28) 
hbond:SER:7    0.0
hbond:SER:7      0
Name: 27, dtype: object

>  <halogenbond:SER:7>  (28) 
halogenbond:SER:7    NaN
halogenbond:SER:7     -1
Name: 27, dtype: object

>  <hbond:GLY:8>  (28) 
hbond:GLY:8    NaN
hbond:GLY:8     -1
Name: 27, dtype: object

>  <hydroph_interaction:VAL:18>  (28) 
hydroph_interaction:VAL:18    NaN
hydroph_interaction:VAL:18     -1
Name: 27, dtype: object

>  <hbond:ASN:19>  (28) 
hbond:ASN:19    0.0
hbond:ASN:19      0
Name: 27, dtype: object

>  <hydroph_interaction:ASN:19>  (28) 
hydroph_interaction:ASN:19    0.0
hydroph_interaction:ASN:19      0
Name: 27, dtype: object

>  <halogenbond:ASN:19>  (28) 
halogenbond:ASN:19    NaN
halogenbond:ASN:19     -1
Name: 27, dtype: object

>  <hbond:ARG:20>  (28) 
hbond:ARG:20    NaN
hbond:ARG:20     -1
Name: 27, dtype: object

>  <hydroph_interaction:ARG:20>  (28) 
hydroph_interaction:ARG:20    NaN
hydroph_interaction:ARG:20     -1
Name: 27, dtype: object

>  <saltbridge:ARG:20>  (28) 
saltbridge:ARG:20    NaN
saltbridge:ARG:20     -1
Name: 27, dtype: object

>  <halogenbond:ARG:20>  (28) 
halogenbond:ARG:20    NaN
halogenbond:ARG:20     -1
Name: 27, dtype: object

>  <pication:ARG:20>  (28) 
pication:ARG:20    NaN
pication:ARG:20     -1
Name: 27, dtype: object

>  <hbond:HIS:21>  (28) 
hbond:HIS:21    0.0
hbond:HIS:21      0
Name: 27, dtype: object

>  <hydroph_interaction:HIS:21>  (28) 
hydroph_interaction:HIS:21    0.0
hydroph_interaction:HIS:21      0
Name: 27, dtype: object

>  <pistack:HIS:21>  (28) 
pistack:HIS:21    0.0
pistack:HIS:21      0
Name: 27, dtype: object

>  <pication:HIS:21>  (28) 
pication:HIS:21    0.0
pication:HIS:21      0
Name: 27, dtype: object

>  <saltbridge:HIS:21>  (28) 
saltbridge:HIS:21    NaN
saltbridge:HIS:21     -1
Name: 27, dtype: object

>  <halogenbond:HIS:21>  (28) 
halogenbond:HIS:21    NaN
halogenbond:HIS:21     -1
Name: 27, dtype: object

>  <hydroph_interaction:LEU:22>  (28) 
hydroph_interaction:LEU:22    0.0
hydroph_interaction:LEU:22      0
Name: 27, dtype: object

>  <hbond:LEU:22>  (28) 
hbond:LEU:22    NaN
hbond:LEU:22     -1
Name: 27, dtype: object

>  <hydroph_interaction:TRP:28>  (28) 
hydroph_interaction:TRP:28    NaN
hydroph_interaction:TRP:28     -1
Name: 27, dtype: object

>  <hbond:SER:36>  (28) 
hbond:SER:36    NaN
hbond:SER:36     -1
Name: 27, dtype: object

>  <halogenbond:SER:36>  (28) 
halogenbond:SER:36    NaN
halogenbond:SER:36     -1
Name: 27, dtype: object

>  <hbond:SER:37>  (28) 
hbond:SER:37    NaN
hbond:SER:37     -1
Name: 27, dtype: object

>  <hbond:ARG:38>  (28) 
hbond:ARG:38    NaN
hbond:ARG:38     -1
Name: 27, dtype: object

>  <halogenbond:ARG:38>  (28) 
halogenbond:ARG:38    NaN
halogenbond:ARG:38     -1
Name: 27, dtype: object

>  <saltbridge:ASP:39>  (28) 
saltbridge:ASP:39    NaN
saltbridge:ASP:39     -1
Name: 27, dtype: object

>  <halogenbond:ASP:39>  (28) 
halogenbond:ASP:39    NaN
halogenbond:ASP:39     -1
Name: 27, dtype: object

>  <hbond:ASP:39>  (28) 
hbond:ASP:39    0.0
hbond:ASP:39      0
Name: 27, dtype: object

>  <hydroph_interaction:ASP:39>  (28) 
hydroph_interaction:ASP:39    0.0
hydroph_interaction:ASP:39      0
Name: 27, dtype: object

>  <hydroph_interaction:LEU:40>  (28) 
hydroph_interaction:LEU:40    NaN
hydroph_interaction:LEU:40     -1
Name: 27, dtype: object

>  <hydroph_interaction:TYR:63>  (28) 
hydroph_interaction:TYR:63    NaN
hydroph_interaction:TYR:63     -1
Name: 27, dtype: object

>  <hbond:TYR:63>  (28) 
hbond:TYR:63    NaN
hbond:TYR:63     -1
Name: 27, dtype: object

>  <pistack:TYR:63>  (28) 
pistack:TYR:63    NaN
pistack:TYR:63     -1
Name: 27, dtype: object

>  <pication:TYR:63>  (28) 
pication:TYR:63    NaN
pication:TYR:63     -1
Name: 27, dtype: object

>  <halogenbond:TYR:64>  (28) 
halogenbond:TYR:64    NaN
halogenbond:TYR:64     -1
Name: 27, dtype: object

>  <hbond:TYR:64>  (28) 
hbond:TYR:64    NaN
hbond:TYR:64     -1
Name: 27, dtype: object

>  <hydroph_interaction:TYR:64>  (28) 
hydroph_interaction:TYR:64    NaN
hydroph_interaction:TYR:64     -1
Name: 27, dtype: object

>  <halogenbond:CYS:65>  (28) 
halogenbond:CYS:65    NaN
halogenbond:CYS:65     -1
Name: 27, dtype: object

>  <hbond:CYS:65>  (28) 
hbond:CYS:65    NaN
hbond:CYS:65     -1
Name: 27, dtype: object

>  <hbond:SER:66>  (28) 
hbond:SER:66    NaN
hbond:SER:66     -1
Name: 27, dtype: object

>  <halogenbond:SER:66>  (28) 
halogenbond:SER:66    NaN
halogenbond:SER:66     -1
Name: 27, dtype: object

>  <hbond:SER:67>  (28) 
hbond:SER:67    NaN
hbond:SER:67     -1
Name: 27, dtype: object

>  <halogenbond:SER:67>  (28) 
halogenbond:SER:67    NaN
halogenbond:SER:67     -1
Name: 27, dtype: object

>  <hbond:ARG:68>  (28) 
hbond:ARG:68    NaN
hbond:ARG:68     -1
Name: 27, dtype: object

>  <saltbridge:ARG:68>  (28) 
saltbridge:ARG:68    NaN
saltbridge:ARG:68     -1
Name: 27, dtype: object

>  <hydroph_interaction:ARG:68>  (28) 
hydroph_interaction:ARG:68    NaN
hydroph_interaction:ARG:68     -1
Name: 27, dtype: object

>  <pication:ARG:68>  (28) 
pication:ARG:68    NaN
pication:ARG:68     -1
Name: 27, dtype: object

>  <hydroph_interaction:TYR:72>  (28) 
hydroph_interaction:TYR:72    NaN
hydroph_interaction:TYR:72     -1
Name: 27, dtype: object

>  <hydroph_interaction:VAL:74>  (28) 
hydroph_interaction:VAL:74    NaN
hydroph_interaction:VAL:74     -1
Name: 27, dtype: object

>  <hydroph_interaction:PHE:76>  (28) 
hydroph_interaction:PHE:76    NaN
hydroph_interaction:PHE:76     -1
Name: 27, dtype: object

>  <hbond:SER:77>  (28) 
hbond:SER:77    NaN
hbond:SER:77     -1
Name: 27, dtype: object

>  <hbond:SER:80>  (28) 
hbond:SER:80    NaN
hbond:SER:80     -1
Name: 27, dtype: object

>  <hbond:LEU:81>  (28) 
hbond:LEU:81    NaN
hbond:LEU:81     -1
Name: 27, dtype: object

>  <halogenbond:LEU:81>  (28) 
halogenbond:LEU:81    NaN
halogenbond:LEU:81     -1
Name: 27, dtype: object

>  <hydroph_interaction:LEU:81>  (28) 
hydroph_interaction:LEU:81    NaN
hydroph_interaction:LEU:81     -1
Name: 27, dtype: object

>  <hydroph_interaction:ILE:82>  (28) 
hydroph_interaction:ILE:82    0.0
hydroph_interaction:ILE:82      0
Name: 27, dtype: object

>  <halogenbond:ILE:82>  (28) 
halogenbond:ILE:82    NaN
halogenbond:ILE:82     -1
Name: 27, dtype: object

>  <hbond:ILE:82>  (28) 
hbond:ILE:82    NaN
hbond:ILE:82     -1
Name: 27, dtype: object

>  <hbond:PHE:83>  (28) 
hbond:PHE:83    0.0
hbond:PHE:83      0
Name: 27, dtype: object

>  <hydroph_interaction:PHE:83>  (28) 
hydroph_interaction:PHE:83    0.0
hydroph_interaction:PHE:83      0
Name: 27, dtype: object

>  <halogenbond:PHE:83>  (28) 
halogenbond:PHE:83    NaN
halogenbond:PHE:83     -1
Name: 27, dtype: object

>  <pistack:PHE:83>  (28) 
pistack:PHE:83    0.0
pistack:PHE:83      0
Name: 27, dtype: object

>  <pication:PHE:83>  (28) 
pication:PHE:83    NaN
pication:PHE:83     -1
Name: 27, dtype: object

>  <hydroph_interaction:VAL:84>  (28) 
hydroph_interaction:VAL:84    0.0
hydroph_interaction:VAL:84      0
Name: 27, dtype: object

>  <halogenbond:VAL:84>  (28) 
halogenbond:VAL:84    NaN
halogenbond:VAL:84     -1
Name: 27, dtype: object

>  <hbond:VAL:84>  (28) 
hbond:VAL:84    NaN
hbond:VAL:84     -1
Name: 27, dtype: object

>  <hydroph_interaction:GLU:85>  (28) 
hydroph_interaction:GLU:85    0.0
hydroph_interaction:GLU:85      0
Name: 27, dtype: object

>  <hbond:GLU:85>  (28) 
hbond:GLU:85    0.0
hbond:GLU:85      0
Name: 27, dtype: object

>  <halogenbond:GLU:85>  (28) 
halogenbond:GLU:85    0.0
halogenbond:GLU:85      0
Name: 27, dtype: object

>  <saltbridge:GLU:85>  (28) 
saltbridge:GLU:85    0.0
saltbridge:GLU:85      0
Name: 27, dtype: object

>  <halogenbond:ALA:86>  (28) 
halogenbond:ALA:86    NaN
halogenbond:ALA:86     -1
Name: 27, dtype: object

>  <hbond:ALA:86>  (28) 
hbond:ALA:86    0.0
hbond:ALA:86      0
Name: 27, dtype: object

>  <hydroph_interaction:ALA:86>  (28) 
hydroph_interaction:ALA:86    NaN
hydroph_interaction:ALA:86     -1
Name: 27, dtype: object

>  <hbond:SER:87>  (28) 
hbond:SER:87    1
hbond:SER:87    1
Name: 27, dtype: object

>  <halogenbond:SER:87>  (28) 
halogenbond:SER:87    NaN
halogenbond:SER:87     -1
Name: 27, dtype: object

>  <hbond:GLU:88>  (28) 
hbond:GLU:88    1.0
hbond:GLU:88      1
Name: 27, dtype: object

>  <hydroph_interaction:GLU:88>  (28) 
hydroph_interaction:GLU:88    0.0
hydroph_interaction:GLU:88      0
Name: 27, dtype: object

>  <halogenbond:GLU:88>  (28) 
halogenbond:GLU:88    NaN
halogenbond:GLU:88     -1
Name: 27, dtype: object

>  <saltbridge:GLU:88>  (28) 
saltbridge:GLU:88    NaN
saltbridge:GLU:88     -1
Name: 27, dtype: object

>  <hydroph_interaction:TYR:89>  (28) 
hydroph_interaction:TYR:89    0.0
hydroph_interaction:TYR:89      0
Name: 27, dtype: object

>  <pistack:TYR:89>  (28) 
pistack:TYR:89    NaN
pistack:TYR:89     -1
Name: 27, dtype: object

>  <hbond:TYR:89>  (28) 
hbond:TYR:89    NaN
hbond:TYR:89     -1
Name: 27, dtype: object

>  <halogenbond:TYR:89>  (28) 
halogenbond:TYR:89    NaN
halogenbond:TYR:89     -1
Name: 27, dtype: object

>  <hydroph_interaction:TYR:90>  (28) 
hydroph_interaction:TYR:90    0.0
hydroph_interaction:TYR:90      0
Name: 27, dtype: object

>  <hbond:TYR:90>  (28) 
hbond:TYR:90    1.0
hbond:TYR:90      1
Name: 27, dtype: object

>  <pistack:TYR:90>  (28) 
pistack:TYR:90    NaN
pistack:TYR:90     -1
Name: 27, dtype: object

>  <halogenbond:TYR:90>  (28) 
halogenbond:TYR:90    NaN
halogenbond:TYR:90     -1
Name: 27, dtype: object

>  <pication:TYR:90>  (28) 
pication:TYR:90    NaN
pication:TYR:90     -1
Name: 27, dtype: object

>  <hbond:PRO:91>  (28) 
hbond:PRO:91    NaN
hbond:PRO:91     -1
Name: 27, dtype: object

>  <hydroph_interaction:PRO:91>  (28) 
hydroph_interaction:PRO:91    NaN
hydroph_interaction:PRO:91     -1
Name: 27, dtype: object

>  <halogenbond:PRO:91>  (28) 
halogenbond:PRO:91    NaN
halogenbond:PRO:91     -1
Name: 27, dtype: object

>  <hbond:ALA:92>  (28) 
hbond:ALA:92    NaN
hbond:ALA:92     -1
Name: 27, dtype: object

>  <hydroph_interaction:ALA:92>  (28) 
hydroph_interaction:ALA:92    NaN
hydroph_interaction:ALA:92     -1
Name: 27, dtype: object

>  <saltbridge:ARG:93>  (28) 
saltbridge:ARG:93    NaN
saltbridge:ARG:93     -1
Name: 27, dtype: object

>  <hbond:ARG:93>  (28) 
hbond:ARG:93    NaN
hbond:ARG:93     -1
Name: 27, dtype: object

>  <hydroph_interaction:ARG:93>  (28) 
hydroph_interaction:ARG:93    NaN
hydroph_interaction:ARG:93     -1
Name: 27, dtype: object

>  <halogenbond:ARG:93>  (28) 
halogenbond:ARG:93    NaN
halogenbond:ARG:93     -1
Name: 27, dtype: object

>  <pication:ARG:93>  (28) 
pication:ARG:93    NaN
pication:ARG:93     -1
Name: 27, dtype: object

>  <hydroph_interaction:TYR:94>  (28) 
hydroph_interaction:TYR:94    NaN
hydroph_interaction:TYR:94     -1
Name: 27, dtype: object

>  <pistack:TYR:94>  (28) 
pistack:TYR:94    NaN
pistack:TYR:94     -1
Name: 27, dtype: object

>  <hbond:TYR:94>  (28) 
hbond:TYR:94    NaN
hbond:TYR:94     -1
Name: 27, dtype: object

>  <hbond:GLN:95>  (28) 
hbond:GLN:95    0.0
hbond:GLN:95      0
Name: 27, dtype: object

>  <hydroph_interaction:GLN:95>  (28) 
hydroph_interaction:GLN:95    0.0
hydroph_interaction:GLN:95      0
Name: 27, dtype: object

>  <halogenbond:GLN:95>  (28) 
halogenbond:GLN:95    NaN
halogenbond:GLN:95     -1
Name: 27, dtype: object

>  <hbond:SER:96>  (28) 
hbond:SER:96    NaN
hbond:SER:96     -1
Name: 27, dtype: object

>  <halogenbond:HIS:97>  (28) 
halogenbond:HIS:97    NaN
halogenbond:HIS:97     -1
Name: 27, dtype: object

>  <hydroph_interaction:LEU:98>  (28) 
hydroph_interaction:LEU:98    0.0
hydroph_interaction:LEU:98      0
Name: 27, dtype: object

>  <hbond:LEU:98>  (28) 
hbond:LEU:98    NaN
hbond:LEU:98     -1
Name: 27, dtype: object

>  <halogenbond:LEU:98>  (28) 
halogenbond:LEU:98    NaN
halogenbond:LEU:98     -1
Name: 27, dtype: object

>  <hbond:MET:99>  (28) 
hbond:MET:99    NaN
hbond:MET:99     -1
Name: 27, dtype: object

>  <hydroph_interaction:MET:99>  (28) 
hydroph_interaction:MET:99    NaN
hydroph_interaction:MET:99     -1
Name: 27, dtype: object

>  <halogenbond:MET:99>  (28) 
halogenbond:MET:99    NaN
halogenbond:MET:99     -1
Name: 27, dtype: object

>  <hydroph_interaction:LEU:100>  (28) 
hydroph_interaction:LEU:100    0.0
hydroph_interaction:LEU:100      0
Name: 27, dtype: object

>  <hbond:LEU:100>  (28) 
hbond:LEU:100    NaN
hbond:LEU:100     -1
Name: 27, dtype: object

>  <hbond:ALA:101>  (28) 
hbond:ALA:101    NaN
hbond:ALA:101     -1
Name: 27, dtype: object

>  <hydroph_interaction:ALA:101>  (28) 
hydroph_interaction:ALA:101    NaN
hydroph_interaction:ALA:101     -1
Name: 27, dtype: object

>  <hydroph_interaction:VAL:102>  (28) 
hydroph_interaction:VAL:102    NaN
hydroph_interaction:VAL:102     -1
Name: 27, dtype: object

>  <hbond:VAL:102>  (28) 
hbond:VAL:102    NaN
hbond:VAL:102     -1
Name: 27, dtype: object

>  <hbond:GLY:103>  (28) 
hbond:GLY:103    NaN
hbond:GLY:103     -1
Name: 27, dtype: object

>  <halogenbond:GLY:103>  (28) 
halogenbond:GLY:103    NaN
halogenbond:GLY:103     -1
Name: 27, dtype: object

>  <hbond:HIS:104>  (28) 
hbond:HIS:104    NaN
hbond:HIS:104     -1
Name: 27, dtype: object

>  <saltbridge:HIS:104>  (28) 
saltbridge:HIS:104    NaN
saltbridge:HIS:104     -1
Name: 27, dtype: object

>  <pication:HIS:104>  (28) 
pication:HIS:104    NaN
pication:HIS:104     -1
Name: 27, dtype: object

>  <halogenbond:HIS:104>  (28) 
halogenbond:HIS:104    NaN
halogenbond:HIS:104     -1
Name: 27, dtype: object

>  <hydroph_interaction:HIS:104>  (28) 
hydroph_interaction:HIS:104    NaN
hydroph_interaction:HIS:104     -1
Name: 27, dtype: object

>  <pistack:HIS:104>  (28) 
pistack:HIS:104    NaN
pistack:HIS:104     -1
Name: 27, dtype: object

>  <halogenbond:SER:105>  (28) 
halogenbond:SER:105    0.0
halogenbond:SER:105      0
Name: 27, dtype: object

>  <hbond:SER:105>  (28) 
hbond:SER:105    0.0
hbond:SER:105      0
Name: 27, dtype: object

>  <hbond:GLU:106>  (28) 
hbond:GLU:106    0.0
hbond:GLU:106      0
Name: 27, dtype: object

>  <hydroph_interaction:GLU:106>  (28) 
hydroph_interaction:GLU:106    0.0
hydroph_interaction:GLU:106      0
Name: 27, dtype: object

>  <saltbridge:GLU:106>  (28) 
saltbridge:GLU:106    NaN
saltbridge:GLU:106     -1
Name: 27, dtype: object

>  <halogenbond:GLU:106>  (28) 
halogenbond:GLU:106    NaN
halogenbond:GLU:106     -1
Name: 27, dtype: object

>  <hydroph_interaction:PRO:107>  (28) 
hydroph_interaction:PRO:107    0
hydroph_interaction:PRO:107    0
Name: 27, dtype: object

>  <hbond:PRO:107>  (28) 
hbond:PRO:107    0.0
hbond:PRO:107      0
Name: 27, dtype: object

>  <halogenbond:PRO:107>  (28) 
halogenbond:PRO:107    NaN
halogenbond:PRO:107     -1
Name: 27, dtype: object

>  <hbond:GLY:108>  (28) 
hbond:GLY:108    NaN
hbond:GLY:108     -1
Name: 27, dtype: object

>  <halogenbond:GLY:108>  (28) 
halogenbond:GLY:108    NaN
halogenbond:GLY:108     -1
Name: 27, dtype: object

>  <hbond:ASP:109>  (28) 
hbond:ASP:109    0.0
hbond:ASP:109      0
Name: 27, dtype: object

>  <hydroph_interaction:ASP:109>  (28) 
hydroph_interaction:ASP:109    0.0
hydroph_interaction:ASP:109      0
Name: 27, dtype: object

>  <saltbridge:ASP:109>  (28) 
saltbridge:ASP:109    NaN
saltbridge:ASP:109     -1
Name: 27, dtype: object

>  <halogenbond:CYS:110>  (28) 
halogenbond:CYS:110    0.0
halogenbond:CYS:110      0
Name: 27, dtype: object

>  <hbond:CYS:110>  (28) 
hbond:CYS:110    0.0
hbond:CYS:110      0
Name: 27, dtype: object

>  <hbond:GLY:111>  (28) 
hbond:GLY:111    NaN
hbond:GLY:111     -1
Name: 27, dtype: object

>  <hbond:GLY:112>  (28) 
hbond:GLY:112    NaN
hbond:GLY:112     -1
Name: 27, dtype: object

>  <hbond:ILE:113>  (28) 
hbond:ILE:113    NaN
hbond:ILE:113     -1
Name: 27, dtype: object

>  <hydroph_interaction:LEU:114>  (28) 
hydroph_interaction:LEU:114    NaN
hydroph_interaction:LEU:114     -1
Name: 27, dtype: object

>  <hbond:LEU:114>  (28) 
hbond:LEU:114    NaN
hbond:LEU:114     -1
Name: 27, dtype: object

>  <hydroph_interaction:ILE:123>  (28) 
hydroph_interaction:ILE:123    NaN
hydroph_interaction:ILE:123     -1
Name: 27, dtype: object

>  <hbond:ILE:123>  (28) 
hbond:ILE:123    NaN
hbond:ILE:123     -1
Name: 27, dtype: object

>  <hydroph_interaction:VAL:124>  (28) 
hydroph_interaction:VAL:124    1.0
hydroph_interaction:VAL:124      1
Name: 27, dtype: object

>  <hbond:VAL:124>  (28) 
hbond:VAL:124    0.0
hbond:VAL:124      0
Name: 27, dtype: object

>  <halogenbond:VAL:124>  (28) 
halogenbond:VAL:124    NaN
halogenbond:VAL:124     -1
Name: 27, dtype: object

>  <hbond:SER:125>  (28) 
hbond:SER:125    1
hbond:SER:125    1
Name: 27, dtype: object

>  <halogenbond:SER:125>  (28) 
halogenbond:SER:125    NaN
halogenbond:SER:125     -1
Name: 27, dtype: object

>  <hydroph_interaction:THR:126>  (28) 
hydroph_interaction:THR:126    0.0
hydroph_interaction:THR:126      0
Name: 27, dtype: object

>  <hbond:THR:126>  (28) 
hbond:THR:126    0.0
hbond:THR:126      0
Name: 27, dtype: object

>  <halogenbond:THR:126>  (28) 
halogenbond:THR:126    NaN
halogenbond:THR:126     -1
Name: 27, dtype: object

>  <hbond:GLY:127>  (28) 
hbond:GLY:127    0
hbond:GLY:127    0
Name: 27, dtype: object

>  <halogenbond:GLY:127>  (28) 
halogenbond:GLY:127    NaN
halogenbond:GLY:127     -1
Name: 27, dtype: object

>  <hydroph_interaction:GLY:127>  (28) 
hydroph_interaction:GLY:127    NaN
hydroph_interaction:GLY:127     -1
Name: 27, dtype: object

>  <hbond:GLY:128>  (28) 
hbond:GLY:128    0.0
hbond:GLY:128      0
Name: 27, dtype: object

>  <halogenbond:GLY:128>  (28) 
halogenbond:GLY:128    NaN
halogenbond:GLY:128     -1
Name: 27, dtype: object

>  <hydroph_interaction:GLY:128>  (28) 
hydroph_interaction:GLY:128    NaN
hydroph_interaction:GLY:128     -1
Name: 27, dtype: object

>  <hbond:ASN:129>  (28) 
hbond:ASN:129    0.0
hbond:ASN:129      0
Name: 27, dtype: object

>  <hydroph_interaction:ASN:129>  (28) 
hydroph_interaction:ASN:129    0.0
hydroph_interaction:ASN:129      0
Name: 27, dtype: object

>  <halogenbond:ASN:129>  (28) 
halogenbond:ASN:129    0.0
halogenbond:ASN:129      0
Name: 27, dtype: object

>  <hbond:GLY:130>  (28) 
hbond:GLY:130    0.0
hbond:GLY:130      0
Name: 27, dtype: object

>  <hbond:LEU:131>  (28) 
hbond:LEU:131    0.0
hbond:LEU:131      0
Name: 27, dtype: object

>  <hydroph_interaction:LEU:131>  (28) 
hydroph_interaction:LEU:131    0.0
hydroph_interaction:LEU:131      0
Name: 27, dtype: object

>  <halogenbond:LEU:131>  (28) 
halogenbond:LEU:131    NaN
halogenbond:LEU:131     -1
Name: 27, dtype: object

>  <hydroph_interaction:VAL:132>  (28) 
hydroph_interaction:VAL:132    0.0
hydroph_interaction:VAL:132      0
Name: 27, dtype: object

>  <hbond:VAL:132>  (28) 
hbond:VAL:132    0.0
hbond:VAL:132      0
Name: 27, dtype: object

>  <hbond:GLY:133>  (28) 
hbond:GLY:133    0.0
hbond:GLY:133      0
Name: 27, dtype: object

>  <halogenbond:GLY:133>  (28) 
halogenbond:GLY:133    NaN
halogenbond:GLY:133     -1
Name: 27, dtype: object

>  <hydroph_interaction:PHE:134>  (28) 
hydroph_interaction:PHE:134    0.0
hydroph_interaction:PHE:134      0
Name: 27, dtype: object

>  <hbond:PHE:134>  (28) 
hbond:PHE:134    NaN
hbond:PHE:134     -1
Name: 27, dtype: object

>  <pistack:PHE:134>  (28) 
pistack:PHE:134    NaN
pistack:PHE:134     -1
Name: 27, dtype: object

>  <pication:PHE:134>  (28) 
pication:PHE:134    NaN
pication:PHE:134     -1
Name: 27, dtype: object

>  <halogenbond:PHE:134>  (28) 
halogenbond:PHE:134    NaN
halogenbond:PHE:134     -1
Name: 27, dtype: object

>  <hydroph_interaction:ALA:135>  (28) 
hydroph_interaction:ALA:135    NaN
hydroph_interaction:ALA:135     -1
Name: 27, dtype: object

>  <hbond:ALA:135>  (28) 
hbond:ALA:135    NaN
hbond:ALA:135     -1
Name: 27, dtype: object

$$$$
PV_002880413010
     RDKit          3D

 26 26  0  0  0  0  0  0  0  0999 V2000
   12.9110   15.7320   21.7620 C   0  0  0  0  0  0  0  0  0  0  0  0
   12.1770   14.5230   21.4480 C   0  0  0  0  0  0  0  0  0  0  0  0
   10.8410   14.5600   22.0010 N   0  0  0  0  0  0  0  0  0  0  0  0
    9.6980   14.4920   21.1030 C   0  0  0  0  0  0  0  0  0  0  0  0
   10.5810   14.0110   23.1760 C   0  0  0  0  0  0  0  0  0  0  0  0
   10.8470   14.6330   24.2020 O   0  0  0  0  0  0  0  0  0  0  0  0
   10.0120   12.6280   23.3510 C   0  0  0  0  0  0  0  0  0  0  0  0
    8.8780   12.3570   24.3590 C   0  0  0  0  0  0  0  0  0  0  0  0
    8.6940   10.8860   24.1670 C   0  0  0  0  0  0  0  0  0  0  0  0
    9.6600   10.4020   23.1210 C   0  0  0  0  0  0  0  0  0  0  0  0
    9.7340    8.9930   22.6870 C   0  0  0  0  0  0  0  0  0  0  0  0
   10.3950   11.4690   22.6870 N   0  0  0  0  0  0  0  0  0  0  0  0
   13.4500   15.5830   22.6970 H   0  0  0  0  0  0  0  0  0  0  0  0
   12.2220   16.5720   21.8810 H   0  0  0  0  0  0  0  0  0  0  0  0
   13.6140   15.9700   20.9650 H   0  0  0  0  0  0  0  0  0  0  0  0
   12.7070   13.6510   21.8500 H   0  0  0  0  0  0  0  0  0  0  0  0
   12.1320   14.3990   20.3570 H   0  0  0  0  0  0  0  0  0  0  0  0
    9.9870   13.9390   20.2070 H   0  0  0  0  0  0  0  0  0  0  0  0
    8.8330   13.9860   21.5470 H   0  0  0  0  0  0  0  0  0  0  0  0
    9.3920   15.4950   20.8020 H   0  0  0  0  0  0  0  0  0  0  0  0
    8.3600   13.0330   25.0240 H   0  0  0  0  0  0  0  0  0  0  0  0
    7.9630   10.2790   24.7110 H   0  0  0  0  0  0  0  0  0  0  0  0
   10.0960    8.7260   21.6910 H   0  0  0  0  0  0  0  0  0  0  0  0
    8.7270    8.6130   22.7420 H   0  0  0  0  0  0  0  0  0  0  0  0
   10.3400    8.4220   23.3910 H   0  0  0  0  0  0  0  0  0  0  0  0
   11.1270   11.4500   21.9790 H   0  0  0  0  0  0  0  0  0  0  0  0
  1  2  1  0
  2  3  1  0
  3  4  1  0
  3  5  1  0
  5  6  2  0
  5  7  1  0
  7  8  2  0
  8  9  1  0
  9 10  2  0
 10 11  1  0
 10 12  1  0
 12  7  1  0
  1 13  1  0
  1 14  1  0
  1 15  1  0
  2 16  1  0
  2 17  1  0
  4 18  1  0
  4 19  1  0
  4 20  1  0
  8 21  1  0
  9 22  1  0
 11 23  1  0
 11 24  1  0
 11 25  1  0
 12 26  1  0
A    1
 C1 
A    2
 C2 
A    3
 N1 
A    4
 C3 
A    5
 C4 
A    6
 O1 
A    7
 C5 
A    8
 C6 
A    9
 C7 
A   10
 C8 
A   11
 C9 
A   12
 N2 
A   13
 H1 
A   14
 H2 
A   15
 H3 
A   16
 H4 
A   17
 H5 
A   18
 H6 
A   19
 H7 
A   20
 H8 
A   21
 H9 
A   22
 H10
A   23
 H11
A   24
 H12
A   25
 H13
A   26
 H14
M  END
>  <ref_pdb>  (29) 
x0310_0A

>  <ref_mols>  (29) 
x0473_0A,x0451_0A

>  <original SMILES>  (29) 
CCN(C)C(=O)c1ccc(C)[nH]1

>  <rationale>  (29) 
info halogenbond:S105+C110+D39+A86+S125+E85+Q95+E106+E88+P107+H104+Y64+C65+S87+R93+I82+P91+N19+H21+V84+G133+Y90+Y89+H97+L81+F134+L98+R20+G103+S66+S67+S7+G108+R38+V124+M99+S36; hbond:H21+Y90+P107+D39+C110+D109+G108+G103+N19+H104+R68+V124+R93+P91+S67+S7+S66+G112+R20+Y89+A135+Y63+A92+F134+L100+Y64+S36+V84+L81+Y94+S80+R38+S37+V102+G8+G111+I113+L114+C65+L22+S96; hydroph_interaction:V124+Y90+Y89+H21+P107+L22+E106+D109+D39+N19+L40+I123+R93+H104+R20+A86+P91+F76+M99+L114+A92+R68+Y72+Y64+V18+V102+W28+G127+G128; pication:H21+H104+R93+Y63+F134+Y90+R68+F83+R20; pistack:H21+Y89+Y90+H104+F134+Y63+F83+Y94; saltbridge:D39+R93+H104+E106+D109+E88+R68+R20; 

>  <intxn_cluster>  (29) 
-1

>  <intxn_cluster_rank>  (29) 
-1

>  <N_interactions>  (29) 
4

>  <∆∆G>  (29) 
-10.234705

>  <$/mg>  (29) 
0.0

>  <comRMSD>  (29) 
0.436935

>  <N_rotatable_bonds>  (29) 
5

>  <deep_P1_sidechain>  (29) 
nan

>  <farthest_distance_to_substrate>  (29) 
2.421649

>  <hbond:SER:7>  (29) 
hbond:SER:7    NaN
hbond:SER:7     -1
Name: 28, dtype: object

>  <halogenbond:SER:7>  (29) 
halogenbond:SER:7    NaN
halogenbond:SER:7     -1
Name: 28, dtype: object

>  <hbond:GLY:8>  (29) 
hbond:GLY:8    NaN
hbond:GLY:8     -1
Name: 28, dtype: object

>  <hydroph_interaction:VAL:18>  (29) 
hydroph_interaction:VAL:18    NaN
hydroph_interaction:VAL:18     -1
Name: 28, dtype: object

>  <hbond:ASN:19>  (29) 
hbond:ASN:19    NaN
hbond:ASN:19     -1
Name: 28, dtype: object

>  <hydroph_interaction:ASN:19>  (29) 
hydroph_interaction:ASN:19    NaN
hydroph_interaction:ASN:19     -1
Name: 28, dtype: object

>  <halogenbond:ASN:19>  (29) 
halogenbond:ASN:19    NaN
halogenbond:ASN:19     -1
Name: 28, dtype: object

>  <hbond:ARG:20>  (29) 
hbond:ARG:20    NaN
hbond:ARG:20     -1
Name: 28, dtype: object

>  <hydroph_interaction:ARG:20>  (29) 
hydroph_interaction:ARG:20    NaN
hydroph_interaction:ARG:20     -1
Name: 28, dtype: object

>  <saltbridge:ARG:20>  (29) 
saltbridge:ARG:20    NaN
saltbridge:ARG:20     -1
Name: 28, dtype: object

>  <halogenbond:ARG:20>  (29) 
halogenbond:ARG:20    NaN
halogenbond:ARG:20     -1
Name: 28, dtype: object

>  <pication:ARG:20>  (29) 
pication:ARG:20    NaN
pication:ARG:20     -1
Name: 28, dtype: object

>  <hbond:HIS:21>  (29) 
hbond:HIS:21    NaN
hbond:HIS:21     -1
Name: 28, dtype: object

>  <hydroph_interaction:HIS:21>  (29) 
hydroph_interaction:HIS:21    NaN
hydroph_interaction:HIS:21     -1
Name: 28, dtype: object

>  <pistack:HIS:21>  (29) 
pistack:HIS:21    NaN
pistack:HIS:21     -1
Name: 28, dtype: object

>  <pication:HIS:21>  (29) 
pication:HIS:21    NaN
pication:HIS:21     -1
Name: 28, dtype: object

>  <saltbridge:HIS:21>  (29) 
saltbridge:HIS:21    0.0
saltbridge:HIS:21      0
Name: 28, dtype: object

>  <halogenbond:HIS:21>  (29) 
halogenbond:HIS:21    NaN
halogenbond:HIS:21     -1
Name: 28, dtype: object

>  <hydroph_interaction:LEU:22>  (29) 
hydroph_interaction:LEU:22    NaN
hydroph_interaction:LEU:22     -1
Name: 28, dtype: object

>  <hbond:LEU:22>  (29) 
hbond:LEU:22    NaN
hbond:LEU:22     -1
Name: 28, dtype: object

>  <hydroph_interaction:TRP:28>  (29) 
hydroph_interaction:TRP:28    NaN
hydroph_interaction:TRP:28     -1
Name: 28, dtype: object

>  <hbond:SER:36>  (29) 
hbond:SER:36    NaN
hbond:SER:36     -1
Name: 28, dtype: object

>  <halogenbond:SER:36>  (29) 
halogenbond:SER:36    NaN
halogenbond:SER:36     -1
Name: 28, dtype: object

>  <hbond:SER:37>  (29) 
hbond:SER:37    NaN
hbond:SER:37     -1
Name: 28, dtype: object

>  <hbond:ARG:38>  (29) 
hbond:ARG:38    NaN
hbond:ARG:38     -1
Name: 28, dtype: object

>  <halogenbond:ARG:38>  (29) 
halogenbond:ARG:38    NaN
halogenbond:ARG:38     -1
Name: 28, dtype: object

>  <saltbridge:ASP:39>  (29) 
saltbridge:ASP:39    NaN
saltbridge:ASP:39     -1
Name: 28, dtype: object

>  <halogenbond:ASP:39>  (29) 
halogenbond:ASP:39    NaN
halogenbond:ASP:39     -1
Name: 28, dtype: object

>  <hbond:ASP:39>  (29) 
hbond:ASP:39    NaN
hbond:ASP:39     -1
Name: 28, dtype: object

>  <hydroph_interaction:ASP:39>  (29) 
hydroph_interaction:ASP:39    NaN
hydroph_interaction:ASP:39     -1
Name: 28, dtype: object

>  <hydroph_interaction:LEU:40>  (29) 
hydroph_interaction:LEU:40    NaN
hydroph_interaction:LEU:40     -1
Name: 28, dtype: object

>  <hydroph_interaction:TYR:63>  (29) 
hydroph_interaction:TYR:63    0.0
hydroph_interaction:TYR:63      0
Name: 28, dtype: object

>  <hbond:TYR:63>  (29) 
hbond:TYR:63    NaN
hbond:TYR:63     -1
Name: 28, dtype: object

>  <pistack:TYR:63>  (29) 
pistack:TYR:63    NaN
pistack:TYR:63     -1
Name: 28, dtype: object

>  <pication:TYR:63>  (29) 
pication:TYR:63    NaN
pication:TYR:63     -1
Name: 28, dtype: object

>  <halogenbond:TYR:64>  (29) 
halogenbond:TYR:64    NaN
halogenbond:TYR:64     -1
Name: 28, dtype: object

>  <hbond:TYR:64>  (29) 
hbond:TYR:64    NaN
hbond:TYR:64     -1
Name: 28, dtype: object

>  <hydroph_interaction:TYR:64>  (29) 
hydroph_interaction:TYR:64    NaN
hydroph_interaction:TYR:64     -1
Name: 28, dtype: object

>  <halogenbond:CYS:65>  (29) 
halogenbond:CYS:65    NaN
halogenbond:CYS:65     -1
Name: 28, dtype: object

>  <hbond:CYS:65>  (29) 
hbond:CYS:65    NaN
hbond:CYS:65     -1
Name: 28, dtype: object

>  <hbond:SER:66>  (29) 
hbond:SER:66    NaN
hbond:SER:66     -1
Name: 28, dtype: object

>  <halogenbond:SER:66>  (29) 
halogenbond:SER:66    NaN
halogenbond:SER:66     -1
Name: 28, dtype: object

>  <hbond:SER:67>  (29) 
hbond:SER:67    NaN
hbond:SER:67     -1
Name: 28, dtype: object

>  <halogenbond:SER:67>  (29) 
halogenbond:SER:67    NaN
halogenbond:SER:67     -1
Name: 28, dtype: object

>  <hbond:ARG:68>  (29) 
hbond:ARG:68    NaN
hbond:ARG:68     -1
Name: 28, dtype: object

>  <saltbridge:ARG:68>  (29) 
saltbridge:ARG:68    NaN
saltbridge:ARG:68     -1
Name: 28, dtype: object

>  <hydroph_interaction:ARG:68>  (29) 
hydroph_interaction:ARG:68    NaN
hydroph_interaction:ARG:68     -1
Name: 28, dtype: object

>  <pication:ARG:68>  (29) 
pication:ARG:68    NaN
pication:ARG:68     -1
Name: 28, dtype: object

>  <hydroph_interaction:TYR:72>  (29) 
hydroph_interaction:TYR:72    NaN
hydroph_interaction:TYR:72     -1
Name: 28, dtype: object

>  <hydroph_interaction:VAL:74>  (29) 
hydroph_interaction:VAL:74    0.0
hydroph_interaction:VAL:74      0
Name: 28, dtype: object

>  <hydroph_interaction:PHE:76>  (29) 
hydroph_interaction:PHE:76    NaN
hydroph_interaction:PHE:76     -1
Name: 28, dtype: object

>  <hbond:SER:77>  (29) 
hbond:SER:77    0.0
hbond:SER:77      0
Name: 28, dtype: object

>  <hbond:SER:80>  (29) 
hbond:SER:80    NaN
hbond:SER:80     -1
Name: 28, dtype: object

>  <hbond:LEU:81>  (29) 
hbond:LEU:81    NaN
hbond:LEU:81     -1
Name: 28, dtype: object

>  <halogenbond:LEU:81>  (29) 
halogenbond:LEU:81    NaN
halogenbond:LEU:81     -1
Name: 28, dtype: object

>  <hydroph_interaction:LEU:81>  (29) 
hydroph_interaction:LEU:81    0.0
hydroph_interaction:LEU:81      0
Name: 28, dtype: object

>  <hydroph_interaction:ILE:82>  (29) 
hydroph_interaction:ILE:82    0.0
hydroph_interaction:ILE:82      0
Name: 28, dtype: object

>  <halogenbond:ILE:82>  (29) 
halogenbond:ILE:82    NaN
halogenbond:ILE:82     -1
Name: 28, dtype: object

>  <hbond:ILE:82>  (29) 
hbond:ILE:82    0.0
hbond:ILE:82      0
Name: 28, dtype: object

>  <hbond:PHE:83>  (29) 
hbond:PHE:83    0.0
hbond:PHE:83      0
Name: 28, dtype: object

>  <hydroph_interaction:PHE:83>  (29) 
hydroph_interaction:PHE:83    0.0
hydroph_interaction:PHE:83      0
Name: 28, dtype: object

>  <halogenbond:PHE:83>  (29) 
halogenbond:PHE:83    0.0
halogenbond:PHE:83      0
Name: 28, dtype: object

>  <pistack:PHE:83>  (29) 
pistack:PHE:83    NaN
pistack:PHE:83     -1
Name: 28, dtype: object

>  <pication:PHE:83>  (29) 
pication:PHE:83    NaN
pication:PHE:83     -1
Name: 28, dtype: object

>  <hydroph_interaction:VAL:84>  (29) 
hydroph_interaction:VAL:84    0.0
hydroph_interaction:VAL:84      0
Name: 28, dtype: object

>  <halogenbond:VAL:84>  (29) 
halogenbond:VAL:84    NaN
halogenbond:VAL:84     -1
Name: 28, dtype: object

>  <hbond:VAL:84>  (29) 
hbond:VAL:84    NaN
hbond:VAL:84     -1
Name: 28, dtype: object

>  <hydroph_interaction:GLU:85>  (29) 
hydroph_interaction:GLU:85    0.0
hydroph_interaction:GLU:85      0
Name: 28, dtype: object

>  <hbond:GLU:85>  (29) 
hbond:GLU:85    0.0
hbond:GLU:85      0
Name: 28, dtype: object

>  <halogenbond:GLU:85>  (29) 
halogenbond:GLU:85    NaN
halogenbond:GLU:85     -1
Name: 28, dtype: object

>  <saltbridge:GLU:85>  (29) 
saltbridge:GLU:85    0.0
saltbridge:GLU:85      0
Name: 28, dtype: object

>  <halogenbond:ALA:86>  (29) 
halogenbond:ALA:86    NaN
halogenbond:ALA:86     -1
Name: 28, dtype: object

>  <hbond:ALA:86>  (29) 
hbond:ALA:86    0.0
hbond:ALA:86      0
Name: 28, dtype: object

>  <hydroph_interaction:ALA:86>  (29) 
hydroph_interaction:ALA:86    NaN
hydroph_interaction:ALA:86     -1
Name: 28, dtype: object

>  <hbond:SER:87>  (29) 
hbond:SER:87    0
hbond:SER:87    0
Name: 28, dtype: object

>  <halogenbond:SER:87>  (29) 
halogenbond:SER:87    NaN
halogenbond:SER:87     -1
Name: 28, dtype: object

>  <hbond:GLU:88>  (29) 
hbond:GLU:88    0.0
hbond:GLU:88      0
Name: 28, dtype: object

>  <hydroph_interaction:GLU:88>  (29) 
hydroph_interaction:GLU:88    0.0
hydroph_interaction:GLU:88      0
Name: 28, dtype: object

>  <halogenbond:GLU:88>  (29) 
halogenbond:GLU:88    NaN
halogenbond:GLU:88     -1
Name: 28, dtype: object

>  <saltbridge:GLU:88>  (29) 
saltbridge:GLU:88    NaN
saltbridge:GLU:88     -1
Name: 28, dtype: object

>  <hydroph_interaction:TYR:89>  (29) 
hydroph_interaction:TYR:89    1.0
hydroph_interaction:TYR:89      1
Name: 28, dtype: object

>  <pistack:TYR:89>  (29) 
pistack:TYR:89    NaN
pistack:TYR:89     -1
Name: 28, dtype: object

>  <hbond:TYR:89>  (29) 
hbond:TYR:89    NaN
hbond:TYR:89     -1
Name: 28, dtype: object

>  <halogenbond:TYR:89>  (29) 
halogenbond:TYR:89    NaN
halogenbond:TYR:89     -1
Name: 28, dtype: object

>  <hydroph_interaction:TYR:90>  (29) 
hydroph_interaction:TYR:90    1.0
hydroph_interaction:TYR:90      1
Name: 28, dtype: object

>  <hbond:TYR:90>  (29) 
hbond:TYR:90    NaN
hbond:TYR:90     -1
Name: 28, dtype: object

>  <pistack:TYR:90>  (29) 
pistack:TYR:90    NaN
pistack:TYR:90     -1
Name: 28, dtype: object

>  <halogenbond:TYR:90>  (29) 
halogenbond:TYR:90    NaN
halogenbond:TYR:90     -1
Name: 28, dtype: object

>  <pication:TYR:90>  (29) 
pication:TYR:90    NaN
pication:TYR:90     -1
Name: 28, dtype: object

>  <hbond:PRO:91>  (29) 
hbond:PRO:91    NaN
hbond:PRO:91     -1
Name: 28, dtype: object

>  <hydroph_interaction:PRO:91>  (29) 
hydroph_interaction:PRO:91    NaN
hydroph_interaction:PRO:91     -1
Name: 28, dtype: object

>  <halogenbond:PRO:91>  (29) 
halogenbond:PRO:91    NaN
halogenbond:PRO:91     -1
Name: 28, dtype: object

>  <hbond:ALA:92>  (29) 
hbond:ALA:92    NaN
hbond:ALA:92     -1
Name: 28, dtype: object

>  <hydroph_interaction:ALA:92>  (29) 
hydroph_interaction:ALA:92    NaN
hydroph_interaction:ALA:92     -1
Name: 28, dtype: object

>  <saltbridge:ARG:93>  (29) 
saltbridge:ARG:93    NaN
saltbridge:ARG:93     -1
Name: 28, dtype: object

>  <hbond:ARG:93>  (29) 
hbond:ARG:93    NaN
hbond:ARG:93     -1
Name: 28, dtype: object

>  <hydroph_interaction:ARG:93>  (29) 
hydroph_interaction:ARG:93    NaN
hydroph_interaction:ARG:93     -1
Name: 28, dtype: object

>  <halogenbond:ARG:93>  (29) 
halogenbond:ARG:93    NaN
halogenbond:ARG:93     -1
Name: 28, dtype: object

>  <pication:ARG:93>  (29) 
pication:ARG:93    NaN
pication:ARG:93     -1
Name: 28, dtype: object

>  <hydroph_interaction:TYR:94>  (29) 
hydroph_interaction:TYR:94    0.0
hydroph_interaction:TYR:94      0
Name: 28, dtype: object

>  <pistack:TYR:94>  (29) 
pistack:TYR:94    NaN
pistack:TYR:94     -1
Name: 28, dtype: object

>  <hbond:TYR:94>  (29) 
hbond:TYR:94    NaN
hbond:TYR:94     -1
Name: 28, dtype: object

>  <hbond:GLN:95>  (29) 
hbond:GLN:95    0.0
hbond:GLN:95      0
Name: 28, dtype: object

>  <hydroph_interaction:GLN:95>  (29) 
hydroph_interaction:GLN:95    0.0
hydroph_interaction:GLN:95      0
Name: 28, dtype: object

>  <halogenbond:GLN:95>  (29) 
halogenbond:GLN:95    NaN
halogenbond:GLN:95     -1
Name: 28, dtype: object

>  <hbond:SER:96>  (29) 
hbond:SER:96    NaN
hbond:SER:96     -1
Name: 28, dtype: object

>  <halogenbond:HIS:97>  (29) 
halogenbond:HIS:97    NaN
halogenbond:HIS:97     -1
Name: 28, dtype: object

>  <hydroph_interaction:LEU:98>  (29) 
hydroph_interaction:LEU:98    0.0
hydroph_interaction:LEU:98      0
Name: 28, dtype: object

>  <hbond:LEU:98>  (29) 
hbond:LEU:98    0.0
hbond:LEU:98      0
Name: 28, dtype: object

>  <halogenbond:LEU:98>  (29) 
halogenbond:LEU:98    NaN
halogenbond:LEU:98     -1
Name: 28, dtype: object

>  <hbond:MET:99>  (29) 
hbond:MET:99    0.0
hbond:MET:99      0
Name: 28, dtype: object

>  <hydroph_interaction:MET:99>  (29) 
hydroph_interaction:MET:99    NaN
hydroph_interaction:MET:99     -1
Name: 28, dtype: object

>  <halogenbond:MET:99>  (29) 
halogenbond:MET:99    NaN
halogenbond:MET:99     -1
Name: 28, dtype: object

>  <hydroph_interaction:LEU:100>  (29) 
hydroph_interaction:LEU:100    0.0
hydroph_interaction:LEU:100      0
Name: 28, dtype: object

>  <hbond:LEU:100>  (29) 
hbond:LEU:100    NaN
hbond:LEU:100     -1
Name: 28, dtype: object

>  <hbond:ALA:101>  (29) 
hbond:ALA:101    0.0
hbond:ALA:101      0
Name: 28, dtype: object

>  <hydroph_interaction:ALA:101>  (29) 
hydroph_interaction:ALA:101    0.0
hydroph_interaction:ALA:101      0
Name: 28, dtype: object

>  <hydroph_interaction:VAL:102>  (29) 
hydroph_interaction:VAL:102    NaN
hydroph_interaction:VAL:102     -1
Name: 28, dtype: object

>  <hbond:VAL:102>  (29) 
hbond:VAL:102    NaN
hbond:VAL:102     -1
Name: 28, dtype: object

>  <hbond:GLY:103>  (29) 
hbond:GLY:103    NaN
hbond:GLY:103     -1
Name: 28, dtype: object

>  <halogenbond:GLY:103>  (29) 
halogenbond:GLY:103    NaN
halogenbond:GLY:103     -1
Name: 28, dtype: object

>  <hbond:HIS:104>  (29) 
hbond:HIS:104    NaN
hbond:HIS:104     -1
Name: 28, dtype: object

>  <saltbridge:HIS:104>  (29) 
saltbridge:HIS:104    NaN
saltbridge:HIS:104     -1
Name: 28, dtype: object

>  <pication:HIS:104>  (29) 
pication:HIS:104    NaN
pication:HIS:104     -1
Name: 28, dtype: object

>  <halogenbond:HIS:104>  (29) 
halogenbond:HIS:104    NaN
halogenbond:HIS:104     -1
Name: 28, dtype: object

>  <hydroph_interaction:HIS:104>  (29) 
hydroph_interaction:HIS:104    NaN
hydroph_interaction:HIS:104     -1
Name: 28, dtype: object

>  <pistack:HIS:104>  (29) 
pistack:HIS:104    NaN
pistack:HIS:104     -1
Name: 28, dtype: object

>  <halogenbond:SER:105>  (29) 
halogenbond:SER:105    NaN
halogenbond:SER:105     -1
Name: 28, dtype: object

>  <hbond:SER:105>  (29) 
hbond:SER:105    0.0
hbond:SER:105      0
Name: 28, dtype: object

>  <hbond:GLU:106>  (29) 
hbond:GLU:106    0.0
hbond:GLU:106      0
Name: 28, dtype: object

>  <hydroph_interaction:GLU:106>  (29) 
hydroph_interaction:GLU:106    NaN
hydroph_interaction:GLU:106     -1
Name: 28, dtype: object

>  <saltbridge:GLU:106>  (29) 
saltbridge:GLU:106    NaN
saltbridge:GLU:106     -1
Name: 28, dtype: object

>  <halogenbond:GLU:106>  (29) 
halogenbond:GLU:106    NaN
halogenbond:GLU:106     -1
Name: 28, dtype: object

>  <hydroph_interaction:PRO:107>  (29) 
hydroph_interaction:PRO:107    1
hydroph_interaction:PRO:107    1
Name: 28, dtype: object

>  <hbond:PRO:107>  (29) 
hbond:PRO:107    NaN
hbond:PRO:107     -1
Name: 28, dtype: object

>  <halogenbond:PRO:107>  (29) 
halogenbond:PRO:107    NaN
halogenbond:PRO:107     -1
Name: 28, dtype: object

>  <hbond:GLY:108>  (29) 
hbond:GLY:108    NaN
hbond:GLY:108     -1
Name: 28, dtype: object

>  <halogenbond:GLY:108>  (29) 
halogenbond:GLY:108    NaN
halogenbond:GLY:108     -1
Name: 28, dtype: object

>  <hbond:ASP:109>  (29) 
hbond:ASP:109    NaN
hbond:ASP:109     -1
Name: 28, dtype: object

>  <hydroph_interaction:ASP:109>  (29) 
hydroph_interaction:ASP:109    NaN
hydroph_interaction:ASP:109     -1
Name: 28, dtype: object

>  <saltbridge:ASP:109>  (29) 
saltbridge:ASP:109    NaN
saltbridge:ASP:109     -1
Name: 28, dtype: object

>  <halogenbond:CYS:110>  (29) 
halogenbond:CYS:110    NaN
halogenbond:CYS:110     -1
Name: 28, dtype: object

>  <hbond:CYS:110>  (29) 
hbond:CYS:110    NaN
hbond:CYS:110     -1
Name: 28, dtype: object

>  <hbond:GLY:111>  (29) 
hbond:GLY:111    NaN
hbond:GLY:111     -1
Name: 28, dtype: object

>  <hbond:GLY:112>  (29) 
hbond:GLY:112    NaN
hbond:GLY:112     -1
Name: 28, dtype: object

>  <hbond:ILE:113>  (29) 
hbond:ILE:113    NaN
hbond:ILE:113     -1
Name: 28, dtype: object

>  <hydroph_interaction:LEU:114>  (29) 
hydroph_interaction:LEU:114    NaN
hydroph_interaction:LEU:114     -1
Name: 28, dtype: object

>  <hbond:LEU:114>  (29) 
hbond:LEU:114    NaN
hbond:LEU:114     -1
Name: 28, dtype: object

>  <hydroph_interaction:ILE:123>  (29) 
hydroph_interaction:ILE:123    NaN
hydroph_interaction:ILE:123     -1
Name: 28, dtype: object

>  <hbond:ILE:123>  (29) 
hbond:ILE:123    0.0
hbond:ILE:123      0
Name: 28, dtype: object

>  <hydroph_interaction:VAL:124>  (29) 
hydroph_interaction:VAL:124    1.0
hydroph_interaction:VAL:124      1
Name: 28, dtype: object

>  <hbond:VAL:124>  (29) 
hbond:VAL:124    NaN
hbond:VAL:124     -1
Name: 28, dtype: object

>  <halogenbond:VAL:124>  (29) 
halogenbond:VAL:124    NaN
halogenbond:VAL:124     -1
Name: 28, dtype: object

>  <hbond:SER:125>  (29) 
hbond:SER:125    0
hbond:SER:125    0
Name: 28, dtype: object

>  <halogenbond:SER:125>  (29) 
halogenbond:SER:125    NaN
halogenbond:SER:125     -1
Name: 28, dtype: object

>  <hydroph_interaction:THR:126>  (29) 
hydroph_interaction:THR:126    0.0
hydroph_interaction:THR:126      0
Name: 28, dtype: object

>  <hbond:THR:126>  (29) 
hbond:THR:126    0.0
hbond:THR:126      0
Name: 28, dtype: object

>  <halogenbond:THR:126>  (29) 
halogenbond:THR:126    0.0
halogenbond:THR:126      0
Name: 28, dtype: object

>  <hbond:GLY:127>  (29) 
hbond:GLY:127    0
hbond:GLY:127    0
Name: 28, dtype: object

>  <halogenbond:GLY:127>  (29) 
halogenbond:GLY:127    0.0
halogenbond:GLY:127      0
Name: 28, dtype: object

>  <hydroph_interaction:GLY:127>  (29) 
hydroph_interaction:GLY:127    NaN
hydroph_interaction:GLY:127     -1
Name: 28, dtype: object

>  <hbond:GLY:128>  (29) 
hbond:GLY:128    0.0
hbond:GLY:128      0
Name: 28, dtype: object

>  <halogenbond:GLY:128>  (29) 
halogenbond:GLY:128    0.0
halogenbond:GLY:128      0
Name: 28, dtype: object

>  <hydroph_interaction:GLY:128>  (29) 
hydroph_interaction:GLY:128    NaN
hydroph_interaction:GLY:128     -1
Name: 28, dtype: object

>  <hbond:ASN:129>  (29) 
hbond:ASN:129    0.0
hbond:ASN:129      0
Name: 28, dtype: object

>  <hydroph_interaction:ASN:129>  (29) 
hydroph_interaction:ASN:129    0.0
hydroph_interaction:ASN:129      0
Name: 28, dtype: object

>  <halogenbond:ASN:129>  (29) 
halogenbond:ASN:129    0.0
halogenbond:ASN:129      0
Name: 28, dtype: object

>  <hbond:GLY:130>  (29) 
hbond:GLY:130    0.0
hbond:GLY:130      0
Name: 28, dtype: object

>  <hbond:LEU:131>  (29) 
hbond:LEU:131    0.0
hbond:LEU:131      0
Name: 28, dtype: object

>  <hydroph_interaction:LEU:131>  (29) 
hydroph_interaction:LEU:131    0.0
hydroph_interaction:LEU:131      0
Name: 28, dtype: object

>  <halogenbond:LEU:131>  (29) 
halogenbond:LEU:131    0.0
halogenbond:LEU:131      0
Name: 28, dtype: object

>  <hydroph_interaction:VAL:132>  (29) 
hydroph_interaction:VAL:132    0.0
hydroph_interaction:VAL:132      0
Name: 28, dtype: object

>  <hbond:VAL:132>  (29) 
hbond:VAL:132    0.0
hbond:VAL:132      0
Name: 28, dtype: object

>  <hbond:GLY:133>  (29) 
hbond:GLY:133    0.0
hbond:GLY:133      0
Name: 28, dtype: object

>  <halogenbond:GLY:133>  (29) 
halogenbond:GLY:133    NaN
halogenbond:GLY:133     -1
Name: 28, dtype: object

>  <hydroph_interaction:PHE:134>  (29) 
hydroph_interaction:PHE:134    0.0
hydroph_interaction:PHE:134      0
Name: 28, dtype: object

>  <hbond:PHE:134>  (29) 
hbond:PHE:134    NaN
hbond:PHE:134     -1
Name: 28, dtype: object

>  <pistack:PHE:134>  (29) 
pistack:PHE:134    NaN
pistack:PHE:134     -1
Name: 28, dtype: object

>  <pication:PHE:134>  (29) 
pication:PHE:134    NaN
pication:PHE:134     -1
Name: 28, dtype: object

>  <halogenbond:PHE:134>  (29) 
halogenbond:PHE:134    NaN
halogenbond:PHE:134     -1
Name: 28, dtype: object

>  <hydroph_interaction:ALA:135>  (29) 
hydroph_interaction:ALA:135    0.0
hydroph_interaction:ALA:135      0
Name: 28, dtype: object

>  <hbond:ALA:135>  (29) 
hbond:ALA:135    NaN
hbond:ALA:135     -1
Name: 28, dtype: object

$$$$
PV_003025330674
     RDKit          3D

 25 26  0  0  0  0  0  0  0  0999 V2000
   11.7880   15.6160   21.3650 C   0  0  0  0  0  0  0  0  0  0  0  0
   11.0110   14.3770   21.6740 C   0  0  0  0  0  0  0  0  0  0  0  0
   10.7850   13.7890   23.0460 C   0  0  0  0  0  0  0  0  0  0  0  0
   11.3400   14.4370   24.2760 C   0  0  0  0  0  0  0  0  0  0  0  0
   10.0610   12.5740   23.3400 C   0  0  0  0  0  0  0  0  0  0  0  0
   10.3900   11.3900   22.8010 N   0  0  0  0  0  0  0  0  0  0  0  0
    9.5220   10.5060   23.3370 N   0  0  0  0  0  0  0  0  0  0  0  0
    8.6390   11.0700   24.2000 C   0  0  0  0  0  0  0  0  0  0  0  0
    7.5990   10.5580   24.9700 C   0  0  0  0  0  0  0  0  0  0  0  0
    6.8400   11.4160   25.7760 C   0  0  0  0  0  0  0  0  0  0  0  0
    7.1390   12.7870   25.8010 C   0  0  0  0  0  0  0  0  0  0  0  0
    8.1860   13.2920   25.0320 C   0  0  0  0  0  0  0  0  0  0  0  0
    8.9450   12.4420   24.2280 C   0  0  0  0  0  0  0  0  0  0  0  0
   12.6260   15.4300   20.6880 H   0  0  0  0  0  0  0  0  0  0  0  0
   12.1760   16.0320   22.2990 H   0  0  0  0  0  0  0  0  0  0  0  0
   11.1110   16.3440   20.9160 H   0  0  0  0  0  0  0  0  0  0  0  0
   10.5910   13.8820   20.8060 H   0  0  0  0  0  0  0  0  0  0  0  0
   10.5840   14.4910   25.0700 H   0  0  0  0  0  0  0  0  0  0  0  0
   12.2030   13.8750   24.6450 H   0  0  0  0  0  0  0  0  0  0  0  0
   11.7100   15.4400   24.0910 H   0  0  0  0  0  0  0  0  0  0  0  0
    9.5970    9.5310   23.0670 H   0  0  0  0  0  0  0  0  0  0  0  0
    7.3720    9.4990   24.9470 H   0  0  0  0  0  0  0  0  0  0  0  0
    6.0190   11.0170   26.3820 H   0  0  0  0  0  0  0  0  0  0  0  0
    6.5550   13.4600   26.4220 H   0  0  0  0  0  0  0  0  0  0  0  0
    8.4140   14.3630   25.0600 H   0  0  0  0  0  0  0  0  0  0  0  0
  1  2  1  0
  2  3  2  3
  3  4  1  0
  3  5  1  0
  5  6  2  0
  6  7  1  0
  7  8  1  0
  8  9  2  0
  9 10  1  0
 10 11  2  0
 11 12  1  0
 12 13  2  0
 13  5  1  0
 13  8  1  0
  1 14  1  0
  1 15  1  0
  1 16  1  0
  2 17  1  0
  4 18  1  0
  4 19  1  0
  4 20  1  0
  7 21  1  0
  9 22  1  0
 10 23  1  0
 11 24  1  0
 12 25  1  0
A    1
 C1 
A    2
 C2 
A    3
 C3 
A    4
 C4 
A    5
 C5 
A    6
 N1 
A    7
 N2 
A    8
 C6 
A    9
 C7 
A   10
 C8 
A   11
 C9 
A   12
 C10
A   13
 C11
A   14
 H1 
A   15
 H2 
A   16
 H3 
A   17
 H4 
A   18
 H5 
A   19
 H6 
A   20
 H7 
A   21
 H8 
A   22
 H9 
A   23
 H10
A   24
 H11
A   25
 H12
M  END
>  <ref_pdb>  (30) 
x0310_0A

>  <ref_mols>  (30) 
x0451_0A,x0528_0A

>  <original SMILES>  (30) 
CC=C(C)c1n[nH]c2ccccc12

>  <rationale>  (30) 
info halogenbond:C110+G127+D39+A86+S125+E85+Q95+E106+E88+T126+P107+H104+Y64+C65+S87+N129+F83+R93+L131+I82+G128+P91+N19+H21+V84+G133+Y90+Y89+H97+L81+F134+L98+R20+G103+S66+S67+S7+G108+R38+V124+M99+S36; hbond:Q95+A86+E85+G108+G103+G128+G130+L131+N129+N19+H104+R68+V124+R93+P91+F83+S67+S7+S66+G112+G133+V132+R20+Y89+S77+A135+Y63+A92+A101+M99+F134+L100+I82+Y64+S36+L98+V84+L81+Y94+S80+R38+S37+V102+G8+I123+G111+I113+L114+C65+L22+S96; hydroph_interaction:Y90+T126+P107+E85+E88+D109+N129+D39+L40+I123+A135+Q95+I82+L100+L98+L131+F83+R93+Y63+F134+H104+R20+A86+V74+P91+A101+F76+M99+L114+A92+Y94+R68+Y72+Y64+V18+V102+W28+G127+G128+L81; pication:H104+R93+Y63+F134+Y90+R68+F83+R20; pistack:H21+Y90+H104+F134+Y63+F83+Y94; saltbridge:D39+R93+H104+E106+D109+E85+E88+R68+R20; 

>  <intxn_cluster>  (30) 
-1

>  <intxn_cluster_rank>  (30) 
-1

>  <N_interactions>  (30) 
3

>  <∆∆G>  (30) 
-7.256255

>  <$/mg>  (30) 
163.0

>  <comRMSD>  (30) 
0.834755

>  <N_rotatable_bonds>  (30) 
3

>  <deep_P1_sidechain>  (30) 
nan

>  <farthest_distance_to_substrate>  (30) 
2.597698

>  <hbond:SER:7>  (30) 
hbond:SER:7    NaN
hbond:SER:7     -1
Name: 29, dtype: object

>  <halogenbond:SER:7>  (30) 
halogenbond:SER:7    NaN
halogenbond:SER:7     -1
Name: 29, dtype: object

>  <hbond:GLY:8>  (30) 
hbond:GLY:8    NaN
hbond:GLY:8     -1
Name: 29, dtype: object

>  <hydroph_interaction:VAL:18>  (30) 
hydroph_interaction:VAL:18    NaN
hydroph_interaction:VAL:18     -1
Name: 29, dtype: object

>  <hbond:ASN:19>  (30) 
hbond:ASN:19    NaN
hbond:ASN:19     -1
Name: 29, dtype: object

>  <hydroph_interaction:ASN:19>  (30) 
hydroph_interaction:ASN:19    0.0
hydroph_interaction:ASN:19      0
Name: 29, dtype: object

>  <halogenbond:ASN:19>  (30) 
halogenbond:ASN:19    NaN
halogenbond:ASN:19     -1
Name: 29, dtype: object

>  <hbond:ARG:20>  (30) 
hbond:ARG:20    NaN
hbond:ARG:20     -1
Name: 29, dtype: object

>  <hydroph_interaction:ARG:20>  (30) 
hydroph_interaction:ARG:20    NaN
hydroph_interaction:ARG:20     -1
Name: 29, dtype: object

>  <saltbridge:ARG:20>  (30) 
saltbridge:ARG:20    NaN
saltbridge:ARG:20     -1
Name: 29, dtype: object

>  <halogenbond:ARG:20>  (30) 
halogenbond:ARG:20    NaN
halogenbond:ARG:20     -1
Name: 29, dtype: object

>  <pication:ARG:20>  (30) 
pication:ARG:20    NaN
pication:ARG:20     -1
Name: 29, dtype: object

>  <hbond:HIS:21>  (30) 
hbond:HIS:21    0.0
hbond:HIS:21      0
Name: 29, dtype: object

>  <hydroph_interaction:HIS:21>  (30) 
hydroph_interaction:HIS:21    0.0
hydroph_interaction:HIS:21      0
Name: 29, dtype: object

>  <pistack:HIS:21>  (30) 
pistack:HIS:21    NaN
pistack:HIS:21     -1
Name: 29, dtype: object

>  <pication:HIS:21>  (30) 
pication:HIS:21    0.0
pication:HIS:21      0
Name: 29, dtype: object

>  <saltbridge:HIS:21>  (30) 
saltbridge:HIS:21    0.0
saltbridge:HIS:21      0
Name: 29, dtype: object

>  <halogenbond:HIS:21>  (30) 
halogenbond:HIS:21    NaN
halogenbond:HIS:21     -1
Name: 29, dtype: object

>  <hydroph_interaction:LEU:22>  (30) 
hydroph_interaction:LEU:22    0.0
hydroph_interaction:LEU:22      0
Name: 29, dtype: object

>  <hbond:LEU:22>  (30) 
hbond:LEU:22    NaN
hbond:LEU:22     -1
Name: 29, dtype: object

>  <hydroph_interaction:TRP:28>  (30) 
hydroph_interaction:TRP:28    NaN
hydroph_interaction:TRP:28     -1
Name: 29, dtype: object

>  <hbond:SER:36>  (30) 
hbond:SER:36    NaN
hbond:SER:36     -1
Name: 29, dtype: object

>  <halogenbond:SER:36>  (30) 
halogenbond:SER:36    NaN
halogenbond:SER:36     -1
Name: 29, dtype: object

>  <hbond:SER:37>  (30) 
hbond:SER:37    NaN
hbond:SER:37     -1
Name: 29, dtype: object

>  <hbond:ARG:38>  (30) 
hbond:ARG:38    NaN
hbond:ARG:38     -1
Name: 29, dtype: object

>  <halogenbond:ARG:38>  (30) 
halogenbond:ARG:38    NaN
halogenbond:ARG:38     -1
Name: 29, dtype: object

>  <saltbridge:ASP:39>  (30) 
saltbridge:ASP:39    NaN
saltbridge:ASP:39     -1
Name: 29, dtype: object

>  <halogenbond:ASP:39>  (30) 
halogenbond:ASP:39    NaN
halogenbond:ASP:39     -1
Name: 29, dtype: object

>  <hbond:ASP:39>  (30) 
hbond:ASP:39    0.0
hbond:ASP:39      0
Name: 29, dtype: object

>  <hydroph_interaction:ASP:39>  (30) 
hydroph_interaction:ASP:39    NaN
hydroph_interaction:ASP:39     -1
Name: 29, dtype: object

>  <hydroph_interaction:LEU:40>  (30) 
hydroph_interaction:LEU:40    NaN
hydroph_interaction:LEU:40     -1
Name: 29, dtype: object

>  <hydroph_interaction:TYR:63>  (30) 
hydroph_interaction:TYR:63    NaN
hydroph_interaction:TYR:63     -1
Name: 29, dtype: object

>  <hbond:TYR:63>  (30) 
hbond:TYR:63    NaN
hbond:TYR:63     -1
Name: 29, dtype: object

>  <pistack:TYR:63>  (30) 
pistack:TYR:63    NaN
pistack:TYR:63     -1
Name: 29, dtype: object

>  <pication:TYR:63>  (30) 
pication:TYR:63    NaN
pication:TYR:63     -1
Name: 29, dtype: object

>  <halogenbond:TYR:64>  (30) 
halogenbond:TYR:64    NaN
halogenbond:TYR:64     -1
Name: 29, dtype: object

>  <hbond:TYR:64>  (30) 
hbond:TYR:64    NaN
hbond:TYR:64     -1
Name: 29, dtype: object

>  <hydroph_interaction:TYR:64>  (30) 
hydroph_interaction:TYR:64    NaN
hydroph_interaction:TYR:64     -1
Name: 29, dtype: object

>  <halogenbond:CYS:65>  (30) 
halogenbond:CYS:65    NaN
halogenbond:CYS:65     -1
Name: 29, dtype: object

>  <hbond:CYS:65>  (30) 
hbond:CYS:65    NaN
hbond:CYS:65     -1
Name: 29, dtype: object

>  <hbond:SER:66>  (30) 
hbond:SER:66    NaN
hbond:SER:66     -1
Name: 29, dtype: object

>  <halogenbond:SER:66>  (30) 
halogenbond:SER:66    NaN
halogenbond:SER:66     -1
Name: 29, dtype: object

>  <hbond:SER:67>  (30) 
hbond:SER:67    NaN
hbond:SER:67     -1
Name: 29, dtype: object

>  <halogenbond:SER:67>  (30) 
halogenbond:SER:67    NaN
halogenbond:SER:67     -1
Name: 29, dtype: object

>  <hbond:ARG:68>  (30) 
hbond:ARG:68    NaN
hbond:ARG:68     -1
Name: 29, dtype: object

>  <saltbridge:ARG:68>  (30) 
saltbridge:ARG:68    NaN
saltbridge:ARG:68     -1
Name: 29, dtype: object

>  <hydroph_interaction:ARG:68>  (30) 
hydroph_interaction:ARG:68    NaN
hydroph_interaction:ARG:68     -1
Name: 29, dtype: object

>  <pication:ARG:68>  (30) 
pication:ARG:68    NaN
pication:ARG:68     -1
Name: 29, dtype: object

>  <hydroph_interaction:TYR:72>  (30) 
hydroph_interaction:TYR:72    NaN
hydroph_interaction:TYR:72     -1
Name: 29, dtype: object

>  <hydroph_interaction:VAL:74>  (30) 
hydroph_interaction:VAL:74    NaN
hydroph_interaction:VAL:74     -1
Name: 29, dtype: object

>  <hydroph_interaction:PHE:76>  (30) 
hydroph_interaction:PHE:76    NaN
hydroph_interaction:PHE:76     -1
Name: 29, dtype: object

>  <hbond:SER:77>  (30) 
hbond:SER:77    NaN
hbond:SER:77     -1
Name: 29, dtype: object

>  <hbond:SER:80>  (30) 
hbond:SER:80    NaN
hbond:SER:80     -1
Name: 29, dtype: object

>  <hbond:LEU:81>  (30) 
hbond:LEU:81    NaN
hbond:LEU:81     -1
Name: 29, dtype: object

>  <halogenbond:LEU:81>  (30) 
halogenbond:LEU:81    NaN
halogenbond:LEU:81     -1
Name: 29, dtype: object

>  <hydroph_interaction:LEU:81>  (30) 
hydroph_interaction:LEU:81    NaN
hydroph_interaction:LEU:81     -1
Name: 29, dtype: object

>  <hydroph_interaction:ILE:82>  (30) 
hydroph_interaction:ILE:82    NaN
hydroph_interaction:ILE:82     -1
Name: 29, dtype: object

>  <halogenbond:ILE:82>  (30) 
halogenbond:ILE:82    NaN
halogenbond:ILE:82     -1
Name: 29, dtype: object

>  <hbond:ILE:82>  (30) 
hbond:ILE:82    NaN
hbond:ILE:82     -1
Name: 29, dtype: object

>  <hbond:PHE:83>  (30) 
hbond:PHE:83    NaN
hbond:PHE:83     -1
Name: 29, dtype: object

>  <hydroph_interaction:PHE:83>  (30) 
hydroph_interaction:PHE:83    NaN
hydroph_interaction:PHE:83     -1
Name: 29, dtype: object

>  <halogenbond:PHE:83>  (30) 
halogenbond:PHE:83    NaN
halogenbond:PHE:83     -1
Name: 29, dtype: object

>  <pistack:PHE:83>  (30) 
pistack:PHE:83    NaN
pistack:PHE:83     -1
Name: 29, dtype: object

>  <pication:PHE:83>  (30) 
pication:PHE:83    NaN
pication:PHE:83     -1
Name: 29, dtype: object

>  <hydroph_interaction:VAL:84>  (30) 
hydroph_interaction:VAL:84    0.0
hydroph_interaction:VAL:84      0
Name: 29, dtype: object

>  <halogenbond:VAL:84>  (30) 
halogenbond:VAL:84    NaN
halogenbond:VAL:84     -1
Name: 29, dtype: object

>  <hbond:VAL:84>  (30) 
hbond:VAL:84    NaN
hbond:VAL:84     -1
Name: 29, dtype: object

>  <hydroph_interaction:GLU:85>  (30) 
hydroph_interaction:GLU:85    NaN
hydroph_interaction:GLU:85     -1
Name: 29, dtype: object

>  <hbond:GLU:85>  (30) 
hbond:GLU:85    NaN
hbond:GLU:85     -1
Name: 29, dtype: object

>  <halogenbond:GLU:85>  (30) 
halogenbond:GLU:85    NaN
halogenbond:GLU:85     -1
Name: 29, dtype: object

>  <saltbridge:GLU:85>  (30) 
saltbridge:GLU:85    NaN
saltbridge:GLU:85     -1
Name: 29, dtype: object

>  <halogenbond:ALA:86>  (30) 
halogenbond:ALA:86    NaN
halogenbond:ALA:86     -1
Name: 29, dtype: object

>  <hbond:ALA:86>  (30) 
hbond:ALA:86    NaN
hbond:ALA:86     -1
Name: 29, dtype: object

>  <hydroph_interaction:ALA:86>  (30) 
hydroph_interaction:ALA:86    NaN
hydroph_interaction:ALA:86     -1
Name: 29, dtype: object

>  <hbond:SER:87>  (30) 
hbond:SER:87    0
hbond:SER:87    0
Name: 29, dtype: object

>  <halogenbond:SER:87>  (30) 
halogenbond:SER:87    NaN
halogenbond:SER:87     -1
Name: 29, dtype: object

>  <hbond:GLU:88>  (30) 
hbond:GLU:88    0.0
hbond:GLU:88      0
Name: 29, dtype: object

>  <hydroph_interaction:GLU:88>  (30) 
hydroph_interaction:GLU:88    NaN
hydroph_interaction:GLU:88     -1
Name: 29, dtype: object

>  <halogenbond:GLU:88>  (30) 
halogenbond:GLU:88    NaN
halogenbond:GLU:88     -1
Name: 29, dtype: object

>  <saltbridge:GLU:88>  (30) 
saltbridge:GLU:88    NaN
saltbridge:GLU:88     -1
Name: 29, dtype: object

>  <hydroph_interaction:TYR:89>  (30) 
hydroph_interaction:TYR:89    0.0
hydroph_interaction:TYR:89      0
Name: 29, dtype: object

>  <pistack:TYR:89>  (30) 
pistack:TYR:89    0.0
pistack:TYR:89      0
Name: 29, dtype: object

>  <hbond:TYR:89>  (30) 
hbond:TYR:89    NaN
hbond:TYR:89     -1
Name: 29, dtype: object

>  <halogenbond:TYR:89>  (30) 
halogenbond:TYR:89    NaN
halogenbond:TYR:89     -1
Name: 29, dtype: object

>  <hydroph_interaction:TYR:90>  (30) 
hydroph_interaction:TYR:90    1.0
hydroph_interaction:TYR:90      1
Name: 29, dtype: object

>  <hbond:TYR:90>  (30) 
hbond:TYR:90    0.0
hbond:TYR:90      0
Name: 29, dtype: object

>  <pistack:TYR:90>  (30) 
pistack:TYR:90    NaN
pistack:TYR:90     -1
Name: 29, dtype: object

>  <halogenbond:TYR:90>  (30) 
halogenbond:TYR:90    NaN
halogenbond:TYR:90     -1
Name: 29, dtype: object

>  <pication:TYR:90>  (30) 
pication:TYR:90    NaN
pication:TYR:90     -1
Name: 29, dtype: object

>  <hbond:PRO:91>  (30) 
hbond:PRO:91    NaN
hbond:PRO:91     -1
Name: 29, dtype: object

>  <hydroph_interaction:PRO:91>  (30) 
hydroph_interaction:PRO:91    NaN
hydroph_interaction:PRO:91     -1
Name: 29, dtype: object

>  <halogenbond:PRO:91>  (30) 
halogenbond:PRO:91    NaN
halogenbond:PRO:91     -1
Name: 29, dtype: object

>  <hbond:ALA:92>  (30) 
hbond:ALA:92    NaN
hbond:ALA:92     -1
Name: 29, dtype: object

>  <hydroph_interaction:ALA:92>  (30) 
hydroph_interaction:ALA:92    NaN
hydroph_interaction:ALA:92     -1
Name: 29, dtype: object

>  <saltbridge:ARG:93>  (30) 
saltbridge:ARG:93    NaN
saltbridge:ARG:93     -1
Name: 29, dtype: object

>  <hbond:ARG:93>  (30) 
hbond:ARG:93    NaN
hbond:ARG:93     -1
Name: 29, dtype: object

>  <hydroph_interaction:ARG:93>  (30) 
hydroph_interaction:ARG:93    NaN
hydroph_interaction:ARG:93     -1
Name: 29, dtype: object

>  <halogenbond:ARG:93>  (30) 
halogenbond:ARG:93    NaN
halogenbond:ARG:93     -1
Name: 29, dtype: object

>  <pication:ARG:93>  (30) 
pication:ARG:93    NaN
pication:ARG:93     -1
Name: 29, dtype: object

>  <hydroph_interaction:TYR:94>  (30) 
hydroph_interaction:TYR:94    NaN
hydroph_interaction:TYR:94     -1
Name: 29, dtype: object

>  <pistack:TYR:94>  (30) 
pistack:TYR:94    NaN
pistack:TYR:94     -1
Name: 29, dtype: object

>  <hbond:TYR:94>  (30) 
hbond:TYR:94    NaN
hbond:TYR:94     -1
Name: 29, dtype: object

>  <hbond:GLN:95>  (30) 
hbond:GLN:95    NaN
hbond:GLN:95     -1
Name: 29, dtype: object

>  <hydroph_interaction:GLN:95>  (30) 
hydroph_interaction:GLN:95    NaN
hydroph_interaction:GLN:95     -1
Name: 29, dtype: object

>  <halogenbond:GLN:95>  (30) 
halogenbond:GLN:95    NaN
halogenbond:GLN:95     -1
Name: 29, dtype: object

>  <hbond:SER:96>  (30) 
hbond:SER:96    NaN
hbond:SER:96     -1
Name: 29, dtype: object

>  <halogenbond:HIS:97>  (30) 
halogenbond:HIS:97    NaN
halogenbond:HIS:97     -1
Name: 29, dtype: object

>  <hydroph_interaction:LEU:98>  (30) 
hydroph_interaction:LEU:98    NaN
hydroph_interaction:LEU:98     -1
Name: 29, dtype: object

>  <hbond:LEU:98>  (30) 
hbond:LEU:98    NaN
hbond:LEU:98     -1
Name: 29, dtype: object

>  <halogenbond:LEU:98>  (30) 
halogenbond:LEU:98    NaN
halogenbond:LEU:98     -1
Name: 29, dtype: object

>  <hbond:MET:99>  (30) 
hbond:MET:99    NaN
hbond:MET:99     -1
Name: 29, dtype: object

>  <hydroph_interaction:MET:99>  (30) 
hydroph_interaction:MET:99    NaN
hydroph_interaction:MET:99     -1
Name: 29, dtype: object

>  <halogenbond:MET:99>  (30) 
halogenbond:MET:99    NaN
halogenbond:MET:99     -1
Name: 29, dtype: object

>  <hydroph_interaction:LEU:100>  (30) 
hydroph_interaction:LEU:100    NaN
hydroph_interaction:LEU:100     -1
Name: 29, dtype: object

>  <hbond:LEU:100>  (30) 
hbond:LEU:100    NaN
hbond:LEU:100     -1
Name: 29, dtype: object

>  <hbond:ALA:101>  (30) 
hbond:ALA:101    NaN
hbond:ALA:101     -1
Name: 29, dtype: object

>  <hydroph_interaction:ALA:101>  (30) 
hydroph_interaction:ALA:101    NaN
hydroph_interaction:ALA:101     -1
Name: 29, dtype: object

>  <hydroph_interaction:VAL:102>  (30) 
hydroph_interaction:VAL:102    NaN
hydroph_interaction:VAL:102     -1
Name: 29, dtype: object

>  <hbond:VAL:102>  (30) 
hbond:VAL:102    NaN
hbond:VAL:102     -1
Name: 29, dtype: object

>  <hbond:GLY:103>  (30) 
hbond:GLY:103    NaN
hbond:GLY:103     -1
Name: 29, dtype: object

>  <halogenbond:GLY:103>  (30) 
halogenbond:GLY:103    NaN
halogenbond:GLY:103     -1
Name: 29, dtype: object

>  <hbond:HIS:104>  (30) 
hbond:HIS:104    NaN
hbond:HIS:104     -1
Name: 29, dtype: object

>  <saltbridge:HIS:104>  (30) 
saltbridge:HIS:104    NaN
saltbridge:HIS:104     -1
Name: 29, dtype: object

>  <pication:HIS:104>  (30) 
pication:HIS:104    NaN
pication:HIS:104     -1
Name: 29, dtype: object

>  <halogenbond:HIS:104>  (30) 
halogenbond:HIS:104    NaN
halogenbond:HIS:104     -1
Name: 29, dtype: object

>  <hydroph_interaction:HIS:104>  (30) 
hydroph_interaction:HIS:104    NaN
hydroph_interaction:HIS:104     -1
Name: 29, dtype: object

>  <pistack:HIS:104>  (30) 
pistack:HIS:104    NaN
pistack:HIS:104     -1
Name: 29, dtype: object

>  <halogenbond:SER:105>  (30) 
halogenbond:SER:105    0.0
halogenbond:SER:105      0
Name: 29, dtype: object

>  <hbond:SER:105>  (30) 
hbond:SER:105    0.0
hbond:SER:105      0
Name: 29, dtype: object

>  <hbond:GLU:106>  (30) 
hbond:GLU:106    0.0
hbond:GLU:106      0
Name: 29, dtype: object

>  <hydroph_interaction:GLU:106>  (30) 
hydroph_interaction:GLU:106    0.0
hydroph_interaction:GLU:106      0
Name: 29, dtype: object

>  <saltbridge:GLU:106>  (30) 
saltbridge:GLU:106    NaN
saltbridge:GLU:106     -1
Name: 29, dtype: object

>  <halogenbond:GLU:106>  (30) 
halogenbond:GLU:106    NaN
halogenbond:GLU:106     -1
Name: 29, dtype: object

>  <hydroph_interaction:PRO:107>  (30) 
hydroph_interaction:PRO:107    2
hydroph_interaction:PRO:107    2
Name: 29, dtype: object

>  <hbond:PRO:107>  (30) 
hbond:PRO:107    0.0
hbond:PRO:107      0
Name: 29, dtype: object

>  <halogenbond:PRO:107>  (30) 
halogenbond:PRO:107    NaN
halogenbond:PRO:107     -1
Name: 29, dtype: object

>  <hbond:GLY:108>  (30) 
hbond:GLY:108    NaN
hbond:GLY:108     -1
Name: 29, dtype: object

>  <halogenbond:GLY:108>  (30) 
halogenbond:GLY:108    NaN
halogenbond:GLY:108     -1
Name: 29, dtype: object

>  <hbond:ASP:109>  (30) 
hbond:ASP:109    0.0
hbond:ASP:109      0
Name: 29, dtype: object

>  <hydroph_interaction:ASP:109>  (30) 
hydroph_interaction:ASP:109    NaN
hydroph_interaction:ASP:109     -1
Name: 29, dtype: object

>  <saltbridge:ASP:109>  (30) 
saltbridge:ASP:109    NaN
saltbridge:ASP:109     -1
Name: 29, dtype: object

>  <halogenbond:CYS:110>  (30) 
halogenbond:CYS:110    NaN
halogenbond:CYS:110     -1
Name: 29, dtype: object

>  <hbond:CYS:110>  (30) 
hbond:CYS:110    0.0
hbond:CYS:110      0
Name: 29, dtype: object

>  <hbond:GLY:111>  (30) 
hbond:GLY:111    NaN
hbond:GLY:111     -1
Name: 29, dtype: object

>  <hbond:GLY:112>  (30) 
hbond:GLY:112    NaN
hbond:GLY:112     -1
Name: 29, dtype: object

>  <hbond:ILE:113>  (30) 
hbond:ILE:113    NaN
hbond:ILE:113     -1
Name: 29, dtype: object

>  <hydroph_interaction:LEU:114>  (30) 
hydroph_interaction:LEU:114    NaN
hydroph_interaction:LEU:114     -1
Name: 29, dtype: object

>  <hbond:LEU:114>  (30) 
hbond:LEU:114    NaN
hbond:LEU:114     -1
Name: 29, dtype: object

>  <hydroph_interaction:ILE:123>  (30) 
hydroph_interaction:ILE:123    NaN
hydroph_interaction:ILE:123     -1
Name: 29, dtype: object

>  <hbond:ILE:123>  (30) 
hbond:ILE:123    NaN
hbond:ILE:123     -1
Name: 29, dtype: object

>  <hydroph_interaction:VAL:124>  (30) 
hydroph_interaction:VAL:124    0.0
hydroph_interaction:VAL:124      0
Name: 29, dtype: object

>  <hbond:VAL:124>  (30) 
hbond:VAL:124    NaN
hbond:VAL:124     -1
Name: 29, dtype: object

>  <halogenbond:VAL:124>  (30) 
halogenbond:VAL:124    NaN
halogenbond:VAL:124     -1
Name: 29, dtype: object

>  <hbond:SER:125>  (30) 
hbond:SER:125    0
hbond:SER:125    0
Name: 29, dtype: object

>  <halogenbond:SER:125>  (30) 
halogenbond:SER:125    NaN
halogenbond:SER:125     -1
Name: 29, dtype: object

>  <hydroph_interaction:THR:126>  (30) 
hydroph_interaction:THR:126    NaN
hydroph_interaction:THR:126     -1
Name: 29, dtype: object

>  <hbond:THR:126>  (30) 
hbond:THR:126    0.0
hbond:THR:126      0
Name: 29, dtype: object

>  <halogenbond:THR:126>  (30) 
halogenbond:THR:126    NaN
halogenbond:THR:126     -1
Name: 29, dtype: object

>  <hbond:GLY:127>  (30) 
hbond:GLY:127    0
hbond:GLY:127    0
Name: 29, dtype: object

>  <halogenbond:GLY:127>  (30) 
halogenbond:GLY:127    NaN
halogenbond:GLY:127     -1
Name: 29, dtype: object

>  <hydroph_interaction:GLY:127>  (30) 
hydroph_interaction:GLY:127    NaN
hydroph_interaction:GLY:127     -1
Name: 29, dtype: object

>  <hbond:GLY:128>  (30) 
hbond:GLY:128    NaN
hbond:GLY:128     -1
Name: 29, dtype: object

>  <halogenbond:GLY:128>  (30) 
halogenbond:GLY:128    NaN
halogenbond:GLY:128     -1
Name: 29, dtype: object

>  <hydroph_interaction:GLY:128>  (30) 
hydroph_interaction:GLY:128    NaN
hydroph_interaction:GLY:128     -1
Name: 29, dtype: object

>  <hbond:ASN:129>  (30) 
hbond:ASN:129    NaN
hbond:ASN:129     -1
Name: 29, dtype: object

>  <hydroph_interaction:ASN:129>  (30) 
hydroph_interaction:ASN:129    NaN
hydroph_interaction:ASN:129     -1
Name: 29, dtype: object

>  <halogenbond:ASN:129>  (30) 
halogenbond:ASN:129    NaN
halogenbond:ASN:129     -1
Name: 29, dtype: object

>  <hbond:GLY:130>  (30) 
hbond:GLY:130    NaN
hbond:GLY:130     -1
Name: 29, dtype: object

>  <hbond:LEU:131>  (30) 
hbond:LEU:131    NaN
hbond:LEU:131     -1
Name: 29, dtype: object

>  <hydroph_interaction:LEU:131>  (30) 
hydroph_interaction:LEU:131    NaN
hydroph_interaction:LEU:131     -1
Name: 29, dtype: object

>  <halogenbond:LEU:131>  (30) 
halogenbond:LEU:131    NaN
halogenbond:LEU:131     -1
Name: 29, dtype: object

>  <hydroph_interaction:VAL:132>  (30) 
hydroph_interaction:VAL:132    0.0
hydroph_interaction:VAL:132      0
Name: 29, dtype: object

>  <hbond:VAL:132>  (30) 
hbond:VAL:132    NaN
hbond:VAL:132     -1
Name: 29, dtype: object

>  <hbond:GLY:133>  (30) 
hbond:GLY:133    NaN
hbond:GLY:133     -1
Name: 29, dtype: object

>  <halogenbond:GLY:133>  (30) 
halogenbond:GLY:133    NaN
halogenbond:GLY:133     -1
Name: 29, dtype: object

>  <hydroph_interaction:PHE:134>  (30) 
hydroph_interaction:PHE:134    NaN
hydroph_interaction:PHE:134     -1
Name: 29, dtype: object

>  <hbond:PHE:134>  (30) 
hbond:PHE:134    NaN
hbond:PHE:134     -1
Name: 29, dtype: object

>  <pistack:PHE:134>  (30) 
pistack:PHE:134    NaN
pistack:PHE:134     -1
Name: 29, dtype: object

>  <pication:PHE:134>  (30) 
pication:PHE:134    NaN
pication:PHE:134     -1
Name: 29, dtype: object

>  <halogenbond:PHE:134>  (30) 
halogenbond:PHE:134    NaN
halogenbond:PHE:134     -1
Name: 29, dtype: object

>  <hydroph_interaction:ALA:135>  (30) 
hydroph_interaction:ALA:135    NaN
hydroph_interaction:ALA:135     -1
Name: 29, dtype: object

>  <hbond:ALA:135>  (30) 
hbond:ALA:135    NaN
hbond:ALA:135     -1
Name: 29, dtype: object

$$$$
PV_006044290669
     RDKit          3D

 22 23  0  0  0  0  0  0  0  0999 V2000
   12.4550   14.5790   22.2870 N   0  0  0  0  0  0  0  0  0  0  0  0
   11.1450   14.0610   22.2160 N   0  0  0  0  0  0  0  0  0  0  0  0
   10.5140   13.9440   23.4480 C   0  0  0  0  0  0  0  0  0  0  0  0
   10.5850   14.7740   24.3410 O   0  0  0  0  0  0  0  0  0  0  0  0
    9.7960   12.6580   23.7100 C   0  0  0  0  0  0  0  0  0  0  0  0
    8.6450   12.6090   24.6530 C   0  0  0  0  0  0  0  0  0  0  0  0
    7.9520   13.5600   25.4350 N   0  0  0  0  0  0  0  0  0  0  0  0
    6.9520   12.9240   26.1340 C   0  0  0  0  0  0  0  0  0  0  0  0
    7.0290   11.4750   25.7630 C   0  0  0  0  0  0  0  0  0  0  0  0
    8.0750   11.3580   24.8640 C   0  0  0  0  0  0  0  0  0  0  0  0
    8.4510   10.1600   24.2970 C   0  0  0  0  0  0  0  0  0  0  0  0
    9.5390   10.2960   23.3950 C   0  0  0  0  0  0  0  0  0  0  0  0
   10.0000    9.2170   22.7650 F   0  0  0  0  0  0  0  0  0  0  0  0
   10.1710   11.4840   23.1190 C   0  0  0  0  0  0  0  0  0  0  0  0
   13.0780   13.8000   22.4760 H   0  0  0  0  0  0  0  0  0  0  0  0
   12.6140   15.0910   21.4350 H   0  0  0  0  0  0  0  0  0  0  0  0
   10.9860   13.3380   21.4880 H   0  0  0  0  0  0  0  0  0  0  0  0
    8.1570   14.5500   25.4750 H   0  0  0  0  0  0  0  0  0  0  0  0
    6.2300   13.3480   26.8260 H   0  0  0  0  0  0  0  0  0  0  0  0
    6.4330   10.6070   26.0760 H   0  0  0  0  0  0  0  0  0  0  0  0
    7.9540    9.2300   24.5240 H   0  0  0  0  0  0  0  0  0  0  0  0
   10.9900   11.3990   22.4050 H   0  0  0  0  0  0  0  0  0  0  0  0
  1  2  1  0
  2  3  1  0
  3  4  2  0
  3  5  1  0
  5  6  2  0
  6  7  1  0
  7  8  1  0
  8  9  2  0
  9 10  1  0
 10 11  2  0
 11 12  1  0
 12 13  1  0
 12 14  2  0
 14  5  1  0
 10  6  1  0
  1 15  1  0
  1 16  1  0
  2 17  1  0
  7 18  1  0
  8 19  1  0
  9 20  1  0
 11 21  1  0
 14 22  1  0
A    1
 N1 
A    2
 N2 
A    3
 C1 
A    4
 O1 
A    5
 C2 
A    6
 C3 
A    7
 N3 
A    8
 C4 
A    9
 C5 
A   10
 C6 
A   11
 C7 
A   12
 C8 
A   13
 F1 
A   14
 C9 
A   15
 H1 
A   16
 H2 
A   17
 H3 
A   18
 H4 
A   19
 H5 
A   20
 H6 
A   21
 H7 
A   22
 H8 
M  END
>  <ref_pdb>  (31) 
x0310_0A

>  <ref_mols>  (31) 
x0554_0A,x0528_0A

>  <original SMILES>  (31) 
NNC(=O)c1cc(F)cc2cc[nH]c12

>  <rationale>  (31) 
info halogenbond:C110+G127+D39+A86+S125+E85+Q95+E106+E88+T126+H104+Y64+C65+S87+N129+F83+L131+I82+G128+P91+H21+V84+G133+Y90+Y89+H97+L81+F134+L98+R20+G103+S66+S67+S7+G108+R38+V124+M99+S36; hbond:S87+S125+E88+H21+T126+D109+G108+G103+G128+G130+L131+N129+H104+R68+V124+P91+F83+S67+S66+G112+G133+V132+S77+A135+Y63+A92+A101+M99+F134+L100+I82+Y64+L98+V84+L81+Y94+S80+R38+S37+V102+G8+I123+G111+I113+L114+C65+L22+S96; hydroph_interaction:P107+N129+L40+I123+A135+I82+L100+L98+L131+F83+V132+Y63+F134+H104+A86+V74+P91+A101+F76+M99+L114+A92+Y94+R68+Y72+Y64+V18+V102+W28+G127+G128+L81; pication:H104+Y63+F134+Y90+R68+F83+R20; pistack:H104+F134+Y63+F83+Y94; saltbridge:H104+E106+D109+E85+E88+R68; 

>  <intxn_cluster>  (31) 
-1

>  <intxn_cluster_rank>  (31) 
-1

>  <N_interactions>  (31) 
6

>  <∆∆G>  (31) 
-5.304313

>  <$/mg>  (31) 
163.0

>  <comRMSD>  (31) 
0.863454

>  <N_rotatable_bonds>  (31) 
2

>  <deep_P1_sidechain>  (31) 
nan

>  <farthest_distance_to_substrate>  (31) 
2.336498

>  <hbond:SER:7>  (31) 
hbond:SER:7    0.0
hbond:SER:7      0
Name: 30, dtype: object

>  <halogenbond:SER:7>  (31) 
halogenbond:SER:7    NaN
halogenbond:SER:7     -1
Name: 30, dtype: object

>  <hbond:GLY:8>  (31) 
hbond:GLY:8    NaN
hbond:GLY:8     -1
Name: 30, dtype: object

>  <hydroph_interaction:VAL:18>  (31) 
hydroph_interaction:VAL:18    NaN
hydroph_interaction:VAL:18     -1
Name: 30, dtype: object

>  <hbond:ASN:19>  (31) 
hbond:ASN:19    0.0
hbond:ASN:19      0
Name: 30, dtype: object

>  <hydroph_interaction:ASN:19>  (31) 
hydroph_interaction:ASN:19    0.0
hydroph_interaction:ASN:19      0
Name: 30, dtype: object

>  <halogenbond:ASN:19>  (31) 
halogenbond:ASN:19    0.0
halogenbond:ASN:19      0
Name: 30, dtype: object

>  <hbond:ARG:20>  (31) 
hbond:ARG:20    0.0
hbond:ARG:20      0
Name: 30, dtype: object

>  <hydroph_interaction:ARG:20>  (31) 
hydroph_interaction:ARG:20    0.0
hydroph_interaction:ARG:20      0
Name: 30, dtype: object

>  <saltbridge:ARG:20>  (31) 
saltbridge:ARG:20    0.0
saltbridge:ARG:20      0
Name: 30, dtype: object

>  <halogenbond:ARG:20>  (31) 
halogenbond:ARG:20    NaN
halogenbond:ARG:20     -1
Name: 30, dtype: object

>  <pication:ARG:20>  (31) 
pication:ARG:20    NaN
pication:ARG:20     -1
Name: 30, dtype: object

>  <hbond:HIS:21>  (31) 
hbond:HIS:21    1.0
hbond:HIS:21      1
Name: 30, dtype: object

>  <hydroph_interaction:HIS:21>  (31) 
hydroph_interaction:HIS:21    0.0
hydroph_interaction:HIS:21      0
Name: 30, dtype: object

>  <pistack:HIS:21>  (31) 
pistack:HIS:21    0.0
pistack:HIS:21      0
Name: 30, dtype: object

>  <pication:HIS:21>  (31) 
pication:HIS:21    0.0
pication:HIS:21      0
Name: 30, dtype: object

>  <saltbridge:HIS:21>  (31) 
saltbridge:HIS:21    0.0
saltbridge:HIS:21      0
Name: 30, dtype: object

>  <halogenbond:HIS:21>  (31) 
halogenbond:HIS:21    NaN
halogenbond:HIS:21     -1
Name: 30, dtype: object

>  <hydroph_interaction:LEU:22>  (31) 
hydroph_interaction:LEU:22    0.0
hydroph_interaction:LEU:22      0
Name: 30, dtype: object

>  <hbond:LEU:22>  (31) 
hbond:LEU:22    NaN
hbond:LEU:22     -1
Name: 30, dtype: object

>  <hydroph_interaction:TRP:28>  (31) 
hydroph_interaction:TRP:28    NaN
hydroph_interaction:TRP:28     -1
Name: 30, dtype: object

>  <hbond:SER:36>  (31) 
hbond:SER:36    0.0
hbond:SER:36      0
Name: 30, dtype: object

>  <halogenbond:SER:36>  (31) 
halogenbond:SER:36    NaN
halogenbond:SER:36     -1
Name: 30, dtype: object

>  <hbond:SER:37>  (31) 
hbond:SER:37    NaN
hbond:SER:37     -1
Name: 30, dtype: object

>  <hbond:ARG:38>  (31) 
hbond:ARG:38    NaN
hbond:ARG:38     -1
Name: 30, dtype: object

>  <halogenbond:ARG:38>  (31) 
halogenbond:ARG:38    NaN
halogenbond:ARG:38     -1
Name: 30, dtype: object

>  <saltbridge:ASP:39>  (31) 
saltbridge:ASP:39    0.0
saltbridge:ASP:39      0
Name: 30, dtype: object

>  <halogenbond:ASP:39>  (31) 
halogenbond:ASP:39    NaN
halogenbond:ASP:39     -1
Name: 30, dtype: object

>  <hbond:ASP:39>  (31) 
hbond:ASP:39    0.0
hbond:ASP:39      0
Name: 30, dtype: object

>  <hydroph_interaction:ASP:39>  (31) 
hydroph_interaction:ASP:39    0.0
hydroph_interaction:ASP:39      0
Name: 30, dtype: object

>  <hydroph_interaction:LEU:40>  (31) 
hydroph_interaction:LEU:40    NaN
hydroph_interaction:LEU:40     -1
Name: 30, dtype: object

>  <hydroph_interaction:TYR:63>  (31) 
hydroph_interaction:TYR:63    NaN
hydroph_interaction:TYR:63     -1
Name: 30, dtype: object

>  <hbond:TYR:63>  (31) 
hbond:TYR:63    NaN
hbond:TYR:63     -1
Name: 30, dtype: object

>  <pistack:TYR:63>  (31) 
pistack:TYR:63    NaN
pistack:TYR:63     -1
Name: 30, dtype: object

>  <pication:TYR:63>  (31) 
pication:TYR:63    NaN
pication:TYR:63     -1
Name: 30, dtype: object

>  <halogenbond:TYR:64>  (31) 
halogenbond:TYR:64    NaN
halogenbond:TYR:64     -1
Name: 30, dtype: object

>  <hbond:TYR:64>  (31) 
hbond:TYR:64    NaN
hbond:TYR:64     -1
Name: 30, dtype: object

>  <hydroph_interaction:TYR:64>  (31) 
hydroph_interaction:TYR:64    NaN
hydroph_interaction:TYR:64     -1
Name: 30, dtype: object

>  <halogenbond:CYS:65>  (31) 
halogenbond:CYS:65    NaN
halogenbond:CYS:65     -1
Name: 30, dtype: object

>  <hbond:CYS:65>  (31) 
hbond:CYS:65    NaN
hbond:CYS:65     -1
Name: 30, dtype: object

>  <hbond:SER:66>  (31) 
hbond:SER:66    NaN
hbond:SER:66     -1
Name: 30, dtype: object

>  <halogenbond:SER:66>  (31) 
halogenbond:SER:66    NaN
halogenbond:SER:66     -1
Name: 30, dtype: object

>  <hbond:SER:67>  (31) 
hbond:SER:67    NaN
hbond:SER:67     -1
Name: 30, dtype: object

>  <halogenbond:SER:67>  (31) 
halogenbond:SER:67    NaN
halogenbond:SER:67     -1
Name: 30, dtype: object

>  <hbond:ARG:68>  (31) 
hbond:ARG:68    NaN
hbond:ARG:68     -1
Name: 30, dtype: object

>  <saltbridge:ARG:68>  (31) 
saltbridge:ARG:68    NaN
saltbridge:ARG:68     -1
Name: 30, dtype: object

>  <hydroph_interaction:ARG:68>  (31) 
hydroph_interaction:ARG:68    NaN
hydroph_interaction:ARG:68     -1
Name: 30, dtype: object

>  <pication:ARG:68>  (31) 
pication:ARG:68    NaN
pication:ARG:68     -1
Name: 30, dtype: object

>  <hydroph_interaction:TYR:72>  (31) 
hydroph_interaction:TYR:72    NaN
hydroph_interaction:TYR:72     -1
Name: 30, dtype: object

>  <hydroph_interaction:VAL:74>  (31) 
hydroph_interaction:VAL:74    NaN
hydroph_interaction:VAL:74     -1
Name: 30, dtype: object

>  <hydroph_interaction:PHE:76>  (31) 
hydroph_interaction:PHE:76    NaN
hydroph_interaction:PHE:76     -1
Name: 30, dtype: object

>  <hbond:SER:77>  (31) 
hbond:SER:77    NaN
hbond:SER:77     -1
Name: 30, dtype: object

>  <hbond:SER:80>  (31) 
hbond:SER:80    NaN
hbond:SER:80     -1
Name: 30, dtype: object

>  <hbond:LEU:81>  (31) 
hbond:LEU:81    NaN
hbond:LEU:81     -1
Name: 30, dtype: object

>  <halogenbond:LEU:81>  (31) 
halogenbond:LEU:81    NaN
halogenbond:LEU:81     -1
Name: 30, dtype: object

>  <hydroph_interaction:LEU:81>  (31) 
hydroph_interaction:LEU:81    NaN
hydroph_interaction:LEU:81     -1
Name: 30, dtype: object

>  <hydroph_interaction:ILE:82>  (31) 
hydroph_interaction:ILE:82    NaN
hydroph_interaction:ILE:82     -1
Name: 30, dtype: object

>  <halogenbond:ILE:82>  (31) 
halogenbond:ILE:82    NaN
halogenbond:ILE:82     -1
Name: 30, dtype: object

>  <hbond:ILE:82>  (31) 
hbond:ILE:82    NaN
hbond:ILE:82     -1
Name: 30, dtype: object

>  <hbond:PHE:83>  (31) 
hbond:PHE:83    NaN
hbond:PHE:83     -1
Name: 30, dtype: object

>  <hydroph_interaction:PHE:83>  (31) 
hydroph_interaction:PHE:83    NaN
hydroph_interaction:PHE:83     -1
Name: 30, dtype: object

>  <halogenbond:PHE:83>  (31) 
halogenbond:PHE:83    NaN
halogenbond:PHE:83     -1
Name: 30, dtype: object

>  <pistack:PHE:83>  (31) 
pistack:PHE:83    NaN
pistack:PHE:83     -1
Name: 30, dtype: object

>  <pication:PHE:83>  (31) 
pication:PHE:83    NaN
pication:PHE:83     -1
Name: 30, dtype: object

>  <hydroph_interaction:VAL:84>  (31) 
hydroph_interaction:VAL:84    0.0
hydroph_interaction:VAL:84      0
Name: 30, dtype: object

>  <halogenbond:VAL:84>  (31) 
halogenbond:VAL:84    NaN
halogenbond:VAL:84     -1
Name: 30, dtype: object

>  <hbond:VAL:84>  (31) 
hbond:VAL:84    NaN
hbond:VAL:84     -1
Name: 30, dtype: object

>  <hydroph_interaction:GLU:85>  (31) 
hydroph_interaction:GLU:85    0.0
hydroph_interaction:GLU:85      0
Name: 30, dtype: object

>  <hbond:GLU:85>  (31) 
hbond:GLU:85    0.0
hbond:GLU:85      0
Name: 30, dtype: object

>  <halogenbond:GLU:85>  (31) 
halogenbond:GLU:85    NaN
halogenbond:GLU:85     -1
Name: 30, dtype: object

>  <saltbridge:GLU:85>  (31) 
saltbridge:GLU:85    NaN
saltbridge:GLU:85     -1
Name: 30, dtype: object

>  <halogenbond:ALA:86>  (31) 
halogenbond:ALA:86    NaN
halogenbond:ALA:86     -1
Name: 30, dtype: object

>  <hbond:ALA:86>  (31) 
hbond:ALA:86    0.0
hbond:ALA:86      0
Name: 30, dtype: object

>  <hydroph_interaction:ALA:86>  (31) 
hydroph_interaction:ALA:86    NaN
hydroph_interaction:ALA:86     -1
Name: 30, dtype: object

>  <hbond:SER:87>  (31) 
hbond:SER:87    2
hbond:SER:87    2
Name: 30, dtype: object

>  <halogenbond:SER:87>  (31) 
halogenbond:SER:87    NaN
halogenbond:SER:87     -1
Name: 30, dtype: object

>  <hbond:GLU:88>  (31) 
hbond:GLU:88    1.0
hbond:GLU:88      1
Name: 30, dtype: object

>  <hydroph_interaction:GLU:88>  (31) 
hydroph_interaction:GLU:88    0.0
hydroph_interaction:GLU:88      0
Name: 30, dtype: object

>  <halogenbond:GLU:88>  (31) 
halogenbond:GLU:88    NaN
halogenbond:GLU:88     -1
Name: 30, dtype: object

>  <saltbridge:GLU:88>  (31) 
saltbridge:GLU:88    NaN
saltbridge:GLU:88     -1
Name: 30, dtype: object

>  <hydroph_interaction:TYR:89>  (31) 
hydroph_interaction:TYR:89    0.0
hydroph_interaction:TYR:89      0
Name: 30, dtype: object

>  <pistack:TYR:89>  (31) 
pistack:TYR:89    0.0
pistack:TYR:89      0
Name: 30, dtype: object

>  <hbond:TYR:89>  (31) 
hbond:TYR:89    0.0
hbond:TYR:89      0
Name: 30, dtype: object

>  <halogenbond:TYR:89>  (31) 
halogenbond:TYR:89    NaN
halogenbond:TYR:89     -1
Name: 30, dtype: object

>  <hydroph_interaction:TYR:90>  (31) 
hydroph_interaction:TYR:90    0.0
hydroph_interaction:TYR:90      0
Name: 30, dtype: object

>  <hbond:TYR:90>  (31) 
hbond:TYR:90    0.0
hbond:TYR:90      0
Name: 30, dtype: object

>  <pistack:TYR:90>  (31) 
pistack:TYR:90    0.0
pistack:TYR:90      0
Name: 30, dtype: object

>  <halogenbond:TYR:90>  (31) 
halogenbond:TYR:90    NaN
halogenbond:TYR:90     -1
Name: 30, dtype: object

>  <pication:TYR:90>  (31) 
pication:TYR:90    NaN
pication:TYR:90     -1
Name: 30, dtype: object

>  <hbond:PRO:91>  (31) 
hbond:PRO:91    NaN
hbond:PRO:91     -1
Name: 30, dtype: object

>  <hydroph_interaction:PRO:91>  (31) 
hydroph_interaction:PRO:91    NaN
hydroph_interaction:PRO:91     -1
Name: 30, dtype: object

>  <halogenbond:PRO:91>  (31) 
halogenbond:PRO:91    NaN
halogenbond:PRO:91     -1
Name: 30, dtype: object

>  <hbond:ALA:92>  (31) 
hbond:ALA:92    NaN
hbond:ALA:92     -1
Name: 30, dtype: object

>  <hydroph_interaction:ALA:92>  (31) 
hydroph_interaction:ALA:92    NaN
hydroph_interaction:ALA:92     -1
Name: 30, dtype: object

>  <saltbridge:ARG:93>  (31) 
saltbridge:ARG:93    0.0
saltbridge:ARG:93      0
Name: 30, dtype: object

>  <hbond:ARG:93>  (31) 
hbond:ARG:93    0.0
hbond:ARG:93      0
Name: 30, dtype: object

>  <hydroph_interaction:ARG:93>  (31) 
hydroph_interaction:ARG:93    0.0
hydroph_interaction:ARG:93      0
Name: 30, dtype: object

>  <halogenbond:ARG:93>  (31) 
halogenbond:ARG:93    0.0
halogenbond:ARG:93      0
Name: 30, dtype: object

>  <pication:ARG:93>  (31) 
pication:ARG:93    0.0
pication:ARG:93      0
Name: 30, dtype: object

>  <hydroph_interaction:TYR:94>  (31) 
hydroph_interaction:TYR:94    NaN
hydroph_interaction:TYR:94     -1
Name: 30, dtype: object

>  <pistack:TYR:94>  (31) 
pistack:TYR:94    NaN
pistack:TYR:94     -1
Name: 30, dtype: object

>  <hbond:TYR:94>  (31) 
hbond:TYR:94    NaN
hbond:TYR:94     -1
Name: 30, dtype: object

>  <hbond:GLN:95>  (31) 
hbond:GLN:95    0.0
hbond:GLN:95      0
Name: 30, dtype: object

>  <hydroph_interaction:GLN:95>  (31) 
hydroph_interaction:GLN:95    0.0
hydroph_interaction:GLN:95      0
Name: 30, dtype: object

>  <halogenbond:GLN:95>  (31) 
halogenbond:GLN:95    NaN
halogenbond:GLN:95     -1
Name: 30, dtype: object

>  <hbond:SER:96>  (31) 
hbond:SER:96    NaN
hbond:SER:96     -1
Name: 30, dtype: object

>  <halogenbond:HIS:97>  (31) 
halogenbond:HIS:97    NaN
halogenbond:HIS:97     -1
Name: 30, dtype: object

>  <hydroph_interaction:LEU:98>  (31) 
hydroph_interaction:LEU:98    NaN
hydroph_interaction:LEU:98     -1
Name: 30, dtype: object

>  <hbond:LEU:98>  (31) 
hbond:LEU:98    NaN
hbond:LEU:98     -1
Name: 30, dtype: object

>  <halogenbond:LEU:98>  (31) 
halogenbond:LEU:98    NaN
halogenbond:LEU:98     -1
Name: 30, dtype: object

>  <hbond:MET:99>  (31) 
hbond:MET:99    NaN
hbond:MET:99     -1
Name: 30, dtype: object

>  <hydroph_interaction:MET:99>  (31) 
hydroph_interaction:MET:99    NaN
hydroph_interaction:MET:99     -1
Name: 30, dtype: object

>  <halogenbond:MET:99>  (31) 
halogenbond:MET:99    NaN
halogenbond:MET:99     -1
Name: 30, dtype: object

>  <hydroph_interaction:LEU:100>  (31) 
hydroph_interaction:LEU:100    NaN
hydroph_interaction:LEU:100     -1
Name: 30, dtype: object

>  <hbond:LEU:100>  (31) 
hbond:LEU:100    NaN
hbond:LEU:100     -1
Name: 30, dtype: object

>  <hbond:ALA:101>  (31) 
hbond:ALA:101    NaN
hbond:ALA:101     -1
Name: 30, dtype: object

>  <hydroph_interaction:ALA:101>  (31) 
hydroph_interaction:ALA:101    NaN
hydroph_interaction:ALA:101     -1
Name: 30, dtype: object

>  <hydroph_interaction:VAL:102>  (31) 
hydroph_interaction:VAL:102    NaN
hydroph_interaction:VAL:102     -1
Name: 30, dtype: object

>  <hbond:VAL:102>  (31) 
hbond:VAL:102    NaN
hbond:VAL:102     -1
Name: 30, dtype: object

>  <hbond:GLY:103>  (31) 
hbond:GLY:103    NaN
hbond:GLY:103     -1
Name: 30, dtype: object

>  <halogenbond:GLY:103>  (31) 
halogenbond:GLY:103    NaN
halogenbond:GLY:103     -1
Name: 30, dtype: object

>  <hbond:HIS:104>  (31) 
hbond:HIS:104    NaN
hbond:HIS:104     -1
Name: 30, dtype: object

>  <saltbridge:HIS:104>  (31) 
saltbridge:HIS:104    NaN
saltbridge:HIS:104     -1
Name: 30, dtype: object

>  <pication:HIS:104>  (31) 
pication:HIS:104    NaN
pication:HIS:104     -1
Name: 30, dtype: object

>  <halogenbond:HIS:104>  (31) 
halogenbond:HIS:104    NaN
halogenbond:HIS:104     -1
Name: 30, dtype: object

>  <hydroph_interaction:HIS:104>  (31) 
hydroph_interaction:HIS:104    NaN
hydroph_interaction:HIS:104     -1
Name: 30, dtype: object

>  <pistack:HIS:104>  (31) 
pistack:HIS:104    NaN
pistack:HIS:104     -1
Name: 30, dtype: object

>  <halogenbond:SER:105>  (31) 
halogenbond:SER:105    0.0
halogenbond:SER:105      0
Name: 30, dtype: object

>  <hbond:SER:105>  (31) 
hbond:SER:105    0.0
hbond:SER:105      0
Name: 30, dtype: object

>  <hbond:GLU:106>  (31) 
hbond:GLU:106    0.0
hbond:GLU:106      0
Name: 30, dtype: object

>  <hydroph_interaction:GLU:106>  (31) 
hydroph_interaction:GLU:106    0.0
hydroph_interaction:GLU:106      0
Name: 30, dtype: object

>  <saltbridge:GLU:106>  (31) 
saltbridge:GLU:106    NaN
saltbridge:GLU:106     -1
Name: 30, dtype: object

>  <halogenbond:GLU:106>  (31) 
halogenbond:GLU:106    NaN
halogenbond:GLU:106     -1
Name: 30, dtype: object

>  <hydroph_interaction:PRO:107>  (31) 
hydroph_interaction:PRO:107    1
hydroph_interaction:PRO:107    1
Name: 30, dtype: object

>  <hbond:PRO:107>  (31) 
hbond:PRO:107    0.0
hbond:PRO:107      0
Name: 30, dtype: object

>  <halogenbond:PRO:107>  (31) 
halogenbond:PRO:107    0.0
halogenbond:PRO:107      0
Name: 30, dtype: object

>  <hbond:GLY:108>  (31) 
hbond:GLY:108    NaN
hbond:GLY:108     -1
Name: 30, dtype: object

>  <halogenbond:GLY:108>  (31) 
halogenbond:GLY:108    NaN
halogenbond:GLY:108     -1
Name: 30, dtype: object

>  <hbond:ASP:109>  (31) 
hbond:ASP:109    NaN
hbond:ASP:109     -1
Name: 30, dtype: object

>  <hydroph_interaction:ASP:109>  (31) 
hydroph_interaction:ASP:109    0.0
hydroph_interaction:ASP:109      0
Name: 30, dtype: object

>  <saltbridge:ASP:109>  (31) 
saltbridge:ASP:109    NaN
saltbridge:ASP:109     -1
Name: 30, dtype: object

>  <halogenbond:CYS:110>  (31) 
halogenbond:CYS:110    NaN
halogenbond:CYS:110     -1
Name: 30, dtype: object

>  <hbond:CYS:110>  (31) 
hbond:CYS:110    0.0
hbond:CYS:110      0
Name: 30, dtype: object

>  <hbond:GLY:111>  (31) 
hbond:GLY:111    NaN
hbond:GLY:111     -1
Name: 30, dtype: object

>  <hbond:GLY:112>  (31) 
hbond:GLY:112    NaN
hbond:GLY:112     -1
Name: 30, dtype: object

>  <hbond:ILE:113>  (31) 
hbond:ILE:113    NaN
hbond:ILE:113     -1
Name: 30, dtype: object

>  <hydroph_interaction:LEU:114>  (31) 
hydroph_interaction:LEU:114    NaN
hydroph_interaction:LEU:114     -1
Name: 30, dtype: object

>  <hbond:LEU:114>  (31) 
hbond:LEU:114    NaN
hbond:LEU:114     -1
Name: 30, dtype: object

>  <hydroph_interaction:ILE:123>  (31) 
hydroph_interaction:ILE:123    NaN
hydroph_interaction:ILE:123     -1
Name: 30, dtype: object

>  <hbond:ILE:123>  (31) 
hbond:ILE:123    NaN
hbond:ILE:123     -1
Name: 30, dtype: object

>  <hydroph_interaction:VAL:124>  (31) 
hydroph_interaction:VAL:124    0.0
hydroph_interaction:VAL:124      0
Name: 30, dtype: object

>  <hbond:VAL:124>  (31) 
hbond:VAL:124    NaN
hbond:VAL:124     -1
Name: 30, dtype: object

>  <halogenbond:VAL:124>  (31) 
halogenbond:VAL:124    NaN
halogenbond:VAL:124     -1
Name: 30, dtype: object

>  <hbond:SER:125>  (31) 
hbond:SER:125    1
hbond:SER:125    1
Name: 30, dtype: object

>  <halogenbond:SER:125>  (31) 
halogenbond:SER:125    NaN
halogenbond:SER:125     -1
Name: 30, dtype: object

>  <hydroph_interaction:THR:126>  (31) 
hydroph_interaction:THR:126    0.0
hydroph_interaction:THR:126      0
Name: 30, dtype: object

>  <hbond:THR:126>  (31) 
hbond:THR:126    NaN
hbond:THR:126     -1
Name: 30, dtype: object

>  <halogenbond:THR:126>  (31) 
halogenbond:THR:126    NaN
halogenbond:THR:126     -1
Name: 30, dtype: object

>  <hbond:GLY:127>  (31) 
hbond:GLY:127    0
hbond:GLY:127    0
Name: 30, dtype: object

>  <halogenbond:GLY:127>  (31) 
halogenbond:GLY:127    NaN
halogenbond:GLY:127     -1
Name: 30, dtype: object

>  <hydroph_interaction:GLY:127>  (31) 
hydroph_interaction:GLY:127    NaN
hydroph_interaction:GLY:127     -1
Name: 30, dtype: object

>  <hbond:GLY:128>  (31) 
hbond:GLY:128    NaN
hbond:GLY:128     -1
Name: 30, dtype: object

>  <halogenbond:GLY:128>  (31) 
halogenbond:GLY:128    NaN
halogenbond:GLY:128     -1
Name: 30, dtype: object

>  <hydroph_interaction:GLY:128>  (31) 
hydroph_interaction:GLY:128    NaN
hydroph_interaction:GLY:128     -1
Name: 30, dtype: object

>  <hbond:ASN:129>  (31) 
hbond:ASN:129    NaN
hbond:ASN:129     -1
Name: 30, dtype: object

>  <hydroph_interaction:ASN:129>  (31) 
hydroph_interaction:ASN:129    NaN
hydroph_interaction:ASN:129     -1
Name: 30, dtype: object

>  <halogenbond:ASN:129>  (31) 
halogenbond:ASN:129    NaN
halogenbond:ASN:129     -1
Name: 30, dtype: object

>  <hbond:GLY:130>  (31) 
hbond:GLY:130    NaN
hbond:GLY:130     -1
Name: 30, dtype: object

>  <hbond:LEU:131>  (31) 
hbond:LEU:131    NaN
hbond:LEU:131     -1
Name: 30, dtype: object

>  <hydroph_interaction:LEU:131>  (31) 
hydroph_interaction:LEU:131    NaN
hydroph_interaction:LEU:131     -1
Name: 30, dtype: object

>  <halogenbond:LEU:131>  (31) 
halogenbond:LEU:131    NaN
halogenbond:LEU:131     -1
Name: 30, dtype: object

>  <hydroph_interaction:VAL:132>  (31) 
hydroph_interaction:VAL:132    NaN
hydroph_interaction:VAL:132     -1
Name: 30, dtype: object

>  <hbond:VAL:132>  (31) 
hbond:VAL:132    NaN
hbond:VAL:132     -1
Name: 30, dtype: object

>  <hbond:GLY:133>  (31) 
hbond:GLY:133    NaN
hbond:GLY:133     -1
Name: 30, dtype: object

>  <halogenbond:GLY:133>  (31) 
halogenbond:GLY:133    NaN
halogenbond:GLY:133     -1
Name: 30, dtype: object

>  <hydroph_interaction:PHE:134>  (31) 
hydroph_interaction:PHE:134    NaN
hydroph_interaction:PHE:134     -1
Name: 30, dtype: object

>  <hbond:PHE:134>  (31) 
hbond:PHE:134    NaN
hbond:PHE:134     -1
Name: 30, dtype: object

>  <pistack:PHE:134>  (31) 
pistack:PHE:134    NaN
pistack:PHE:134     -1
Name: 30, dtype: object

>  <pication:PHE:134>  (31) 
pication:PHE:134    NaN
pication:PHE:134     -1
Name: 30, dtype: object

>  <halogenbond:PHE:134>  (31) 
halogenbond:PHE:134    NaN
halogenbond:PHE:134     -1
Name: 30, dtype: object

>  <hydroph_interaction:ALA:135>  (31) 
hydroph_interaction:ALA:135    NaN
hydroph_interaction:ALA:135     -1
Name: 30, dtype: object

>  <hbond:ALA:135>  (31) 
hbond:ALA:135    NaN
hbond:ALA:135     -1
Name: 30, dtype: object

$$$$
PV_002917131396
     RDKit          3D

 23 24  0  0  0  0  0  0  0  0999 V2000
   10.4190    9.7170   22.4700 C   0  0  0  0  0  0  0  0  0  0  0  0
    9.5540   10.6330   23.3020 C   0  0  0  0  0  0  0  0  0  0  0  0
    8.7330    9.7710   24.1900 C   0  0  0  0  0  0  0  0  0  0  0  0
    7.8410   10.3300   25.0610 C   0  0  0  0  0  0  0  0  0  0  0  0
    7.7460   11.6820   25.0770 C   0  0  0  0  0  0  0  0  0  0  0  0
    6.9190   12.4150   25.8740 C   0  0  0  0  0  0  0  0  0  0  0  0
    7.0940   13.7540   25.6150 C   0  0  0  0  0  0  0  0  0  0  0  0
    8.0610   13.8110   24.6250 N   0  0  0  0  0  0  0  0  0  0  0  0
    8.4860   12.5290   24.2720 C   0  0  0  0  0  0  0  0  0  0  0  0
    9.4210   12.0490   23.3460 C   0  0  0  0  0  0  0  0  0  0  0  0
   10.1180   13.0530   22.5500 C   0  0  0  0  0  0  0  0  0  0  0  0
    9.3700   14.1230   21.8320 C   0  0  0  0  0  0  0  0  0  0  0  0
   10.0310   15.0320   21.0920 F   0  0  0  0  0  0  0  0  0  0  0  0
    8.0270   14.1950   21.9050 F   0  0  0  0  0  0  0  0  0  0  0  0
    9.8230    8.9370   21.9840 H   0  0  0  0  0  0  0  0  0  0  0  0
   10.9270   10.2600   21.6980 H   0  0  0  0  0  0  0  0  0  0  0  0
   11.1710    9.2220   23.0940 H   0  0  0  0  0  0  0  0  0  0  0  0
    8.8300    8.7090   24.1570 H   0  0  0  0  0  0  0  0  0  0  0  0
    7.2280    9.7430   25.7160 H   0  0  0  0  0  0  0  0  0  0  0  0
    6.2280   12.0130   26.6010 H   0  0  0  0  0  0  0  0  0  0  0  0
    6.6390   14.6450   26.0240 H   0  0  0  0  0  0  0  0  0  0  0  0
    8.4180   14.6720   24.2060 H   0  0  0  0  0  0  0  0  0  0  0  0
   11.2010   12.9950   22.4890 H   0  0  0  0  0  0  0  0  0  0  0  0
  1  2  1  0
  2  3  2  0
  3  4  1  0
  4  5  2  0
  5  6  1  0
  6  7  2  0
  7  8  1  0
  8  9  1  0
  9 10  2  0
 10 11  1  0
 11 12  2  3
 12 13  1  0
 12 14  1  0
 10  2  1  0
  9  5  1  0
  1 15  1  0
  1 16  1  0
  1 17  1  0
  3 18  1  0
  4 19  1  0
  6 20  1  0
  7 21  1  0
  8 22  1  0
 11 23  1  0
A    1
 C1 
A    2
 C2 
A    3
 C3 
A    4
 C4 
A    5
 C5 
A    6
 C6 
A    7
 C7 
A    8
 N1 
A    9
 C8 
A   10
 C9 
A   11
 C10
A   12
 C11
A   13
 F1 
A   14
 F2 
A   15
 H1 
A   16
 H2 
A   17
 H3 
A   18
 H4 
A   19
 H5 
A   20
 H6 
A   21
 H7 
A   22
 H8 
A   23
 H9 
M  END
>  <ref_pdb>  (32) 
x0310_0A

>  <ref_mols>  (32) 
x0566_0A,x0375_0A

>  <original SMILES>  (32) 
Cc1ccc2cc[nH]c2c1C=C(F)F

>  <rationale>  (32) 
info halogenbond:G127+D39+S125+E85+E106+E88+T126+P107+H104+Y64+C65+S87+N129+F83+R93+L131+I82+G128+P91+N19+H21+V84+G133+Y90+Y89+H97+L81+F134+L98+R20+G103+S66+S67+S7+G108+R38+V124+M99+S36; hbond:P107+D109+G108+G103+L131+N19+R68+V124+F83+S67+S7+S66+G112+G133+V132+Y89+S77+A135+Y63+A92+A101+M99+F134+L100+I82+Y64+S36+L98+V84+L81+S80+R38+S37+V102+G8+I123+G111+I113+L114+C65+L22+S96; hydroph_interaction:V124+P107+N129+N19+L40+I123+A135+L98+F83+V132+Y63+F134+H104+R20+A86+V74+P91+A101+F76+M99+L114+A92+Y94+R68+Y72+Y64+V18+V102+W28+G127+G128+L81; pication:H104+R93+Y63+F134+Y90+R68+F83+R20; pistack:Y89+F134+Y63+F83+Y94; saltbridge:R93+H104+D109+E85+E88+R68+R20; 

>  <intxn_cluster>  (32) 
-1

>  <intxn_cluster_rank>  (32) 
-1

>  <N_interactions>  (32) 
3

>  <∆∆G>  (32) 
-6.802846

>  <$/mg>  (32) 
244.5

>  <comRMSD>  (32) 
0.737362

>  <N_rotatable_bonds>  (32) 
2

>  <deep_P1_sidechain>  (32) 
nan

>  <farthest_distance_to_substrate>  (32) 
2.865051

>  <hbond:SER:7>  (32) 
hbond:SER:7    NaN
hbond:SER:7     -1
Name: 31, dtype: object

>  <halogenbond:SER:7>  (32) 
halogenbond:SER:7    NaN
halogenbond:SER:7     -1
Name: 31, dtype: object

>  <hbond:GLY:8>  (32) 
hbond:GLY:8    NaN
hbond:GLY:8     -1
Name: 31, dtype: object

>  <hydroph_interaction:VAL:18>  (32) 
hydroph_interaction:VAL:18    NaN
hydroph_interaction:VAL:18     -1
Name: 31, dtype: object

>  <hbond:ASN:19>  (32) 
hbond:ASN:19    NaN
hbond:ASN:19     -1
Name: 31, dtype: object

>  <hydroph_interaction:ASN:19>  (32) 
hydroph_interaction:ASN:19    NaN
hydroph_interaction:ASN:19     -1
Name: 31, dtype: object

>  <halogenbond:ASN:19>  (32) 
halogenbond:ASN:19    NaN
halogenbond:ASN:19     -1
Name: 31, dtype: object

>  <hbond:ARG:20>  (32) 
hbond:ARG:20    0.0
hbond:ARG:20      0
Name: 31, dtype: object

>  <hydroph_interaction:ARG:20>  (32) 
hydroph_interaction:ARG:20    NaN
hydroph_interaction:ARG:20     -1
Name: 31, dtype: object

>  <saltbridge:ARG:20>  (32) 
saltbridge:ARG:20    NaN
saltbridge:ARG:20     -1
Name: 31, dtype: object

>  <halogenbond:ARG:20>  (32) 
halogenbond:ARG:20    NaN
halogenbond:ARG:20     -1
Name: 31, dtype: object

>  <pication:ARG:20>  (32) 
pication:ARG:20    NaN
pication:ARG:20     -1
Name: 31, dtype: object

>  <hbond:HIS:21>  (32) 
hbond:HIS:21    0.0
hbond:HIS:21      0
Name: 31, dtype: object

>  <hydroph_interaction:HIS:21>  (32) 
hydroph_interaction:HIS:21    0.0
hydroph_interaction:HIS:21      0
Name: 31, dtype: object

>  <pistack:HIS:21>  (32) 
pistack:HIS:21    0.0
pistack:HIS:21      0
Name: 31, dtype: object

>  <pication:HIS:21>  (32) 
pication:HIS:21    0.0
pication:HIS:21      0
Name: 31, dtype: object

>  <saltbridge:HIS:21>  (32) 
saltbridge:HIS:21    0.0
saltbridge:HIS:21      0
Name: 31, dtype: object

>  <halogenbond:HIS:21>  (32) 
halogenbond:HIS:21    NaN
halogenbond:HIS:21     -1
Name: 31, dtype: object

>  <hydroph_interaction:LEU:22>  (32) 
hydroph_interaction:LEU:22    0.0
hydroph_interaction:LEU:22      0
Name: 31, dtype: object

>  <hbond:LEU:22>  (32) 
hbond:LEU:22    NaN
hbond:LEU:22     -1
Name: 31, dtype: object

>  <hydroph_interaction:TRP:28>  (32) 
hydroph_interaction:TRP:28    NaN
hydroph_interaction:TRP:28     -1
Name: 31, dtype: object

>  <hbond:SER:36>  (32) 
hbond:SER:36    NaN
hbond:SER:36     -1
Name: 31, dtype: object

>  <halogenbond:SER:36>  (32) 
halogenbond:SER:36    NaN
halogenbond:SER:36     -1
Name: 31, dtype: object

>  <hbond:SER:37>  (32) 
hbond:SER:37    NaN
hbond:SER:37     -1
Name: 31, dtype: object

>  <hbond:ARG:38>  (32) 
hbond:ARG:38    NaN
hbond:ARG:38     -1
Name: 31, dtype: object

>  <halogenbond:ARG:38>  (32) 
halogenbond:ARG:38    NaN
halogenbond:ARG:38     -1
Name: 31, dtype: object

>  <saltbridge:ASP:39>  (32) 
saltbridge:ASP:39    0.0
saltbridge:ASP:39      0
Name: 31, dtype: object

>  <halogenbond:ASP:39>  (32) 
halogenbond:ASP:39    NaN
halogenbond:ASP:39     -1
Name: 31, dtype: object

>  <hbond:ASP:39>  (32) 
hbond:ASP:39    0.0
hbond:ASP:39      0
Name: 31, dtype: object

>  <hydroph_interaction:ASP:39>  (32) 
hydroph_interaction:ASP:39    0.0
hydroph_interaction:ASP:39      0
Name: 31, dtype: object

>  <hydroph_interaction:LEU:40>  (32) 
hydroph_interaction:LEU:40    NaN
hydroph_interaction:LEU:40     -1
Name: 31, dtype: object

>  <hydroph_interaction:TYR:63>  (32) 
hydroph_interaction:TYR:63    NaN
hydroph_interaction:TYR:63     -1
Name: 31, dtype: object

>  <hbond:TYR:63>  (32) 
hbond:TYR:63    NaN
hbond:TYR:63     -1
Name: 31, dtype: object

>  <pistack:TYR:63>  (32) 
pistack:TYR:63    NaN
pistack:TYR:63     -1
Name: 31, dtype: object

>  <pication:TYR:63>  (32) 
pication:TYR:63    NaN
pication:TYR:63     -1
Name: 31, dtype: object

>  <halogenbond:TYR:64>  (32) 
halogenbond:TYR:64    NaN
halogenbond:TYR:64     -1
Name: 31, dtype: object

>  <hbond:TYR:64>  (32) 
hbond:TYR:64    NaN
hbond:TYR:64     -1
Name: 31, dtype: object

>  <hydroph_interaction:TYR:64>  (32) 
hydroph_interaction:TYR:64    NaN
hydroph_interaction:TYR:64     -1
Name: 31, dtype: object

>  <halogenbond:CYS:65>  (32) 
halogenbond:CYS:65    NaN
halogenbond:CYS:65     -1
Name: 31, dtype: object

>  <hbond:CYS:65>  (32) 
hbond:CYS:65    NaN
hbond:CYS:65     -1
Name: 31, dtype: object

>  <hbond:SER:66>  (32) 
hbond:SER:66    NaN
hbond:SER:66     -1
Name: 31, dtype: object

>  <halogenbond:SER:66>  (32) 
halogenbond:SER:66    NaN
halogenbond:SER:66     -1
Name: 31, dtype: object

>  <hbond:SER:67>  (32) 
hbond:SER:67    NaN
hbond:SER:67     -1
Name: 31, dtype: object

>  <halogenbond:SER:67>  (32) 
halogenbond:SER:67    NaN
halogenbond:SER:67     -1
Name: 31, dtype: object

>  <hbond:ARG:68>  (32) 
hbond:ARG:68    NaN
hbond:ARG:68     -1
Name: 31, dtype: object

>  <saltbridge:ARG:68>  (32) 
saltbridge:ARG:68    NaN
saltbridge:ARG:68     -1
Name: 31, dtype: object

>  <hydroph_interaction:ARG:68>  (32) 
hydroph_interaction:ARG:68    NaN
hydroph_interaction:ARG:68     -1
Name: 31, dtype: object

>  <pication:ARG:68>  (32) 
pication:ARG:68    NaN
pication:ARG:68     -1
Name: 31, dtype: object

>  <hydroph_interaction:TYR:72>  (32) 
hydroph_interaction:TYR:72    NaN
hydroph_interaction:TYR:72     -1
Name: 31, dtype: object

>  <hydroph_interaction:VAL:74>  (32) 
hydroph_interaction:VAL:74    NaN
hydroph_interaction:VAL:74     -1
Name: 31, dtype: object

>  <hydroph_interaction:PHE:76>  (32) 
hydroph_interaction:PHE:76    NaN
hydroph_interaction:PHE:76     -1
Name: 31, dtype: object

>  <hbond:SER:77>  (32) 
hbond:SER:77    NaN
hbond:SER:77     -1
Name: 31, dtype: object

>  <hbond:SER:80>  (32) 
hbond:SER:80    NaN
hbond:SER:80     -1
Name: 31, dtype: object

>  <hbond:LEU:81>  (32) 
hbond:LEU:81    NaN
hbond:LEU:81     -1
Name: 31, dtype: object

>  <halogenbond:LEU:81>  (32) 
halogenbond:LEU:81    NaN
halogenbond:LEU:81     -1
Name: 31, dtype: object

>  <hydroph_interaction:LEU:81>  (32) 
hydroph_interaction:LEU:81    NaN
hydroph_interaction:LEU:81     -1
Name: 31, dtype: object

>  <hydroph_interaction:ILE:82>  (32) 
hydroph_interaction:ILE:82    0.0
hydroph_interaction:ILE:82      0
Name: 31, dtype: object

>  <halogenbond:ILE:82>  (32) 
halogenbond:ILE:82    NaN
halogenbond:ILE:82     -1
Name: 31, dtype: object

>  <hbond:ILE:82>  (32) 
hbond:ILE:82    NaN
hbond:ILE:82     -1
Name: 31, dtype: object

>  <hbond:PHE:83>  (32) 
hbond:PHE:83    NaN
hbond:PHE:83     -1
Name: 31, dtype: object

>  <hydroph_interaction:PHE:83>  (32) 
hydroph_interaction:PHE:83    NaN
hydroph_interaction:PHE:83     -1
Name: 31, dtype: object

>  <halogenbond:PHE:83>  (32) 
halogenbond:PHE:83    NaN
halogenbond:PHE:83     -1
Name: 31, dtype: object

>  <pistack:PHE:83>  (32) 
pistack:PHE:83    NaN
pistack:PHE:83     -1
Name: 31, dtype: object

>  <pication:PHE:83>  (32) 
pication:PHE:83    NaN
pication:PHE:83     -1
Name: 31, dtype: object

>  <hydroph_interaction:VAL:84>  (32) 
hydroph_interaction:VAL:84    0.0
hydroph_interaction:VAL:84      0
Name: 31, dtype: object

>  <halogenbond:VAL:84>  (32) 
halogenbond:VAL:84    NaN
halogenbond:VAL:84     -1
Name: 31, dtype: object

>  <hbond:VAL:84>  (32) 
hbond:VAL:84    NaN
hbond:VAL:84     -1
Name: 31, dtype: object

>  <hydroph_interaction:GLU:85>  (32) 
hydroph_interaction:GLU:85    0.0
hydroph_interaction:GLU:85      0
Name: 31, dtype: object

>  <hbond:GLU:85>  (32) 
hbond:GLU:85    0.0
hbond:GLU:85      0
Name: 31, dtype: object

>  <halogenbond:GLU:85>  (32) 
halogenbond:GLU:85    NaN
halogenbond:GLU:85     -1
Name: 31, dtype: object

>  <saltbridge:GLU:85>  (32) 
saltbridge:GLU:85    NaN
saltbridge:GLU:85     -1
Name: 31, dtype: object

>  <halogenbond:ALA:86>  (32) 
halogenbond:ALA:86    0.0
halogenbond:ALA:86      0
Name: 31, dtype: object

>  <hbond:ALA:86>  (32) 
hbond:ALA:86    0.0
hbond:ALA:86      0
Name: 31, dtype: object

>  <hydroph_interaction:ALA:86>  (32) 
hydroph_interaction:ALA:86    NaN
hydroph_interaction:ALA:86     -1
Name: 31, dtype: object

>  <hbond:SER:87>  (32) 
hbond:SER:87    0
hbond:SER:87    0
Name: 31, dtype: object

>  <halogenbond:SER:87>  (32) 
halogenbond:SER:87    NaN
halogenbond:SER:87     -1
Name: 31, dtype: object

>  <hbond:GLU:88>  (32) 
hbond:GLU:88    0.0
hbond:GLU:88      0
Name: 31, dtype: object

>  <hydroph_interaction:GLU:88>  (32) 
hydroph_interaction:GLU:88    0.0
hydroph_interaction:GLU:88      0
Name: 31, dtype: object

>  <halogenbond:GLU:88>  (32) 
halogenbond:GLU:88    NaN
halogenbond:GLU:88     -1
Name: 31, dtype: object

>  <saltbridge:GLU:88>  (32) 
saltbridge:GLU:88    NaN
saltbridge:GLU:88     -1
Name: 31, dtype: object

>  <hydroph_interaction:TYR:89>  (32) 
hydroph_interaction:TYR:89    0.0
hydroph_interaction:TYR:89      0
Name: 31, dtype: object

>  <pistack:TYR:89>  (32) 
pistack:TYR:89    NaN
pistack:TYR:89     -1
Name: 31, dtype: object

>  <hbond:TYR:89>  (32) 
hbond:TYR:89    NaN
hbond:TYR:89     -1
Name: 31, dtype: object

>  <halogenbond:TYR:89>  (32) 
halogenbond:TYR:89    NaN
halogenbond:TYR:89     -1
Name: 31, dtype: object

>  <hydroph_interaction:TYR:90>  (32) 
hydroph_interaction:TYR:90    0.0
hydroph_interaction:TYR:90      0
Name: 31, dtype: object

>  <hbond:TYR:90>  (32) 
hbond:TYR:90    0.0
hbond:TYR:90      0
Name: 31, dtype: object

>  <pistack:TYR:90>  (32) 
pistack:TYR:90    0.0
pistack:TYR:90      0
Name: 31, dtype: object

>  <halogenbond:TYR:90>  (32) 
halogenbond:TYR:90    NaN
halogenbond:TYR:90     -1
Name: 31, dtype: object

>  <pication:TYR:90>  (32) 
pication:TYR:90    NaN
pication:TYR:90     -1
Name: 31, dtype: object

>  <hbond:PRO:91>  (32) 
hbond:PRO:91    0.0
hbond:PRO:91      0
Name: 31, dtype: object

>  <hydroph_interaction:PRO:91>  (32) 
hydroph_interaction:PRO:91    NaN
hydroph_interaction:PRO:91     -1
Name: 31, dtype: object

>  <halogenbond:PRO:91>  (32) 
halogenbond:PRO:91    NaN
halogenbond:PRO:91     -1
Name: 31, dtype: object

>  <hbond:ALA:92>  (32) 
hbond:ALA:92    NaN
hbond:ALA:92     -1
Name: 31, dtype: object

>  <hydroph_interaction:ALA:92>  (32) 
hydroph_interaction:ALA:92    NaN
hydroph_interaction:ALA:92     -1
Name: 31, dtype: object

>  <saltbridge:ARG:93>  (32) 
saltbridge:ARG:93    NaN
saltbridge:ARG:93     -1
Name: 31, dtype: object

>  <hbond:ARG:93>  (32) 
hbond:ARG:93    0.0
hbond:ARG:93      0
Name: 31, dtype: object

>  <hydroph_interaction:ARG:93>  (32) 
hydroph_interaction:ARG:93    0.0
hydroph_interaction:ARG:93      0
Name: 31, dtype: object

>  <halogenbond:ARG:93>  (32) 
halogenbond:ARG:93    NaN
halogenbond:ARG:93     -1
Name: 31, dtype: object

>  <pication:ARG:93>  (32) 
pication:ARG:93    NaN
pication:ARG:93     -1
Name: 31, dtype: object

>  <hydroph_interaction:TYR:94>  (32) 
hydroph_interaction:TYR:94    NaN
hydroph_interaction:TYR:94     -1
Name: 31, dtype: object

>  <pistack:TYR:94>  (32) 
pistack:TYR:94    NaN
pistack:TYR:94     -1
Name: 31, dtype: object

>  <hbond:TYR:94>  (32) 
hbond:TYR:94    0.0
hbond:TYR:94      0
Name: 31, dtype: object

>  <hbond:GLN:95>  (32) 
hbond:GLN:95    0.0
hbond:GLN:95      0
Name: 31, dtype: object

>  <hydroph_interaction:GLN:95>  (32) 
hydroph_interaction:GLN:95    0.0
hydroph_interaction:GLN:95      0
Name: 31, dtype: object

>  <halogenbond:GLN:95>  (32) 
halogenbond:GLN:95    0.0
halogenbond:GLN:95      0
Name: 31, dtype: object

>  <hbond:SER:96>  (32) 
hbond:SER:96    NaN
hbond:SER:96     -1
Name: 31, dtype: object

>  <halogenbond:HIS:97>  (32) 
halogenbond:HIS:97    NaN
halogenbond:HIS:97     -1
Name: 31, dtype: object

>  <hydroph_interaction:LEU:98>  (32) 
hydroph_interaction:LEU:98    NaN
hydroph_interaction:LEU:98     -1
Name: 31, dtype: object

>  <hbond:LEU:98>  (32) 
hbond:LEU:98    NaN
hbond:LEU:98     -1
Name: 31, dtype: object

>  <halogenbond:LEU:98>  (32) 
halogenbond:LEU:98    NaN
halogenbond:LEU:98     -1
Name: 31, dtype: object

>  <hbond:MET:99>  (32) 
hbond:MET:99    NaN
hbond:MET:99     -1
Name: 31, dtype: object

>  <hydroph_interaction:MET:99>  (32) 
hydroph_interaction:MET:99    NaN
hydroph_interaction:MET:99     -1
Name: 31, dtype: object

>  <halogenbond:MET:99>  (32) 
halogenbond:MET:99    NaN
halogenbond:MET:99     -1
Name: 31, dtype: object

>  <hydroph_interaction:LEU:100>  (32) 
hydroph_interaction:LEU:100    0.0
hydroph_interaction:LEU:100      0
Name: 31, dtype: object

>  <hbond:LEU:100>  (32) 
hbond:LEU:100    NaN
hbond:LEU:100     -1
Name: 31, dtype: object

>  <hbond:ALA:101>  (32) 
hbond:ALA:101    NaN
hbond:ALA:101     -1
Name: 31, dtype: object

>  <hydroph_interaction:ALA:101>  (32) 
hydroph_interaction:ALA:101    NaN
hydroph_interaction:ALA:101     -1
Name: 31, dtype: object

>  <hydroph_interaction:VAL:102>  (32) 
hydroph_interaction:VAL:102    NaN
hydroph_interaction:VAL:102     -1
Name: 31, dtype: object

>  <hbond:VAL:102>  (32) 
hbond:VAL:102    NaN
hbond:VAL:102     -1
Name: 31, dtype: object

>  <hbond:GLY:103>  (32) 
hbond:GLY:103    NaN
hbond:GLY:103     -1
Name: 31, dtype: object

>  <halogenbond:GLY:103>  (32) 
halogenbond:GLY:103    NaN
halogenbond:GLY:103     -1
Name: 31, dtype: object

>  <hbond:HIS:104>  (32) 
hbond:HIS:104    0.0
hbond:HIS:104      0
Name: 31, dtype: object

>  <saltbridge:HIS:104>  (32) 
saltbridge:HIS:104    NaN
saltbridge:HIS:104     -1
Name: 31, dtype: object

>  <pication:HIS:104>  (32) 
pication:HIS:104    NaN
pication:HIS:104     -1
Name: 31, dtype: object

>  <halogenbond:HIS:104>  (32) 
halogenbond:HIS:104    NaN
halogenbond:HIS:104     -1
Name: 31, dtype: object

>  <hydroph_interaction:HIS:104>  (32) 
hydroph_interaction:HIS:104    NaN
hydroph_interaction:HIS:104     -1
Name: 31, dtype: object

>  <pistack:HIS:104>  (32) 
pistack:HIS:104    0.0
pistack:HIS:104      0
Name: 31, dtype: object

>  <halogenbond:SER:105>  (32) 
halogenbond:SER:105    0.0
halogenbond:SER:105      0
Name: 31, dtype: object

>  <hbond:SER:105>  (32) 
hbond:SER:105    0.0
hbond:SER:105      0
Name: 31, dtype: object

>  <hbond:GLU:106>  (32) 
hbond:GLU:106    0.0
hbond:GLU:106      0
Name: 31, dtype: object

>  <hydroph_interaction:GLU:106>  (32) 
hydroph_interaction:GLU:106    0.0
hydroph_interaction:GLU:106      0
Name: 31, dtype: object

>  <saltbridge:GLU:106>  (32) 
saltbridge:GLU:106    0.0
saltbridge:GLU:106      0
Name: 31, dtype: object

>  <halogenbond:GLU:106>  (32) 
halogenbond:GLU:106    NaN
halogenbond:GLU:106     -1
Name: 31, dtype: object

>  <hydroph_interaction:PRO:107>  (32) 
hydroph_interaction:PRO:107    1
hydroph_interaction:PRO:107    1
Name: 31, dtype: object

>  <hbond:PRO:107>  (32) 
hbond:PRO:107    NaN
hbond:PRO:107     -1
Name: 31, dtype: object

>  <halogenbond:PRO:107>  (32) 
halogenbond:PRO:107    NaN
halogenbond:PRO:107     -1
Name: 31, dtype: object

>  <hbond:GLY:108>  (32) 
hbond:GLY:108    NaN
hbond:GLY:108     -1
Name: 31, dtype: object

>  <halogenbond:GLY:108>  (32) 
halogenbond:GLY:108    NaN
halogenbond:GLY:108     -1
Name: 31, dtype: object

>  <hbond:ASP:109>  (32) 
hbond:ASP:109    NaN
hbond:ASP:109     -1
Name: 31, dtype: object

>  <hydroph_interaction:ASP:109>  (32) 
hydroph_interaction:ASP:109    0.0
hydroph_interaction:ASP:109      0
Name: 31, dtype: object

>  <saltbridge:ASP:109>  (32) 
saltbridge:ASP:109    NaN
saltbridge:ASP:109     -1
Name: 31, dtype: object

>  <halogenbond:CYS:110>  (32) 
halogenbond:CYS:110    0.0
halogenbond:CYS:110      0
Name: 31, dtype: object

>  <hbond:CYS:110>  (32) 
hbond:CYS:110    0.0
hbond:CYS:110      0
Name: 31, dtype: object

>  <hbond:GLY:111>  (32) 
hbond:GLY:111    NaN
hbond:GLY:111     -1
Name: 31, dtype: object

>  <hbond:GLY:112>  (32) 
hbond:GLY:112    NaN
hbond:GLY:112     -1
Name: 31, dtype: object

>  <hbond:ILE:113>  (32) 
hbond:ILE:113    NaN
hbond:ILE:113     -1
Name: 31, dtype: object

>  <hydroph_interaction:LEU:114>  (32) 
hydroph_interaction:LEU:114    NaN
hydroph_interaction:LEU:114     -1
Name: 31, dtype: object

>  <hbond:LEU:114>  (32) 
hbond:LEU:114    NaN
hbond:LEU:114     -1
Name: 31, dtype: object

>  <hydroph_interaction:ILE:123>  (32) 
hydroph_interaction:ILE:123    NaN
hydroph_interaction:ILE:123     -1
Name: 31, dtype: object

>  <hbond:ILE:123>  (32) 
hbond:ILE:123    NaN
hbond:ILE:123     -1
Name: 31, dtype: object

>  <hydroph_interaction:VAL:124>  (32) 
hydroph_interaction:VAL:124    1.0
hydroph_interaction:VAL:124      1
Name: 31, dtype: object

>  <hbond:VAL:124>  (32) 
hbond:VAL:124    NaN
hbond:VAL:124     -1
Name: 31, dtype: object

>  <halogenbond:VAL:124>  (32) 
halogenbond:VAL:124    NaN
halogenbond:VAL:124     -1
Name: 31, dtype: object

>  <hbond:SER:125>  (32) 
hbond:SER:125    0
hbond:SER:125    0
Name: 31, dtype: object

>  <halogenbond:SER:125>  (32) 
halogenbond:SER:125    NaN
halogenbond:SER:125     -1
Name: 31, dtype: object

>  <hydroph_interaction:THR:126>  (32) 
hydroph_interaction:THR:126    0.0
hydroph_interaction:THR:126      0
Name: 31, dtype: object

>  <hbond:THR:126>  (32) 
hbond:THR:126    0.0
hbond:THR:126      0
Name: 31, dtype: object

>  <halogenbond:THR:126>  (32) 
halogenbond:THR:126    NaN
halogenbond:THR:126     -1
Name: 31, dtype: object

>  <hbond:GLY:127>  (32) 
hbond:GLY:127    0
hbond:GLY:127    0
Name: 31, dtype: object

>  <halogenbond:GLY:127>  (32) 
halogenbond:GLY:127    1.0
halogenbond:GLY:127      1
Name: 31, dtype: object

>  <hydroph_interaction:GLY:127>  (32) 
hydroph_interaction:GLY:127    NaN
hydroph_interaction:GLY:127     -1
Name: 31, dtype: object

>  <hbond:GLY:128>  (32) 
hbond:GLY:128    0.0
hbond:GLY:128      0
Name: 31, dtype: object

>  <halogenbond:GLY:128>  (32) 
halogenbond:GLY:128    NaN
halogenbond:GLY:128     -1
Name: 31, dtype: object

>  <hydroph_interaction:GLY:128>  (32) 
hydroph_interaction:GLY:128    NaN
hydroph_interaction:GLY:128     -1
Name: 31, dtype: object

>  <hbond:ASN:129>  (32) 
hbond:ASN:129    0.0
hbond:ASN:129      0
Name: 31, dtype: object

>  <hydroph_interaction:ASN:129>  (32) 
hydroph_interaction:ASN:129    NaN
hydroph_interaction:ASN:129     -1
Name: 31, dtype: object

>  <halogenbond:ASN:129>  (32) 
halogenbond:ASN:129    NaN
halogenbond:ASN:129     -1
Name: 31, dtype: object

>  <hbond:GLY:130>  (32) 
hbond:GLY:130    0.0
hbond:GLY:130      0
Name: 31, dtype: object

>  <hbond:LEU:131>  (32) 
hbond:LEU:131    NaN
hbond:LEU:131     -1
Name: 31, dtype: object

>  <hydroph_interaction:LEU:131>  (32) 
hydroph_interaction:LEU:131    0.0
hydroph_interaction:LEU:131      0
Name: 31, dtype: object

>  <halogenbond:LEU:131>  (32) 
halogenbond:LEU:131    NaN
halogenbond:LEU:131     -1
Name: 31, dtype: object

>  <hydroph_interaction:VAL:132>  (32) 
hydroph_interaction:VAL:132    NaN
hydroph_interaction:VAL:132     -1
Name: 31, dtype: object

>  <hbond:VAL:132>  (32) 
hbond:VAL:132    NaN
hbond:VAL:132     -1
Name: 31, dtype: object

>  <hbond:GLY:133>  (32) 
hbond:GLY:133    NaN
hbond:GLY:133     -1
Name: 31, dtype: object

>  <halogenbond:GLY:133>  (32) 
halogenbond:GLY:133    NaN
halogenbond:GLY:133     -1
Name: 31, dtype: object

>  <hydroph_interaction:PHE:134>  (32) 
hydroph_interaction:PHE:134    NaN
hydroph_interaction:PHE:134     -1
Name: 31, dtype: object

>  <hbond:PHE:134>  (32) 
hbond:PHE:134    NaN
hbond:PHE:134     -1
Name: 31, dtype: object

>  <pistack:PHE:134>  (32) 
pistack:PHE:134    NaN
pistack:PHE:134     -1
Name: 31, dtype: object

>  <pication:PHE:134>  (32) 
pication:PHE:134    NaN
pication:PHE:134     -1
Name: 31, dtype: object

>  <halogenbond:PHE:134>  (32) 
halogenbond:PHE:134    NaN
halogenbond:PHE:134     -1
Name: 31, dtype: object

>  <hydroph_interaction:ALA:135>  (32) 
hydroph_interaction:ALA:135    NaN
hydroph_interaction:ALA:135     -1
Name: 31, dtype: object

>  <hbond:ALA:135>  (32) 
hbond:ALA:135    NaN
hbond:ALA:135     -1
Name: 31, dtype: object

$$$$
Z3621457233
     RDKit          3D

 29 30  0  0  0  0  0  0  0  0999 V2000
   10.5160    9.6040   22.4640 C   0  0  0  0  0  0  0  0  0  0  0  0
    9.6630   10.5000   23.2880 C   0  0  0  0  0  0  0  0  0  0  0  0
    8.7980    9.7820   24.0470 C   0  0  0  0  0  0  0  0  0  0  0  0
    7.8920   10.3360   24.8870 C   0  0  0  0  0  0  0  0  0  0  0  0
    7.8770   11.7620   24.9470 C   0  0  0  0  0  0  0  0  0  0  0  0
    7.0530   12.5220   25.7070 C   0  0  0  0  0  0  0  0  0  0  0  0
    7.3280   13.8450   25.2790 C   0  0  0  0  0  0  0  0  0  0  0  0
    8.4840   13.9840   24.4740 C   0  0  0  0  0  0  0  0  0  0  0  0
    8.7530   12.5340   24.1880 C   0  0  0  0  0  0  0  0  0  0  0  0
    9.6710   11.9230   23.3450 C   0  0  0  0  0  0  0  0  0  0  0  0
   10.5320   12.7020   22.6050 O   0  0  0  0  0  0  0  0  0  0  0  0
   11.6180   13.7060   23.3480 S   0  0  0  0  0  6  0  0  0  0  0  0
   12.1540   14.5910   21.9010 C   0  0  0  0  0  0  0  0  0  0  0  0
   10.9340   14.6410   24.2060 O   0  0  0  0  0  0  0  0  0  0  0  0
   12.7700   12.9940   23.8420 O   0  0  0  0  0  0  0  0  0  0  0  0
    9.8950    8.8280   22.0190 H   0  0  0  0  0  0  0  0  0  0  0  0
   10.9640   10.1720   21.6730 H   0  0  0  0  0  0  0  0  0  0  0  0
   11.2860    9.1470   23.0940 H   0  0  0  0  0  0  0  0  0  0  0  0
    8.8960    8.7260   23.9200 H   0  0  0  0  0  0  0  0  0  0  0  0
    7.1970    9.7570   25.4920 H   0  0  0  0  0  0  0  0  0  0  0  0
    7.1560   12.3610   26.7730 H   0  0  0  0  0  0  0  0  0  0  0  0
    6.0050   12.2950   25.5230 H   0  0  0  0  0  0  0  0  0  0  0  0
    6.4700   14.1790   24.6810 H   0  0  0  0  0  0  0  0  0  0  0  0
    7.3720   14.5260   26.1370 H   0  0  0  0  0  0  0  0  0  0  0  0
    8.2050   14.4270   23.5100 H   0  0  0  0  0  0  0  0  0  0  0  0
    9.4020   14.4440   24.7990 H   0  0  0  0  0  0  0  0  0  0  0  0
   13.0700   15.1390   22.1400 H   0  0  0  0  0  0  0  0  0  0  0  0
   12.3550   13.8610   21.1120 H   0  0  0  0  0  0  0  0  0  0  0  0
   11.3650   15.2740   21.5870 H   0  0  0  0  0  0  0  0  0  0  0  0
  1  2  1  0
  2  3  2  0
  3  4  1  0
  4  5  2  0
  5  6  1  0
  6  7  1  0
  7  8  1  0
  8  9  1  0
  9 10  2  0
 10 11  1  0
 11 12  1  0
 12 13  1  0
 12 14  2  0
 12 15  2  0
 10  2  1  0
  9  5  1  0
  1 16  1  0
  1 17  1  0
  1 18  1  0
  3 19  1  0
  4 20  1  0
  6 21  1  0
  6 22  1  0
  7 23  1  0
  7 24  1  0
  8 25  1  0
  8 26  1  0
 13 27  1  0
 13 28  1  0
 13 29  1  0
A    1
 C1 
A    2
 C2 
A    3
 C3 
A    4
 C4 
A    5
 C5 
A    6
 C6 
A    7
 C7 
A    8
 C8 
A    9
 C9 
A   10
 C10
A   11
 O1 
A   12
 S1 
A   13
 C11
A   14
 O2 
A   15
 O3 
A   16
 H1 
A   17
 H2 
A   18
 H3 
A   19
 H4 
A   20
 H5 
A   21
 H6 
A   22
 H7 
A   23
 H8 
A   24
 H9 
A   25
 H10
A   26
 H11
A   27
 H12
A   28
 H13
A   29
 H14
M  END
>  <ref_pdb>  (33) 
x0310_0A

>  <ref_mols>  (33) 
x0554_0A,x0922_0A

>  <original SMILES>  (33) 
Cc1ccc2c(c1OS(C)(=O)=O)CCC2

>  <rationale>  (33) 
info halogenbond:G127+D39+A86+S125+E85+Q95+E106+E88+T126+H104+Y64+C65+S87+N129+F83+R93+L131+I82+G128+P91+N19+H21+V84+G133+Y90+Y89+H97+L81+F134+L98+R20+G103+S66+S67+S7+G108+R38+V124+M99+S36; hbond:S87+Q95+T126+D39+A86+C110+D109+G108+G103+G128+G130+L131+N129+H104+R68+V124+P91+F83+S67+S7+S66+G112+G133+V132+R20+Y89+S77+A135+Y63+A92+A101+M99+F134+L100+I82+Y64+S36+L98+V84+L81+Y94+S80+R38+S37+V102+G8+I123+G111+I113+L114+C65+L22+S96; hydroph_interaction:V124+P107+E85+E106+D109+N129+L40+I123+A135+Q95+I82+L100+L98+L131+F83+R93+V132+Y63+F134+H104+R20+A86+V74+P91+A101+F76+M99+L114+A92+Y94+R68+Y72+Y64+V18+V102+W28+G127+G128+L81; pication:H104+R93+Y63+F134+Y90+R68+F83+R20; pistack:H104+F134+Y63+F83+Y94; saltbridge:D39+H21+R93+H104+E106+D109+E85+E88+R68+R20; 

>  <intxn_cluster>  (33) 
-1

>  <intxn_cluster_rank>  (33) 
-1

>  <N_interactions>  (33) 
4

>  <∆∆G>  (33) 
-9.339895

>  <$/mg>  (33) 
0.0

>  <comRMSD>  (33) 
0.632286

>  <N_rotatable_bonds>  (33) 
4

>  <deep_P1_sidechain>  (33) 
nan

>  <farthest_distance_to_substrate>  (33) 
2.824359

>  <hbond:SER:7>  (33) 
hbond:SER:7    NaN
hbond:SER:7     -1
Name: 32, dtype: object

>  <halogenbond:SER:7>  (33) 
halogenbond:SER:7    NaN
halogenbond:SER:7     -1
Name: 32, dtype: object

>  <hbond:GLY:8>  (33) 
hbond:GLY:8    NaN
hbond:GLY:8     -1
Name: 32, dtype: object

>  <hydroph_interaction:VAL:18>  (33) 
hydroph_interaction:VAL:18    NaN
hydroph_interaction:VAL:18     -1
Name: 32, dtype: object

>  <hbond:ASN:19>  (33) 
hbond:ASN:19    0.0
hbond:ASN:19      0
Name: 32, dtype: object

>  <hydroph_interaction:ASN:19>  (33) 
hydroph_interaction:ASN:19    0.0
hydroph_interaction:ASN:19      0
Name: 32, dtype: object

>  <halogenbond:ASN:19>  (33) 
halogenbond:ASN:19    NaN
halogenbond:ASN:19     -1
Name: 32, dtype: object

>  <hbond:ARG:20>  (33) 
hbond:ARG:20    NaN
hbond:ARG:20     -1
Name: 32, dtype: object

>  <hydroph_interaction:ARG:20>  (33) 
hydroph_interaction:ARG:20    NaN
hydroph_interaction:ARG:20     -1
Name: 32, dtype: object

>  <saltbridge:ARG:20>  (33) 
saltbridge:ARG:20    NaN
saltbridge:ARG:20     -1
Name: 32, dtype: object

>  <halogenbond:ARG:20>  (33) 
halogenbond:ARG:20    NaN
halogenbond:ARG:20     -1
Name: 32, dtype: object

>  <pication:ARG:20>  (33) 
pication:ARG:20    NaN
pication:ARG:20     -1
Name: 32, dtype: object

>  <hbond:HIS:21>  (33) 
hbond:HIS:21    0.0
hbond:HIS:21      0
Name: 32, dtype: object

>  <hydroph_interaction:HIS:21>  (33) 
hydroph_interaction:HIS:21    0.0
hydroph_interaction:HIS:21      0
Name: 32, dtype: object

>  <pistack:HIS:21>  (33) 
pistack:HIS:21    0.0
pistack:HIS:21      0
Name: 32, dtype: object

>  <pication:HIS:21>  (33) 
pication:HIS:21    0.0
pication:HIS:21      0
Name: 32, dtype: object

>  <saltbridge:HIS:21>  (33) 
saltbridge:HIS:21    1.0
saltbridge:HIS:21      1
Name: 32, dtype: object

>  <halogenbond:HIS:21>  (33) 
halogenbond:HIS:21    NaN
halogenbond:HIS:21     -1
Name: 32, dtype: object

>  <hydroph_interaction:LEU:22>  (33) 
hydroph_interaction:LEU:22    0.0
hydroph_interaction:LEU:22      0
Name: 32, dtype: object

>  <hbond:LEU:22>  (33) 
hbond:LEU:22    NaN
hbond:LEU:22     -1
Name: 32, dtype: object

>  <hydroph_interaction:TRP:28>  (33) 
hydroph_interaction:TRP:28    NaN
hydroph_interaction:TRP:28     -1
Name: 32, dtype: object

>  <hbond:SER:36>  (33) 
hbond:SER:36    NaN
hbond:SER:36     -1
Name: 32, dtype: object

>  <halogenbond:SER:36>  (33) 
halogenbond:SER:36    NaN
halogenbond:SER:36     -1
Name: 32, dtype: object

>  <hbond:SER:37>  (33) 
hbond:SER:37    NaN
hbond:SER:37     -1
Name: 32, dtype: object

>  <hbond:ARG:38>  (33) 
hbond:ARG:38    NaN
hbond:ARG:38     -1
Name: 32, dtype: object

>  <halogenbond:ARG:38>  (33) 
halogenbond:ARG:38    NaN
halogenbond:ARG:38     -1
Name: 32, dtype: object

>  <saltbridge:ASP:39>  (33) 
saltbridge:ASP:39    NaN
saltbridge:ASP:39     -1
Name: 32, dtype: object

>  <halogenbond:ASP:39>  (33) 
halogenbond:ASP:39    NaN
halogenbond:ASP:39     -1
Name: 32, dtype: object

>  <hbond:ASP:39>  (33) 
hbond:ASP:39    NaN
hbond:ASP:39     -1
Name: 32, dtype: object

>  <hydroph_interaction:ASP:39>  (33) 
hydroph_interaction:ASP:39    0.0
hydroph_interaction:ASP:39      0
Name: 32, dtype: object

>  <hydroph_interaction:LEU:40>  (33) 
hydroph_interaction:LEU:40    NaN
hydroph_interaction:LEU:40     -1
Name: 32, dtype: object

>  <hydroph_interaction:TYR:63>  (33) 
hydroph_interaction:TYR:63    NaN
hydroph_interaction:TYR:63     -1
Name: 32, dtype: object

>  <hbond:TYR:63>  (33) 
hbond:TYR:63    NaN
hbond:TYR:63     -1
Name: 32, dtype: object

>  <pistack:TYR:63>  (33) 
pistack:TYR:63    NaN
pistack:TYR:63     -1
Name: 32, dtype: object

>  <pication:TYR:63>  (33) 
pication:TYR:63    NaN
pication:TYR:63     -1
Name: 32, dtype: object

>  <halogenbond:TYR:64>  (33) 
halogenbond:TYR:64    NaN
halogenbond:TYR:64     -1
Name: 32, dtype: object

>  <hbond:TYR:64>  (33) 
hbond:TYR:64    NaN
hbond:TYR:64     -1
Name: 32, dtype: object

>  <hydroph_interaction:TYR:64>  (33) 
hydroph_interaction:TYR:64    NaN
hydroph_interaction:TYR:64     -1
Name: 32, dtype: object

>  <halogenbond:CYS:65>  (33) 
halogenbond:CYS:65    NaN
halogenbond:CYS:65     -1
Name: 32, dtype: object

>  <hbond:CYS:65>  (33) 
hbond:CYS:65    NaN
hbond:CYS:65     -1
Name: 32, dtype: object

>  <hbond:SER:66>  (33) 
hbond:SER:66    NaN
hbond:SER:66     -1
Name: 32, dtype: object

>  <halogenbond:SER:66>  (33) 
halogenbond:SER:66    NaN
halogenbond:SER:66     -1
Name: 32, dtype: object

>  <hbond:SER:67>  (33) 
hbond:SER:67    NaN
hbond:SER:67     -1
Name: 32, dtype: object

>  <halogenbond:SER:67>  (33) 
halogenbond:SER:67    NaN
halogenbond:SER:67     -1
Name: 32, dtype: object

>  <hbond:ARG:68>  (33) 
hbond:ARG:68    NaN
hbond:ARG:68     -1
Name: 32, dtype: object

>  <saltbridge:ARG:68>  (33) 
saltbridge:ARG:68    NaN
saltbridge:ARG:68     -1
Name: 32, dtype: object

>  <hydroph_interaction:ARG:68>  (33) 
hydroph_interaction:ARG:68    NaN
hydroph_interaction:ARG:68     -1
Name: 32, dtype: object

>  <pication:ARG:68>  (33) 
pication:ARG:68    NaN
pication:ARG:68     -1
Name: 32, dtype: object

>  <hydroph_interaction:TYR:72>  (33) 
hydroph_interaction:TYR:72    NaN
hydroph_interaction:TYR:72     -1
Name: 32, dtype: object

>  <hydroph_interaction:VAL:74>  (33) 
hydroph_interaction:VAL:74    NaN
hydroph_interaction:VAL:74     -1
Name: 32, dtype: object

>  <hydroph_interaction:PHE:76>  (33) 
hydroph_interaction:PHE:76    NaN
hydroph_interaction:PHE:76     -1
Name: 32, dtype: object

>  <hbond:SER:77>  (33) 
hbond:SER:77    NaN
hbond:SER:77     -1
Name: 32, dtype: object

>  <hbond:SER:80>  (33) 
hbond:SER:80    NaN
hbond:SER:80     -1
Name: 32, dtype: object

>  <hbond:LEU:81>  (33) 
hbond:LEU:81    NaN
hbond:LEU:81     -1
Name: 32, dtype: object

>  <halogenbond:LEU:81>  (33) 
halogenbond:LEU:81    NaN
halogenbond:LEU:81     -1
Name: 32, dtype: object

>  <hydroph_interaction:LEU:81>  (33) 
hydroph_interaction:LEU:81    NaN
hydroph_interaction:LEU:81     -1
Name: 32, dtype: object

>  <hydroph_interaction:ILE:82>  (33) 
hydroph_interaction:ILE:82    NaN
hydroph_interaction:ILE:82     -1
Name: 32, dtype: object

>  <halogenbond:ILE:82>  (33) 
halogenbond:ILE:82    NaN
halogenbond:ILE:82     -1
Name: 32, dtype: object

>  <hbond:ILE:82>  (33) 
hbond:ILE:82    NaN
hbond:ILE:82     -1
Name: 32, dtype: object

>  <hbond:PHE:83>  (33) 
hbond:PHE:83    NaN
hbond:PHE:83     -1
Name: 32, dtype: object

>  <hydroph_interaction:PHE:83>  (33) 
hydroph_interaction:PHE:83    NaN
hydroph_interaction:PHE:83     -1
Name: 32, dtype: object

>  <halogenbond:PHE:83>  (33) 
halogenbond:PHE:83    NaN
halogenbond:PHE:83     -1
Name: 32, dtype: object

>  <pistack:PHE:83>  (33) 
pistack:PHE:83    NaN
pistack:PHE:83     -1
Name: 32, dtype: object

>  <pication:PHE:83>  (33) 
pication:PHE:83    NaN
pication:PHE:83     -1
Name: 32, dtype: object

>  <hydroph_interaction:VAL:84>  (33) 
hydroph_interaction:VAL:84    0.0
hydroph_interaction:VAL:84      0
Name: 32, dtype: object

>  <halogenbond:VAL:84>  (33) 
halogenbond:VAL:84    NaN
halogenbond:VAL:84     -1
Name: 32, dtype: object

>  <hbond:VAL:84>  (33) 
hbond:VAL:84    NaN
hbond:VAL:84     -1
Name: 32, dtype: object

>  <hydroph_interaction:GLU:85>  (33) 
hydroph_interaction:GLU:85    NaN
hydroph_interaction:GLU:85     -1
Name: 32, dtype: object

>  <hbond:GLU:85>  (33) 
hbond:GLU:85    0.0
hbond:GLU:85      0
Name: 32, dtype: object

>  <halogenbond:GLU:85>  (33) 
halogenbond:GLU:85    NaN
halogenbond:GLU:85     -1
Name: 32, dtype: object

>  <saltbridge:GLU:85>  (33) 
saltbridge:GLU:85    NaN
saltbridge:GLU:85     -1
Name: 32, dtype: object

>  <halogenbond:ALA:86>  (33) 
halogenbond:ALA:86    NaN
halogenbond:ALA:86     -1
Name: 32, dtype: object

>  <hbond:ALA:86>  (33) 
hbond:ALA:86    NaN
hbond:ALA:86     -1
Name: 32, dtype: object

>  <hydroph_interaction:ALA:86>  (33) 
hydroph_interaction:ALA:86    NaN
hydroph_interaction:ALA:86     -1
Name: 32, dtype: object

>  <hbond:SER:87>  (33) 
hbond:SER:87    1
hbond:SER:87    1
Name: 32, dtype: object

>  <halogenbond:SER:87>  (33) 
halogenbond:SER:87    NaN
halogenbond:SER:87     -1
Name: 32, dtype: object

>  <hbond:GLU:88>  (33) 
hbond:GLU:88    0.0
hbond:GLU:88      0
Name: 32, dtype: object

>  <hydroph_interaction:GLU:88>  (33) 
hydroph_interaction:GLU:88    0.0
hydroph_interaction:GLU:88      0
Name: 32, dtype: object

>  <halogenbond:GLU:88>  (33) 
halogenbond:GLU:88    NaN
halogenbond:GLU:88     -1
Name: 32, dtype: object

>  <saltbridge:GLU:88>  (33) 
saltbridge:GLU:88    NaN
saltbridge:GLU:88     -1
Name: 32, dtype: object

>  <hydroph_interaction:TYR:89>  (33) 
hydroph_interaction:TYR:89    0.0
hydroph_interaction:TYR:89      0
Name: 32, dtype: object

>  <pistack:TYR:89>  (33) 
pistack:TYR:89    0.0
pistack:TYR:89      0
Name: 32, dtype: object

>  <hbond:TYR:89>  (33) 
hbond:TYR:89    NaN
hbond:TYR:89     -1
Name: 32, dtype: object

>  <halogenbond:TYR:89>  (33) 
halogenbond:TYR:89    NaN
halogenbond:TYR:89     -1
Name: 32, dtype: object

>  <hydroph_interaction:TYR:90>  (33) 
hydroph_interaction:TYR:90    0.0
hydroph_interaction:TYR:90      0
Name: 32, dtype: object

>  <hbond:TYR:90>  (33) 
hbond:TYR:90    0.0
hbond:TYR:90      0
Name: 32, dtype: object

>  <pistack:TYR:90>  (33) 
pistack:TYR:90    0.0
pistack:TYR:90      0
Name: 32, dtype: object

>  <halogenbond:TYR:90>  (33) 
halogenbond:TYR:90    NaN
halogenbond:TYR:90     -1
Name: 32, dtype: object

>  <pication:TYR:90>  (33) 
pication:TYR:90    NaN
pication:TYR:90     -1
Name: 32, dtype: object

>  <hbond:PRO:91>  (33) 
hbond:PRO:91    NaN
hbond:PRO:91     -1
Name: 32, dtype: object

>  <hydroph_interaction:PRO:91>  (33) 
hydroph_interaction:PRO:91    NaN
hydroph_interaction:PRO:91     -1
Name: 32, dtype: object

>  <halogenbond:PRO:91>  (33) 
halogenbond:PRO:91    NaN
halogenbond:PRO:91     -1
Name: 32, dtype: object

>  <hbond:ALA:92>  (33) 
hbond:ALA:92    NaN
hbond:ALA:92     -1
Name: 32, dtype: object

>  <hydroph_interaction:ALA:92>  (33) 
hydroph_interaction:ALA:92    NaN
hydroph_interaction:ALA:92     -1
Name: 32, dtype: object

>  <saltbridge:ARG:93>  (33) 
saltbridge:ARG:93    NaN
saltbridge:ARG:93     -1
Name: 32, dtype: object

>  <hbond:ARG:93>  (33) 
hbond:ARG:93    0.0
hbond:ARG:93      0
Name: 32, dtype: object

>  <hydroph_interaction:ARG:93>  (33) 
hydroph_interaction:ARG:93    NaN
hydroph_interaction:ARG:93     -1
Name: 32, dtype: object

>  <halogenbond:ARG:93>  (33) 
halogenbond:ARG:93    NaN
halogenbond:ARG:93     -1
Name: 32, dtype: object

>  <pication:ARG:93>  (33) 
pication:ARG:93    NaN
pication:ARG:93     -1
Name: 32, dtype: object

>  <hydroph_interaction:TYR:94>  (33) 
hydroph_interaction:TYR:94    NaN
hydroph_interaction:TYR:94     -1
Name: 32, dtype: object

>  <pistack:TYR:94>  (33) 
pistack:TYR:94    NaN
pistack:TYR:94     -1
Name: 32, dtype: object

>  <hbond:TYR:94>  (33) 
hbond:TYR:94    NaN
hbond:TYR:94     -1
Name: 32, dtype: object

>  <hbond:GLN:95>  (33) 
hbond:GLN:95    NaN
hbond:GLN:95     -1
Name: 32, dtype: object

>  <hydroph_interaction:GLN:95>  (33) 
hydroph_interaction:GLN:95    NaN
hydroph_interaction:GLN:95     -1
Name: 32, dtype: object

>  <halogenbond:GLN:95>  (33) 
halogenbond:GLN:95    NaN
halogenbond:GLN:95     -1
Name: 32, dtype: object

>  <hbond:SER:96>  (33) 
hbond:SER:96    NaN
hbond:SER:96     -1
Name: 32, dtype: object

>  <halogenbond:HIS:97>  (33) 
halogenbond:HIS:97    NaN
halogenbond:HIS:97     -1
Name: 32, dtype: object

>  <hydroph_interaction:LEU:98>  (33) 
hydroph_interaction:LEU:98    NaN
hydroph_interaction:LEU:98     -1
Name: 32, dtype: object

>  <hbond:LEU:98>  (33) 
hbond:LEU:98    NaN
hbond:LEU:98     -1
Name: 32, dtype: object

>  <halogenbond:LEU:98>  (33) 
halogenbond:LEU:98    NaN
halogenbond:LEU:98     -1
Name: 32, dtype: object

>  <hbond:MET:99>  (33) 
hbond:MET:99    NaN
hbond:MET:99     -1
Name: 32, dtype: object

>  <hydroph_interaction:MET:99>  (33) 
hydroph_interaction:MET:99    NaN
hydroph_interaction:MET:99     -1
Name: 32, dtype: object

>  <halogenbond:MET:99>  (33) 
halogenbond:MET:99    NaN
halogenbond:MET:99     -1
Name: 32, dtype: object

>  <hydroph_interaction:LEU:100>  (33) 
hydroph_interaction:LEU:100    NaN
hydroph_interaction:LEU:100     -1
Name: 32, dtype: object

>  <hbond:LEU:100>  (33) 
hbond:LEU:100    NaN
hbond:LEU:100     -1
Name: 32, dtype: object

>  <hbond:ALA:101>  (33) 
hbond:ALA:101    NaN
hbond:ALA:101     -1
Name: 32, dtype: object

>  <hydroph_interaction:ALA:101>  (33) 
hydroph_interaction:ALA:101    NaN
hydroph_interaction:ALA:101     -1
Name: 32, dtype: object

>  <hydroph_interaction:VAL:102>  (33) 
hydroph_interaction:VAL:102    NaN
hydroph_interaction:VAL:102     -1
Name: 32, dtype: object

>  <hbond:VAL:102>  (33) 
hbond:VAL:102    NaN
hbond:VAL:102     -1
Name: 32, dtype: object

>  <hbond:GLY:103>  (33) 
hbond:GLY:103    NaN
hbond:GLY:103     -1
Name: 32, dtype: object

>  <halogenbond:GLY:103>  (33) 
halogenbond:GLY:103    NaN
halogenbond:GLY:103     -1
Name: 32, dtype: object

>  <hbond:HIS:104>  (33) 
hbond:HIS:104    NaN
hbond:HIS:104     -1
Name: 32, dtype: object

>  <saltbridge:HIS:104>  (33) 
saltbridge:HIS:104    NaN
saltbridge:HIS:104     -1
Name: 32, dtype: object

>  <pication:HIS:104>  (33) 
pication:HIS:104    NaN
pication:HIS:104     -1
Name: 32, dtype: object

>  <halogenbond:HIS:104>  (33) 
halogenbond:HIS:104    NaN
halogenbond:HIS:104     -1
Name: 32, dtype: object

>  <hydroph_interaction:HIS:104>  (33) 
hydroph_interaction:HIS:104    NaN
hydroph_interaction:HIS:104     -1
Name: 32, dtype: object

>  <pistack:HIS:104>  (33) 
pistack:HIS:104    NaN
pistack:HIS:104     -1
Name: 32, dtype: object

>  <halogenbond:SER:105>  (33) 
halogenbond:SER:105    0.0
halogenbond:SER:105      0
Name: 32, dtype: object

>  <hbond:SER:105>  (33) 
hbond:SER:105    0.0
hbond:SER:105      0
Name: 32, dtype: object

>  <hbond:GLU:106>  (33) 
hbond:GLU:106    0.0
hbond:GLU:106      0
Name: 32, dtype: object

>  <hydroph_interaction:GLU:106>  (33) 
hydroph_interaction:GLU:106    NaN
hydroph_interaction:GLU:106     -1
Name: 32, dtype: object

>  <saltbridge:GLU:106>  (33) 
saltbridge:GLU:106    NaN
saltbridge:GLU:106     -1
Name: 32, dtype: object

>  <halogenbond:GLU:106>  (33) 
halogenbond:GLU:106    NaN
halogenbond:GLU:106     -1
Name: 32, dtype: object

>  <hydroph_interaction:PRO:107>  (33) 
hydroph_interaction:PRO:107    1
hydroph_interaction:PRO:107    1
Name: 32, dtype: object

>  <hbond:PRO:107>  (33) 
hbond:PRO:107    0.0
hbond:PRO:107      0
Name: 32, dtype: object

>  <halogenbond:PRO:107>  (33) 
halogenbond:PRO:107    0.0
halogenbond:PRO:107      0
Name: 32, dtype: object

>  <hbond:GLY:108>  (33) 
hbond:GLY:108    NaN
hbond:GLY:108     -1
Name: 32, dtype: object

>  <halogenbond:GLY:108>  (33) 
halogenbond:GLY:108    NaN
halogenbond:GLY:108     -1
Name: 32, dtype: object

>  <hbond:ASP:109>  (33) 
hbond:ASP:109    NaN
hbond:ASP:109     -1
Name: 32, dtype: object

>  <hydroph_interaction:ASP:109>  (33) 
hydroph_interaction:ASP:109    NaN
hydroph_interaction:ASP:109     -1
Name: 32, dtype: object

>  <saltbridge:ASP:109>  (33) 
saltbridge:ASP:109    NaN
saltbridge:ASP:109     -1
Name: 32, dtype: object

>  <halogenbond:CYS:110>  (33) 
halogenbond:CYS:110    0.0
halogenbond:CYS:110      0
Name: 32, dtype: object

>  <hbond:CYS:110>  (33) 
hbond:CYS:110    NaN
hbond:CYS:110     -1
Name: 32, dtype: object

>  <hbond:GLY:111>  (33) 
hbond:GLY:111    NaN
hbond:GLY:111     -1
Name: 32, dtype: object

>  <hbond:GLY:112>  (33) 
hbond:GLY:112    NaN
hbond:GLY:112     -1
Name: 32, dtype: object

>  <hbond:ILE:113>  (33) 
hbond:ILE:113    NaN
hbond:ILE:113     -1
Name: 32, dtype: object

>  <hydroph_interaction:LEU:114>  (33) 
hydroph_interaction:LEU:114    NaN
hydroph_interaction:LEU:114     -1
Name: 32, dtype: object

>  <hbond:LEU:114>  (33) 
hbond:LEU:114    NaN
hbond:LEU:114     -1
Name: 32, dtype: object

>  <hydroph_interaction:ILE:123>  (33) 
hydroph_interaction:ILE:123    NaN
hydroph_interaction:ILE:123     -1
Name: 32, dtype: object

>  <hbond:ILE:123>  (33) 
hbond:ILE:123    NaN
hbond:ILE:123     -1
Name: 32, dtype: object

>  <hydroph_interaction:VAL:124>  (33) 
hydroph_interaction:VAL:124    1.0
hydroph_interaction:VAL:124      1
Name: 32, dtype: object

>  <hbond:VAL:124>  (33) 
hbond:VAL:124    NaN
hbond:VAL:124     -1
Name: 32, dtype: object

>  <halogenbond:VAL:124>  (33) 
halogenbond:VAL:124    NaN
halogenbond:VAL:124     -1
Name: 32, dtype: object

>  <hbond:SER:125>  (33) 
hbond:SER:125    0
hbond:SER:125    0
Name: 32, dtype: object

>  <halogenbond:SER:125>  (33) 
halogenbond:SER:125    NaN
halogenbond:SER:125     -1
Name: 32, dtype: object

>  <hydroph_interaction:THR:126>  (33) 
hydroph_interaction:THR:126    0.0
hydroph_interaction:THR:126      0
Name: 32, dtype: object

>  <hbond:THR:126>  (33) 
hbond:THR:126    NaN
hbond:THR:126     -1
Name: 32, dtype: object

>  <halogenbond:THR:126>  (33) 
halogenbond:THR:126    NaN
halogenbond:THR:126     -1
Name: 32, dtype: object

>  <hbond:GLY:127>  (33) 
hbond:GLY:127    0
hbond:GLY:127    0
Name: 32, dtype: object

>  <halogenbond:GLY:127>  (33) 
halogenbond:GLY:127    NaN
halogenbond:GLY:127     -1
Name: 32, dtype: object

>  <hydroph_interaction:GLY:127>  (33) 
hydroph_interaction:GLY:127    NaN
hydroph_interaction:GLY:127     -1
Name: 32, dtype: object

>  <hbond:GLY:128>  (33) 
hbond:GLY:128    NaN
hbond:GLY:128     -1
Name: 32, dtype: object

>  <halogenbond:GLY:128>  (33) 
halogenbond:GLY:128    NaN
halogenbond:GLY:128     -1
Name: 32, dtype: object

>  <hydroph_interaction:GLY:128>  (33) 
hydroph_interaction:GLY:128    NaN
hydroph_interaction:GLY:128     -1
Name: 32, dtype: object

>  <hbond:ASN:129>  (33) 
hbond:ASN:129    NaN
hbond:ASN:129     -1
Name: 32, dtype: object

>  <hydroph_interaction:ASN:129>  (33) 
hydroph_interaction:ASN:129    NaN
hydroph_interaction:ASN:129     -1
Name: 32, dtype: object

>  <halogenbond:ASN:129>  (33) 
halogenbond:ASN:129    NaN
halogenbond:ASN:129     -1
Name: 32, dtype: object

>  <hbond:GLY:130>  (33) 
hbond:GLY:130    NaN
hbond:GLY:130     -1
Name: 32, dtype: object

>  <hbond:LEU:131>  (33) 
hbond:LEU:131    NaN
hbond:LEU:131     -1
Name: 32, dtype: object

>  <hydroph_interaction:LEU:131>  (33) 
hydroph_interaction:LEU:131    NaN
hydroph_interaction:LEU:131     -1
Name: 32, dtype: object

>  <halogenbond:LEU:131>  (33) 
halogenbond:LEU:131    NaN
halogenbond:LEU:131     -1
Name: 32, dtype: object

>  <hydroph_interaction:VAL:132>  (33) 
hydroph_interaction:VAL:132    NaN
hydroph_interaction:VAL:132     -1
Name: 32, dtype: object

>  <hbond:VAL:132>  (33) 
hbond:VAL:132    NaN
hbond:VAL:132     -1
Name: 32, dtype: object

>  <hbond:GLY:133>  (33) 
hbond:GLY:133    NaN
hbond:GLY:133     -1
Name: 32, dtype: object

>  <halogenbond:GLY:133>  (33) 
halogenbond:GLY:133    NaN
halogenbond:GLY:133     -1
Name: 32, dtype: object

>  <hydroph_interaction:PHE:134>  (33) 
hydroph_interaction:PHE:134    NaN
hydroph_interaction:PHE:134     -1
Name: 32, dtype: object

>  <hbond:PHE:134>  (33) 
hbond:PHE:134    NaN
hbond:PHE:134     -1
Name: 32, dtype: object

>  <pistack:PHE:134>  (33) 
pistack:PHE:134    NaN
pistack:PHE:134     -1
Name: 32, dtype: object

>  <pication:PHE:134>  (33) 
pication:PHE:134    NaN
pication:PHE:134     -1
Name: 32, dtype: object

>  <halogenbond:PHE:134>  (33) 
halogenbond:PHE:134    NaN
halogenbond:PHE:134     -1
Name: 32, dtype: object

>  <hydroph_interaction:ALA:135>  (33) 
hydroph_interaction:ALA:135    NaN
hydroph_interaction:ALA:135     -1
Name: 32, dtype: object

>  <hbond:ALA:135>  (33) 
hbond:ALA:135    NaN
hbond:ALA:135     -1
Name: 32, dtype: object

$$$$
Z1695944662
     RDKit          3D

 26 27  0  0  0  0  0  0  0  0999 V2000
   13.0510   15.1310   21.2920 C   0  0  0  0  0  0  0  0  0  0  0  0
   11.7020   15.1900   21.8050 N   0  0  0  0  0  0  0  0  0  0  0  0
   11.2340   14.3950   22.8370 C   0  0  0  0  0  0  0  0  0  0  0  0
   11.7570   14.5470   24.4030 S   0  0  0  0  0  0  0  0  0  0  0  0
   10.2980   13.5070   22.3650 N   0  0  0  0  0  0  0  0  0  0  0  0
    9.7280   12.4230   23.0320 C   0  0  0  0  0  0  0  0  0  0  0  0
   10.1660   11.1470   22.7210 C   0  0  0  0  0  0  0  0  0  0  0  0
    9.5750   10.1350   23.3910 C   0  0  0  0  0  0  0  0  0  0  0  0
   10.1960    8.6420   22.9220 Cl  0  0  0  0  0  0  0  0  0  0  0  0
    8.4930   10.3320   24.4270 C   0  0  0  0  0  0  0  0  0  0  0  0
    8.1110   11.6120   24.6850 C   0  0  0  0  0  0  0  0  0  0  0  0
    8.7260   12.6290   23.9940 C   0  0  0  0  0  0  0  0  0  0  0  0
    8.2340   13.8530   24.3630 O   0  0  0  0  0  0  0  0  0  0  0  0
    7.0390   13.5210   25.1200 C   0  0  0  0  0  0  0  0  0  0  0  0
    7.1040   12.1690   25.6110 C   0  0  0  0  0  0  0  0  0  0  0  0
   13.6970   14.6980   22.0600 H   0  0  0  0  0  0  0  0  0  0  0  0
   13.1110   14.4920   20.4030 H   0  0  0  0  0  0  0  0  0  0  0  0
   13.4040   16.1310   21.0450 H   0  0  0  0  0  0  0  0  0  0  0  0
   11.2670   16.1170   21.7540 H   0  0  0  0  0  0  0  0  0  0  0  0
   10.5550   13.1880   21.4230 H   0  0  0  0  0  0  0  0  0  0  0  0
   10.9240   10.9350   21.9960 H   0  0  0  0  0  0  0  0  0  0  0  0
    8.0950    9.4320   24.8930 H   0  0  0  0  0  0  0  0  0  0  0  0
    6.9200   14.2380   25.9390 H   0  0  0  0  0  0  0  0  0  0  0  0
    6.1860   13.6450   24.4470 H   0  0  0  0  0  0  0  0  0  0  0  0
    6.1330   11.6730   25.5550 H   0  0  0  0  0  0  0  0  0  0  0  0
    7.4750   12.1520   26.6380 H   0  0  0  0  0  0  0  0  0  0  0  0
  1  2  1  0
  2  3  1  0
  3  4  2  0
  3  5  1  0
  5  6  1  0
  6  7  2  0
  7  8  1  0
  8  9  1  0
  8 10  2  0
 10 11  1  0
 11 12  2  0
 12 13  1  0
 13 14  1  0
 14 15  1  0
 12  6  1  0
 15 11  1  0
  1 16  1  0
  1 17  1  0
  1 18  1  0
  2 19  1  0
  5 20  1  0
  7 21  1  0
 10 22  1  0
 14 23  1  0
 14 24  1  0
 15 25  1  0
 15 26  1  0
A    1
 C1 
A    2
 N1 
A    3
 C2 
A    4
 S1 
A    5
 N2 
A    6
 C3 
A    7
 C4 
A    8
 C5 
A    9
CL1 
A   10
 C6 
A   11
 C7 
A   12
 C8 
A   13
 O1 
A   14
 C9 
A   15
 C10
A   16
 H1 
A   17
 H2 
A   18
 H3 
A   19
 H4 
A   20
 H5 
A   21
 H6 
A   22
 H7 
A   23
 H8 
A   24
 H9 
A   25
 H10
A   26
 H11
M  END
>  <ref_pdb>  (34) 
x0310_0A

>  <ref_mols>  (34) 
x0554_0A,x0739_0A

>  <original SMILES>  (34) 
CNC(=S)Nc1cc(Cl)cc2c1OCC2

>  <rationale>  (34) 
info halogenbond:C110+G127+A86+S125+E85+Q95+E106+E88+T126+P107+H104+Y64+C65+S87+N129+F83+R93+L131+I82+G128+P91+N19+H21+V84+G133+Y90+Y89+H97+L81+F134+L98+R20+G103+S66+S67+S7+G108+R38+V124+M99+S36; hbond:S87+S125+Q95+D39+A86+C110+D109+E85+G108+G103+G128+G130+L131+N129+N19+H104+R68+V124+P91+F83+S67+S7+S66+G112+G133+V132+R20+Y89+S77+A135+Y63+A92+A101+M99+F134+L100+I82+Y64+S36+L98+V84+L81+Y94+S80+R38+S37+V102+G8+I123+G111+I113+L114+C65+L22+S96; hydroph_interaction:V84+E85+E88+D109+N129+L40+I123+A135+Q95+I82+L100+L98+L131+F83+R93+V132+Y63+F134+H104+R20+A86+V74+P91+A101+F76+M99+L114+A92+Y94+R68+Y72+Y64+V18+V102+W28+G127+G128+L81; pication:H104+R93+Y63+F134+Y90+R68+F83+R20; pistack:H21+Y89+Y90+H104+F134+Y63+F83+Y94; saltbridge:D39+R93+H104+E106+D109+E85+E88+R68+R20; 

>  <intxn_cluster>  (34) 
-1

>  <intxn_cluster_rank>  (34) 
-1

>  <N_interactions>  (34) 
3

>  <∆∆G>  (34) 
-8.792417

>  <$/mg>  (34) 
0.0

>  <comRMSD>  (34) 
0.946773

>  <N_rotatable_bonds>  (34) 
2

>  <deep_P1_sidechain>  (34) 
nan

>  <farthest_distance_to_substrate>  (34) 
2.367176

>  <hbond:SER:7>  (34) 
hbond:SER:7    NaN
hbond:SER:7     -1
Name: 33, dtype: object

>  <halogenbond:SER:7>  (34) 
halogenbond:SER:7    NaN
halogenbond:SER:7     -1
Name: 33, dtype: object

>  <hbond:GLY:8>  (34) 
hbond:GLY:8    NaN
hbond:GLY:8     -1
Name: 33, dtype: object

>  <hydroph_interaction:VAL:18>  (34) 
hydroph_interaction:VAL:18    NaN
hydroph_interaction:VAL:18     -1
Name: 33, dtype: object

>  <hbond:ASN:19>  (34) 
hbond:ASN:19    NaN
hbond:ASN:19     -1
Name: 33, dtype: object

>  <hydroph_interaction:ASN:19>  (34) 
hydroph_interaction:ASN:19    0.0
hydroph_interaction:ASN:19      0
Name: 33, dtype: object

>  <halogenbond:ASN:19>  (34) 
halogenbond:ASN:19    NaN
halogenbond:ASN:19     -1
Name: 33, dtype: object

>  <hbond:ARG:20>  (34) 
hbond:ARG:20    NaN
hbond:ARG:20     -1
Name: 33, dtype: object

>  <hydroph_interaction:ARG:20>  (34) 
hydroph_interaction:ARG:20    NaN
hydroph_interaction:ARG:20     -1
Name: 33, dtype: object

>  <saltbridge:ARG:20>  (34) 
saltbridge:ARG:20    NaN
saltbridge:ARG:20     -1
Name: 33, dtype: object

>  <halogenbond:ARG:20>  (34) 
halogenbond:ARG:20    NaN
halogenbond:ARG:20     -1
Name: 33, dtype: object

>  <pication:ARG:20>  (34) 
pication:ARG:20    NaN
pication:ARG:20     -1
Name: 33, dtype: object

>  <hbond:HIS:21>  (34) 
hbond:HIS:21    0.0
hbond:HIS:21      0
Name: 33, dtype: object

>  <hydroph_interaction:HIS:21>  (34) 
hydroph_interaction:HIS:21    0.0
hydroph_interaction:HIS:21      0
Name: 33, dtype: object

>  <pistack:HIS:21>  (34) 
pistack:HIS:21    NaN
pistack:HIS:21     -1
Name: 33, dtype: object

>  <pication:HIS:21>  (34) 
pication:HIS:21    0.0
pication:HIS:21      0
Name: 33, dtype: object

>  <saltbridge:HIS:21>  (34) 
saltbridge:HIS:21    0.0
saltbridge:HIS:21      0
Name: 33, dtype: object

>  <halogenbond:HIS:21>  (34) 
halogenbond:HIS:21    NaN
halogenbond:HIS:21     -1
Name: 33, dtype: object

>  <hydroph_interaction:LEU:22>  (34) 
hydroph_interaction:LEU:22    0.0
hydroph_interaction:LEU:22      0
Name: 33, dtype: object

>  <hbond:LEU:22>  (34) 
hbond:LEU:22    NaN
hbond:LEU:22     -1
Name: 33, dtype: object

>  <hydroph_interaction:TRP:28>  (34) 
hydroph_interaction:TRP:28    NaN
hydroph_interaction:TRP:28     -1
Name: 33, dtype: object

>  <hbond:SER:36>  (34) 
hbond:SER:36    NaN
hbond:SER:36     -1
Name: 33, dtype: object

>  <halogenbond:SER:36>  (34) 
halogenbond:SER:36    NaN
halogenbond:SER:36     -1
Name: 33, dtype: object

>  <hbond:SER:37>  (34) 
hbond:SER:37    NaN
hbond:SER:37     -1
Name: 33, dtype: object

>  <hbond:ARG:38>  (34) 
hbond:ARG:38    NaN
hbond:ARG:38     -1
Name: 33, dtype: object

>  <halogenbond:ARG:38>  (34) 
halogenbond:ARG:38    NaN
halogenbond:ARG:38     -1
Name: 33, dtype: object

>  <saltbridge:ASP:39>  (34) 
saltbridge:ASP:39    NaN
saltbridge:ASP:39     -1
Name: 33, dtype: object

>  <halogenbond:ASP:39>  (34) 
halogenbond:ASP:39    0.0
halogenbond:ASP:39      0
Name: 33, dtype: object

>  <hbond:ASP:39>  (34) 
hbond:ASP:39    NaN
hbond:ASP:39     -1
Name: 33, dtype: object

>  <hydroph_interaction:ASP:39>  (34) 
hydroph_interaction:ASP:39    0.0
hydroph_interaction:ASP:39      0
Name: 33, dtype: object

>  <hydroph_interaction:LEU:40>  (34) 
hydroph_interaction:LEU:40    NaN
hydroph_interaction:LEU:40     -1
Name: 33, dtype: object

>  <hydroph_interaction:TYR:63>  (34) 
hydroph_interaction:TYR:63    NaN
hydroph_interaction:TYR:63     -1
Name: 33, dtype: object

>  <hbond:TYR:63>  (34) 
hbond:TYR:63    NaN
hbond:TYR:63     -1
Name: 33, dtype: object

>  <pistack:TYR:63>  (34) 
pistack:TYR:63    NaN
pistack:TYR:63     -1
Name: 33, dtype: object

>  <pication:TYR:63>  (34) 
pication:TYR:63    NaN
pication:TYR:63     -1
Name: 33, dtype: object

>  <halogenbond:TYR:64>  (34) 
halogenbond:TYR:64    NaN
halogenbond:TYR:64     -1
Name: 33, dtype: object

>  <hbond:TYR:64>  (34) 
hbond:TYR:64    NaN
hbond:TYR:64     -1
Name: 33, dtype: object

>  <hydroph_interaction:TYR:64>  (34) 
hydroph_interaction:TYR:64    NaN
hydroph_interaction:TYR:64     -1
Name: 33, dtype: object

>  <halogenbond:CYS:65>  (34) 
halogenbond:CYS:65    NaN
halogenbond:CYS:65     -1
Name: 33, dtype: object

>  <hbond:CYS:65>  (34) 
hbond:CYS:65    NaN
hbond:CYS:65     -1
Name: 33, dtype: object

>  <hbond:SER:66>  (34) 
hbond:SER:66    NaN
hbond:SER:66     -1
Name: 33, dtype: object

>  <halogenbond:SER:66>  (34) 
halogenbond:SER:66    NaN
halogenbond:SER:66     -1
Name: 33, dtype: object

>  <hbond:SER:67>  (34) 
hbond:SER:67    NaN
hbond:SER:67     -1
Name: 33, dtype: object

>  <halogenbond:SER:67>  (34) 
halogenbond:SER:67    NaN
halogenbond:SER:67     -1
Name: 33, dtype: object

>  <hbond:ARG:68>  (34) 
hbond:ARG:68    NaN
hbond:ARG:68     -1
Name: 33, dtype: object

>  <saltbridge:ARG:68>  (34) 
saltbridge:ARG:68    NaN
saltbridge:ARG:68     -1
Name: 33, dtype: object

>  <hydroph_interaction:ARG:68>  (34) 
hydroph_interaction:ARG:68    NaN
hydroph_interaction:ARG:68     -1
Name: 33, dtype: object

>  <pication:ARG:68>  (34) 
pication:ARG:68    NaN
pication:ARG:68     -1
Name: 33, dtype: object

>  <hydroph_interaction:TYR:72>  (34) 
hydroph_interaction:TYR:72    NaN
hydroph_interaction:TYR:72     -1
Name: 33, dtype: object

>  <hydroph_interaction:VAL:74>  (34) 
hydroph_interaction:VAL:74    NaN
hydroph_interaction:VAL:74     -1
Name: 33, dtype: object

>  <hydroph_interaction:PHE:76>  (34) 
hydroph_interaction:PHE:76    NaN
hydroph_interaction:PHE:76     -1
Name: 33, dtype: object

>  <hbond:SER:77>  (34) 
hbond:SER:77    NaN
hbond:SER:77     -1
Name: 33, dtype: object

>  <hbond:SER:80>  (34) 
hbond:SER:80    NaN
hbond:SER:80     -1
Name: 33, dtype: object

>  <hbond:LEU:81>  (34) 
hbond:LEU:81    NaN
hbond:LEU:81     -1
Name: 33, dtype: object

>  <halogenbond:LEU:81>  (34) 
halogenbond:LEU:81    NaN
halogenbond:LEU:81     -1
Name: 33, dtype: object

>  <hydroph_interaction:LEU:81>  (34) 
hydroph_interaction:LEU:81    NaN
hydroph_interaction:LEU:81     -1
Name: 33, dtype: object

>  <hydroph_interaction:ILE:82>  (34) 
hydroph_interaction:ILE:82    NaN
hydroph_interaction:ILE:82     -1
Name: 33, dtype: object

>  <halogenbond:ILE:82>  (34) 
halogenbond:ILE:82    NaN
halogenbond:ILE:82     -1
Name: 33, dtype: object

>  <hbond:ILE:82>  (34) 
hbond:ILE:82    NaN
hbond:ILE:82     -1
Name: 33, dtype: object

>  <hbond:PHE:83>  (34) 
hbond:PHE:83    NaN
hbond:PHE:83     -1
Name: 33, dtype: object

>  <hydroph_interaction:PHE:83>  (34) 
hydroph_interaction:PHE:83    NaN
hydroph_interaction:PHE:83     -1
Name: 33, dtype: object

>  <halogenbond:PHE:83>  (34) 
halogenbond:PHE:83    NaN
halogenbond:PHE:83     -1
Name: 33, dtype: object

>  <pistack:PHE:83>  (34) 
pistack:PHE:83    NaN
pistack:PHE:83     -1
Name: 33, dtype: object

>  <pication:PHE:83>  (34) 
pication:PHE:83    NaN
pication:PHE:83     -1
Name: 33, dtype: object

>  <hydroph_interaction:VAL:84>  (34) 
hydroph_interaction:VAL:84    NaN
hydroph_interaction:VAL:84     -1
Name: 33, dtype: object

>  <halogenbond:VAL:84>  (34) 
halogenbond:VAL:84    NaN
halogenbond:VAL:84     -1
Name: 33, dtype: object

>  <hbond:VAL:84>  (34) 
hbond:VAL:84    NaN
hbond:VAL:84     -1
Name: 33, dtype: object

>  <hydroph_interaction:GLU:85>  (34) 
hydroph_interaction:GLU:85    NaN
hydroph_interaction:GLU:85     -1
Name: 33, dtype: object

>  <hbond:GLU:85>  (34) 
hbond:GLU:85    NaN
hbond:GLU:85     -1
Name: 33, dtype: object

>  <halogenbond:GLU:85>  (34) 
halogenbond:GLU:85    NaN
halogenbond:GLU:85     -1
Name: 33, dtype: object

>  <saltbridge:GLU:85>  (34) 
saltbridge:GLU:85    NaN
saltbridge:GLU:85     -1
Name: 33, dtype: object

>  <halogenbond:ALA:86>  (34) 
halogenbond:ALA:86    NaN
halogenbond:ALA:86     -1
Name: 33, dtype: object

>  <hbond:ALA:86>  (34) 
hbond:ALA:86    NaN
hbond:ALA:86     -1
Name: 33, dtype: object

>  <hydroph_interaction:ALA:86>  (34) 
hydroph_interaction:ALA:86    NaN
hydroph_interaction:ALA:86     -1
Name: 33, dtype: object

>  <hbond:SER:87>  (34) 
hbond:SER:87    2
hbond:SER:87    2
Name: 33, dtype: object

>  <halogenbond:SER:87>  (34) 
halogenbond:SER:87    NaN
halogenbond:SER:87     -1
Name: 33, dtype: object

>  <hbond:GLU:88>  (34) 
hbond:GLU:88    0.0
hbond:GLU:88      0
Name: 33, dtype: object

>  <hydroph_interaction:GLU:88>  (34) 
hydroph_interaction:GLU:88    NaN
hydroph_interaction:GLU:88     -1
Name: 33, dtype: object

>  <halogenbond:GLU:88>  (34) 
halogenbond:GLU:88    NaN
halogenbond:GLU:88     -1
Name: 33, dtype: object

>  <saltbridge:GLU:88>  (34) 
saltbridge:GLU:88    NaN
saltbridge:GLU:88     -1
Name: 33, dtype: object

>  <hydroph_interaction:TYR:89>  (34) 
hydroph_interaction:TYR:89    0.0
hydroph_interaction:TYR:89      0
Name: 33, dtype: object

>  <pistack:TYR:89>  (34) 
pistack:TYR:89    NaN
pistack:TYR:89     -1
Name: 33, dtype: object

>  <hbond:TYR:89>  (34) 
hbond:TYR:89    NaN
hbond:TYR:89     -1
Name: 33, dtype: object

>  <halogenbond:TYR:89>  (34) 
halogenbond:TYR:89    NaN
halogenbond:TYR:89     -1
Name: 33, dtype: object

>  <hydroph_interaction:TYR:90>  (34) 
hydroph_interaction:TYR:90    0.0
hydroph_interaction:TYR:90      0
Name: 33, dtype: object

>  <hbond:TYR:90>  (34) 
hbond:TYR:90    0.0
hbond:TYR:90      0
Name: 33, dtype: object

>  <pistack:TYR:90>  (34) 
pistack:TYR:90    NaN
pistack:TYR:90     -1
Name: 33, dtype: object

>  <halogenbond:TYR:90>  (34) 
halogenbond:TYR:90    NaN
halogenbond:TYR:90     -1
Name: 33, dtype: object

>  <pication:TYR:90>  (34) 
pication:TYR:90    NaN
pication:TYR:90     -1
Name: 33, dtype: object

>  <hbond:PRO:91>  (34) 
hbond:PRO:91    NaN
hbond:PRO:91     -1
Name: 33, dtype: object

>  <hydroph_interaction:PRO:91>  (34) 
hydroph_interaction:PRO:91    NaN
hydroph_interaction:PRO:91     -1
Name: 33, dtype: object

>  <halogenbond:PRO:91>  (34) 
halogenbond:PRO:91    NaN
halogenbond:PRO:91     -1
Name: 33, dtype: object

>  <hbond:ALA:92>  (34) 
hbond:ALA:92    NaN
hbond:ALA:92     -1
Name: 33, dtype: object

>  <hydroph_interaction:ALA:92>  (34) 
hydroph_interaction:ALA:92    NaN
hydroph_interaction:ALA:92     -1
Name: 33, dtype: object

>  <saltbridge:ARG:93>  (34) 
saltbridge:ARG:93    NaN
saltbridge:ARG:93     -1
Name: 33, dtype: object

>  <hbond:ARG:93>  (34) 
hbond:ARG:93    0.0
hbond:ARG:93      0
Name: 33, dtype: object

>  <hydroph_interaction:ARG:93>  (34) 
hydroph_interaction:ARG:93    NaN
hydroph_interaction:ARG:93     -1
Name: 33, dtype: object

>  <halogenbond:ARG:93>  (34) 
halogenbond:ARG:93    NaN
halogenbond:ARG:93     -1
Name: 33, dtype: object

>  <pication:ARG:93>  (34) 
pication:ARG:93    NaN
pication:ARG:93     -1
Name: 33, dtype: object

>  <hydroph_interaction:TYR:94>  (34) 
hydroph_interaction:TYR:94    NaN
hydroph_interaction:TYR:94     -1
Name: 33, dtype: object

>  <pistack:TYR:94>  (34) 
pistack:TYR:94    NaN
pistack:TYR:94     -1
Name: 33, dtype: object

>  <hbond:TYR:94>  (34) 
hbond:TYR:94    NaN
hbond:TYR:94     -1
Name: 33, dtype: object

>  <hbond:GLN:95>  (34) 
hbond:GLN:95    NaN
hbond:GLN:95     -1
Name: 33, dtype: object

>  <hydroph_interaction:GLN:95>  (34) 
hydroph_interaction:GLN:95    NaN
hydroph_interaction:GLN:95     -1
Name: 33, dtype: object

>  <halogenbond:GLN:95>  (34) 
halogenbond:GLN:95    NaN
halogenbond:GLN:95     -1
Name: 33, dtype: object

>  <hbond:SER:96>  (34) 
hbond:SER:96    NaN
hbond:SER:96     -1
Name: 33, dtype: object

>  <halogenbond:HIS:97>  (34) 
halogenbond:HIS:97    NaN
halogenbond:HIS:97     -1
Name: 33, dtype: object

>  <hydroph_interaction:LEU:98>  (34) 
hydroph_interaction:LEU:98    NaN
hydroph_interaction:LEU:98     -1
Name: 33, dtype: object

>  <hbond:LEU:98>  (34) 
hbond:LEU:98    NaN
hbond:LEU:98     -1
Name: 33, dtype: object

>  <halogenbond:LEU:98>  (34) 
halogenbond:LEU:98    NaN
halogenbond:LEU:98     -1
Name: 33, dtype: object

>  <hbond:MET:99>  (34) 
hbond:MET:99    NaN
hbond:MET:99     -1
Name: 33, dtype: object

>  <hydroph_interaction:MET:99>  (34) 
hydroph_interaction:MET:99    NaN
hydroph_interaction:MET:99     -1
Name: 33, dtype: object

>  <halogenbond:MET:99>  (34) 
halogenbond:MET:99    NaN
halogenbond:MET:99     -1
Name: 33, dtype: object

>  <hydroph_interaction:LEU:100>  (34) 
hydroph_interaction:LEU:100    NaN
hydroph_interaction:LEU:100     -1
Name: 33, dtype: object

>  <hbond:LEU:100>  (34) 
hbond:LEU:100    NaN
hbond:LEU:100     -1
Name: 33, dtype: object

>  <hbond:ALA:101>  (34) 
hbond:ALA:101    NaN
hbond:ALA:101     -1
Name: 33, dtype: object

>  <hydroph_interaction:ALA:101>  (34) 
hydroph_interaction:ALA:101    NaN
hydroph_interaction:ALA:101     -1
Name: 33, dtype: object

>  <hydroph_interaction:VAL:102>  (34) 
hydroph_interaction:VAL:102    NaN
hydroph_interaction:VAL:102     -1
Name: 33, dtype: object

>  <hbond:VAL:102>  (34) 
hbond:VAL:102    NaN
hbond:VAL:102     -1
Name: 33, dtype: object

>  <hbond:GLY:103>  (34) 
hbond:GLY:103    NaN
hbond:GLY:103     -1
Name: 33, dtype: object

>  <halogenbond:GLY:103>  (34) 
halogenbond:GLY:103    NaN
halogenbond:GLY:103     -1
Name: 33, dtype: object

>  <hbond:HIS:104>  (34) 
hbond:HIS:104    NaN
hbond:HIS:104     -1
Name: 33, dtype: object

>  <saltbridge:HIS:104>  (34) 
saltbridge:HIS:104    NaN
saltbridge:HIS:104     -1
Name: 33, dtype: object

>  <pication:HIS:104>  (34) 
pication:HIS:104    NaN
pication:HIS:104     -1
Name: 33, dtype: object

>  <halogenbond:HIS:104>  (34) 
halogenbond:HIS:104    NaN
halogenbond:HIS:104     -1
Name: 33, dtype: object

>  <hydroph_interaction:HIS:104>  (34) 
hydroph_interaction:HIS:104    NaN
hydroph_interaction:HIS:104     -1
Name: 33, dtype: object

>  <pistack:HIS:104>  (34) 
pistack:HIS:104    NaN
pistack:HIS:104     -1
Name: 33, dtype: object

>  <halogenbond:SER:105>  (34) 
halogenbond:SER:105    0.0
halogenbond:SER:105      0
Name: 33, dtype: object

>  <hbond:SER:105>  (34) 
hbond:SER:105    0.0
hbond:SER:105      0
Name: 33, dtype: object

>  <hbond:GLU:106>  (34) 
hbond:GLU:106    0.0
hbond:GLU:106      0
Name: 33, dtype: object

>  <hydroph_interaction:GLU:106>  (34) 
hydroph_interaction:GLU:106    0.0
hydroph_interaction:GLU:106      0
Name: 33, dtype: object

>  <saltbridge:GLU:106>  (34) 
saltbridge:GLU:106    NaN
saltbridge:GLU:106     -1
Name: 33, dtype: object

>  <halogenbond:GLU:106>  (34) 
halogenbond:GLU:106    NaN
halogenbond:GLU:106     -1
Name: 33, dtype: object

>  <hydroph_interaction:PRO:107>  (34) 
hydroph_interaction:PRO:107    0
hydroph_interaction:PRO:107    0
Name: 33, dtype: object

>  <hbond:PRO:107>  (34) 
hbond:PRO:107    0.0
hbond:PRO:107      0
Name: 33, dtype: object

>  <halogenbond:PRO:107>  (34) 
halogenbond:PRO:107    NaN
halogenbond:PRO:107     -1
Name: 33, dtype: object

>  <hbond:GLY:108>  (34) 
hbond:GLY:108    NaN
hbond:GLY:108     -1
Name: 33, dtype: object

>  <halogenbond:GLY:108>  (34) 
halogenbond:GLY:108    NaN
halogenbond:GLY:108     -1
Name: 33, dtype: object

>  <hbond:ASP:109>  (34) 
hbond:ASP:109    NaN
hbond:ASP:109     -1
Name: 33, dtype: object

>  <hydroph_interaction:ASP:109>  (34) 
hydroph_interaction:ASP:109    NaN
hydroph_interaction:ASP:109     -1
Name: 33, dtype: object

>  <saltbridge:ASP:109>  (34) 
saltbridge:ASP:109    NaN
saltbridge:ASP:109     -1
Name: 33, dtype: object

>  <halogenbond:CYS:110>  (34) 
halogenbond:CYS:110    NaN
halogenbond:CYS:110     -1
Name: 33, dtype: object

>  <hbond:CYS:110>  (34) 
hbond:CYS:110    NaN
hbond:CYS:110     -1
Name: 33, dtype: object

>  <hbond:GLY:111>  (34) 
hbond:GLY:111    NaN
hbond:GLY:111     -1
Name: 33, dtype: object

>  <hbond:GLY:112>  (34) 
hbond:GLY:112    NaN
hbond:GLY:112     -1
Name: 33, dtype: object

>  <hbond:ILE:113>  (34) 
hbond:ILE:113    NaN
hbond:ILE:113     -1
Name: 33, dtype: object

>  <hydroph_interaction:LEU:114>  (34) 
hydroph_interaction:LEU:114    NaN
hydroph_interaction:LEU:114     -1
Name: 33, dtype: object

>  <hbond:LEU:114>  (34) 
hbond:LEU:114    NaN
hbond:LEU:114     -1
Name: 33, dtype: object

>  <hydroph_interaction:ILE:123>  (34) 
hydroph_interaction:ILE:123    NaN
hydroph_interaction:ILE:123     -1
Name: 33, dtype: object

>  <hbond:ILE:123>  (34) 
hbond:ILE:123    NaN
hbond:ILE:123     -1
Name: 33, dtype: object

>  <hydroph_interaction:VAL:124>  (34) 
hydroph_interaction:VAL:124    0.0
hydroph_interaction:VAL:124      0
Name: 33, dtype: object

>  <hbond:VAL:124>  (34) 
hbond:VAL:124    NaN
hbond:VAL:124     -1
Name: 33, dtype: object

>  <halogenbond:VAL:124>  (34) 
halogenbond:VAL:124    NaN
halogenbond:VAL:124     -1
Name: 33, dtype: object

>  <hbond:SER:125>  (34) 
hbond:SER:125    1
hbond:SER:125    1
Name: 33, dtype: object

>  <halogenbond:SER:125>  (34) 
halogenbond:SER:125    NaN
halogenbond:SER:125     -1
Name: 33, dtype: object

>  <hydroph_interaction:THR:126>  (34) 
hydroph_interaction:THR:126    0.0
hydroph_interaction:THR:126      0
Name: 33, dtype: object

>  <hbond:THR:126>  (34) 
hbond:THR:126    0.0
hbond:THR:126      0
Name: 33, dtype: object

>  <halogenbond:THR:126>  (34) 
halogenbond:THR:126    NaN
halogenbond:THR:126     -1
Name: 33, dtype: object

>  <hbond:GLY:127>  (34) 
hbond:GLY:127    0
hbond:GLY:127    0
Name: 33, dtype: object

>  <halogenbond:GLY:127>  (34) 
halogenbond:GLY:127    NaN
halogenbond:GLY:127     -1
Name: 33, dtype: object

>  <hydroph_interaction:GLY:127>  (34) 
hydroph_interaction:GLY:127    NaN
hydroph_interaction:GLY:127     -1
Name: 33, dtype: object

>  <hbond:GLY:128>  (34) 
hbond:GLY:128    NaN
hbond:GLY:128     -1
Name: 33, dtype: object

>  <halogenbond:GLY:128>  (34) 
halogenbond:GLY:128    NaN
halogenbond:GLY:128     -1
Name: 33, dtype: object

>  <hydroph_interaction:GLY:128>  (34) 
hydroph_interaction:GLY:128    NaN
hydroph_interaction:GLY:128     -1
Name: 33, dtype: object

>  <hbond:ASN:129>  (34) 
hbond:ASN:129    NaN
hbond:ASN:129     -1
Name: 33, dtype: object

>  <hydroph_interaction:ASN:129>  (34) 
hydroph_interaction:ASN:129    NaN
hydroph_interaction:ASN:129     -1
Name: 33, dtype: object

>  <halogenbond:ASN:129>  (34) 
halogenbond:ASN:129    NaN
halogenbond:ASN:129     -1
Name: 33, dtype: object

>  <hbond:GLY:130>  (34) 
hbond:GLY:130    NaN
hbond:GLY:130     -1
Name: 33, dtype: object

>  <hbond:LEU:131>  (34) 
hbond:LEU:131    NaN
hbond:LEU:131     -1
Name: 33, dtype: object

>  <hydroph_interaction:LEU:131>  (34) 
hydroph_interaction:LEU:131    NaN
hydroph_interaction:LEU:131     -1
Name: 33, dtype: object

>  <halogenbond:LEU:131>  (34) 
halogenbond:LEU:131    NaN
halogenbond:LEU:131     -1
Name: 33, dtype: object

>  <hydroph_interaction:VAL:132>  (34) 
hydroph_interaction:VAL:132    NaN
hydroph_interaction:VAL:132     -1
Name: 33, dtype: object

>  <hbond:VAL:132>  (34) 
hbond:VAL:132    NaN
hbond:VAL:132     -1
Name: 33, dtype: object

>  <hbond:GLY:133>  (34) 
hbond:GLY:133    NaN
hbond:GLY:133     -1
Name: 33, dtype: object

>  <halogenbond:GLY:133>  (34) 
halogenbond:GLY:133    NaN
halogenbond:GLY:133     -1
Name: 33, dtype: object

>  <hydroph_interaction:PHE:134>  (34) 
hydroph_interaction:PHE:134    NaN
hydroph_interaction:PHE:134     -1
Name: 33, dtype: object

>  <hbond:PHE:134>  (34) 
hbond:PHE:134    NaN
hbond:PHE:134     -1
Name: 33, dtype: object

>  <pistack:PHE:134>  (34) 
pistack:PHE:134    NaN
pistack:PHE:134     -1
Name: 33, dtype: object

>  <pication:PHE:134>  (34) 
pication:PHE:134    NaN
pication:PHE:134     -1
Name: 33, dtype: object

>  <halogenbond:PHE:134>  (34) 
halogenbond:PHE:134    NaN
halogenbond:PHE:134     -1
Name: 33, dtype: object

>  <hydroph_interaction:ALA:135>  (34) 
hydroph_interaction:ALA:135    NaN
hydroph_interaction:ALA:135     -1
Name: 33, dtype: object

>  <hbond:ALA:135>  (34) 
hbond:ALA:135    NaN
hbond:ALA:135     -1
Name: 33, dtype: object

$$$$
PV_006279232726
     RDKit          3D

 30 30  0  0  0  0  0  0  0  0999 V2000
   11.9580   15.8420   21.7240 C   0  0  0  0  0  0  0  0  0  0  0  0
   11.1390   14.6260   22.0510 C   0  0  0  0  0  0  0  0  0  0  0  0
   10.7950   14.0730   23.3660 C   0  0  0  0  0  0  0  0  0  0  0  0
   11.2690   14.7280   24.5160 C   0  0  0  0  0  0  0  0  0  0  0  0
   10.0280   12.8380   23.5730 C   0  0  0  0  0  0  0  0  0  0  0  0
    8.9310   12.7530   24.4170 C   0  0  0  0  0  0  0  0  0  0  0  0
    8.2890   11.4330   24.6220 C   0  0  0  0  0  0  0  0  0  0  0  0
    7.1080   11.2330   25.5240 C   0  0  0  0  0  0  0  0  0  0  0  0
    8.8470   10.3630   23.9440 C   0  0  0  0  0  0  0  0  0  0  0  0
    8.3780    9.1130   24.1180 N   0  0  0  0  0  0  0  0  0  0  0  0
    9.8930   10.4730   23.0830 C   0  0  0  0  0  0  0  0  0  0  0  0
   10.3790    9.2490   22.3850 C   0  0  0  0  0  0  0  0  0  0  0  0
   10.4710   11.7110   22.9040 C   0  0  0  0  0  0  0  0  0  0  0  0
   12.8300   15.5480   21.1310 H   0  0  0  0  0  0  0  0  0  0  0  0
   11.3700   16.5610   21.1530 H   0  0  0  0  0  0  0  0  0  0  0  0
   12.3010   16.3160   22.6470 H   0  0  0  0  0  0  0  0  0  0  0  0
   10.7510   14.0580   21.1990 H   0  0  0  0  0  0  0  0  0  0  0  0
   10.5650   14.9420   25.3180 H   0  0  0  0  0  0  0  0  0  0  0  0
   11.7200   15.6950   24.2680 H   0  0  0  0  0  0  0  0  0  0  0  0
   12.0730   14.1340   24.9410 H   0  0  0  0  0  0  0  0  0  0  0  0
    8.5510   13.6270   24.9390 H   0  0  0  0  0  0  0  0  0  0  0  0
    6.8060   10.1790   25.5500 H   0  0  0  0  0  0  0  0  0  0  0  0
    7.3270   11.5350   26.5420 H   0  0  0  0  0  0  0  0  0  0  0  0
    6.2580   11.8100   25.1650 H   0  0  0  0  0  0  0  0  0  0  0  0
    8.3910    8.5170   23.2950 H   0  0  0  0  0  0  0  0  0  0  0  0
    7.5200    9.0340   24.6610 H   0  0  0  0  0  0  0  0  0  0  0  0
   10.9790    8.6280   23.0480 H   0  0  0  0  0  0  0  0  0  0  0  0
   10.9930    9.5220   21.5330 H   0  0  0  0  0  0  0  0  0  0  0  0
    9.5370    8.6500   22.0370 H   0  0  0  0  0  0  0  0  0  0  0  0
   11.3060   11.8190   22.2410 H   0  0  0  0  0  0  0  0  0  0  0  0
  1  2  1  0
  2  3  2  3
  3  4  1  0
  3  5  1  0
  5  6  2  0
  6  7  1  0
  7  8  1  0
  7  9  2  0
  9 10  1  0
  9 11  1  0
 11 12  1  0
 11 13  2  0
 13  5  1  0
  1 14  1  0
  1 15  1  0
  1 16  1  0
  2 17  1  0
  4 18  1  0
  4 19  1  0
  4 20  1  0
  6 21  1  0
  8 22  1  0
  8 23  1  0
  8 24  1  0
 10 25  1  0
 10 26  1  0
 12 27  1  0
 12 28  1  0
 12 29  1  0
 13 30  1  0
A    1
 C1 
A    2
 C2 
A    3
 C3 
A    4
 C4 
A    5
 C5 
A    6
 C6 
A    7
 C7 
A    8
 C8 
A    9
 C9 
A   10
 N1 
A   11
 C10
A   12
 C11
A   13
 C12
A   14
 H1 
A   15
 H2 
A   16
 H3 
A   17
 H4 
A   18
 H5 
A   19
 H6 
A   20
 H7 
A   21
 H8 
A   22
 H9 
A   23
 H10
A   24
 H11
A   25
 H12
A   26
 H13
A   27
 H14
A   28
 H15
A   29
 H16
A   30
 H17
M  END
>  <ref_pdb>  (35) 
x0310_0A

>  <ref_mols>  (35) 
x0451_0A,x0739_0A

>  <original SMILES>  (35) 
CC=C(C)c1cc(C)c(N)c(C)c1

>  <rationale>  (35) 
info halogenbond:G127+D39+E85+Q95+E106+E88+T126+P107+H104+Y64+C65+S87+N129+F83+R93+L131+I82+G128+P91+N19+H21+V84+G133+Y90+Y89+H97+L81+F134+L98+R20+G103+S66+S67+S7+G108+R38+V124+M99+S36; hbond:S105+Q95+D39+A86+E85+G108+G103+G128+G130+L131+N129+N19+H104+R68+R93+P91+F83+S67+S7+S66+G112+G133+V132+R20+Y89+S77+A135+Y63+A92+A101+M99+F134+L100+I82+Y64+S36+L98+V84+L81+Y94+S80+R38+S37+V102+G8+I123+G111+I113+L114+C65+L22+S96; hydroph_interaction:V124+Y90+H21+P107+L22+E85+E106+N129+D39+N19+L40+I123+A135+Q95+I82+L100+L98+L131+F83+R93+V132+Y63+F134+H104+R20+A86+V74+P91+A101+F76+M99+L114+A92+Y94+R68+Y72+Y64+V18+V102+W28+G127+G128+L81; pication:H21+H104+R93+Y63+F134+Y90+R68+F83+R20; pistack:H21+Y89+Y90+H104+F134+Y63+F83+Y94; saltbridge:D39+R93+H104+E106+D109+E85+E88+R68+R20; 

>  <intxn_cluster>  (35) 
-1

>  <intxn_cluster_rank>  (35) 
-1

>  <N_interactions>  (35) 
5

>  <∆∆G>  (35) 
-9.947155

>  <$/mg>  (35) 
163.0

>  <comRMSD>  (35) 
0.982561

>  <N_rotatable_bonds>  (35) 
6

>  <deep_P1_sidechain>  (35) 
nan

>  <farthest_distance_to_substrate>  (35) 
2.76024

>  <hbond:SER:7>  (35) 
hbond:SER:7    NaN
hbond:SER:7     -1
Name: 34, dtype: object

>  <halogenbond:SER:7>  (35) 
halogenbond:SER:7    NaN
halogenbond:SER:7     -1
Name: 34, dtype: object

>  <hbond:GLY:8>  (35) 
hbond:GLY:8    NaN
hbond:GLY:8     -1
Name: 34, dtype: object

>  <hydroph_interaction:VAL:18>  (35) 
hydroph_interaction:VAL:18    NaN
hydroph_interaction:VAL:18     -1
Name: 34, dtype: object

>  <hbond:ASN:19>  (35) 
hbond:ASN:19    NaN
hbond:ASN:19     -1
Name: 34, dtype: object

>  <hydroph_interaction:ASN:19>  (35) 
hydroph_interaction:ASN:19    NaN
hydroph_interaction:ASN:19     -1
Name: 34, dtype: object

>  <halogenbond:ASN:19>  (35) 
halogenbond:ASN:19    NaN
halogenbond:ASN:19     -1
Name: 34, dtype: object

>  <hbond:ARG:20>  (35) 
hbond:ARG:20    NaN
hbond:ARG:20     -1
Name: 34, dtype: object

>  <hydroph_interaction:ARG:20>  (35) 
hydroph_interaction:ARG:20    NaN
hydroph_interaction:ARG:20     -1
Name: 34, dtype: object

>  <saltbridge:ARG:20>  (35) 
saltbridge:ARG:20    NaN
saltbridge:ARG:20     -1
Name: 34, dtype: object

>  <halogenbond:ARG:20>  (35) 
halogenbond:ARG:20    NaN
halogenbond:ARG:20     -1
Name: 34, dtype: object

>  <pication:ARG:20>  (35) 
pication:ARG:20    NaN
pication:ARG:20     -1
Name: 34, dtype: object

>  <hbond:HIS:21>  (35) 
hbond:HIS:21    0.0
hbond:HIS:21      0
Name: 34, dtype: object

>  <hydroph_interaction:HIS:21>  (35) 
hydroph_interaction:HIS:21    NaN
hydroph_interaction:HIS:21     -1
Name: 34, dtype: object

>  <pistack:HIS:21>  (35) 
pistack:HIS:21    NaN
pistack:HIS:21     -1
Name: 34, dtype: object

>  <pication:HIS:21>  (35) 
pication:HIS:21    NaN
pication:HIS:21     -1
Name: 34, dtype: object

>  <saltbridge:HIS:21>  (35) 
saltbridge:HIS:21    0.0
saltbridge:HIS:21      0
Name: 34, dtype: object

>  <halogenbond:HIS:21>  (35) 
halogenbond:HIS:21    NaN
halogenbond:HIS:21     -1
Name: 34, dtype: object

>  <hydroph_interaction:LEU:22>  (35) 
hydroph_interaction:LEU:22    NaN
hydroph_interaction:LEU:22     -1
Name: 34, dtype: object

>  <hbond:LEU:22>  (35) 
hbond:LEU:22    NaN
hbond:LEU:22     -1
Name: 34, dtype: object

>  <hydroph_interaction:TRP:28>  (35) 
hydroph_interaction:TRP:28    NaN
hydroph_interaction:TRP:28     -1
Name: 34, dtype: object

>  <hbond:SER:36>  (35) 
hbond:SER:36    NaN
hbond:SER:36     -1
Name: 34, dtype: object

>  <halogenbond:SER:36>  (35) 
halogenbond:SER:36    NaN
halogenbond:SER:36     -1
Name: 34, dtype: object

>  <hbond:SER:37>  (35) 
hbond:SER:37    NaN
hbond:SER:37     -1
Name: 34, dtype: object

>  <hbond:ARG:38>  (35) 
hbond:ARG:38    NaN
hbond:ARG:38     -1
Name: 34, dtype: object

>  <halogenbond:ARG:38>  (35) 
halogenbond:ARG:38    NaN
halogenbond:ARG:38     -1
Name: 34, dtype: object

>  <saltbridge:ASP:39>  (35) 
saltbridge:ASP:39    NaN
saltbridge:ASP:39     -1
Name: 34, dtype: object

>  <halogenbond:ASP:39>  (35) 
halogenbond:ASP:39    NaN
halogenbond:ASP:39     -1
Name: 34, dtype: object

>  <hbond:ASP:39>  (35) 
hbond:ASP:39    NaN
hbond:ASP:39     -1
Name: 34, dtype: object

>  <hydroph_interaction:ASP:39>  (35) 
hydroph_interaction:ASP:39    NaN
hydroph_interaction:ASP:39     -1
Name: 34, dtype: object

>  <hydroph_interaction:LEU:40>  (35) 
hydroph_interaction:LEU:40    NaN
hydroph_interaction:LEU:40     -1
Name: 34, dtype: object

>  <hydroph_interaction:TYR:63>  (35) 
hydroph_interaction:TYR:63    NaN
hydroph_interaction:TYR:63     -1
Name: 34, dtype: object

>  <hbond:TYR:63>  (35) 
hbond:TYR:63    NaN
hbond:TYR:63     -1
Name: 34, dtype: object

>  <pistack:TYR:63>  (35) 
pistack:TYR:63    NaN
pistack:TYR:63     -1
Name: 34, dtype: object

>  <pication:TYR:63>  (35) 
pication:TYR:63    NaN
pication:TYR:63     -1
Name: 34, dtype: object

>  <halogenbond:TYR:64>  (35) 
halogenbond:TYR:64    NaN
halogenbond:TYR:64     -1
Name: 34, dtype: object

>  <hbond:TYR:64>  (35) 
hbond:TYR:64    NaN
hbond:TYR:64     -1
Name: 34, dtype: object

>  <hydroph_interaction:TYR:64>  (35) 
hydroph_interaction:TYR:64    NaN
hydroph_interaction:TYR:64     -1
Name: 34, dtype: object

>  <halogenbond:CYS:65>  (35) 
halogenbond:CYS:65    NaN
halogenbond:CYS:65     -1
Name: 34, dtype: object

>  <hbond:CYS:65>  (35) 
hbond:CYS:65    NaN
hbond:CYS:65     -1
Name: 34, dtype: object

>  <hbond:SER:66>  (35) 
hbond:SER:66    NaN
hbond:SER:66     -1
Name: 34, dtype: object

>  <halogenbond:SER:66>  (35) 
halogenbond:SER:66    NaN
halogenbond:SER:66     -1
Name: 34, dtype: object

>  <hbond:SER:67>  (35) 
hbond:SER:67    NaN
hbond:SER:67     -1
Name: 34, dtype: object

>  <halogenbond:SER:67>  (35) 
halogenbond:SER:67    NaN
halogenbond:SER:67     -1
Name: 34, dtype: object

>  <hbond:ARG:68>  (35) 
hbond:ARG:68    NaN
hbond:ARG:68     -1
Name: 34, dtype: object

>  <saltbridge:ARG:68>  (35) 
saltbridge:ARG:68    NaN
saltbridge:ARG:68     -1
Name: 34, dtype: object

>  <hydroph_interaction:ARG:68>  (35) 
hydroph_interaction:ARG:68    NaN
hydroph_interaction:ARG:68     -1
Name: 34, dtype: object

>  <pication:ARG:68>  (35) 
pication:ARG:68    NaN
pication:ARG:68     -1
Name: 34, dtype: object

>  <hydroph_interaction:TYR:72>  (35) 
hydroph_interaction:TYR:72    NaN
hydroph_interaction:TYR:72     -1
Name: 34, dtype: object

>  <hydroph_interaction:VAL:74>  (35) 
hydroph_interaction:VAL:74    NaN
hydroph_interaction:VAL:74     -1
Name: 34, dtype: object

>  <hydroph_interaction:PHE:76>  (35) 
hydroph_interaction:PHE:76    NaN
hydroph_interaction:PHE:76     -1
Name: 34, dtype: object

>  <hbond:SER:77>  (35) 
hbond:SER:77    NaN
hbond:SER:77     -1
Name: 34, dtype: object

>  <hbond:SER:80>  (35) 
hbond:SER:80    NaN
hbond:SER:80     -1
Name: 34, dtype: object

>  <hbond:LEU:81>  (35) 
hbond:LEU:81    NaN
hbond:LEU:81     -1
Name: 34, dtype: object

>  <halogenbond:LEU:81>  (35) 
halogenbond:LEU:81    NaN
halogenbond:LEU:81     -1
Name: 34, dtype: object

>  <hydroph_interaction:LEU:81>  (35) 
hydroph_interaction:LEU:81    NaN
hydroph_interaction:LEU:81     -1
Name: 34, dtype: object

>  <hydroph_interaction:ILE:82>  (35) 
hydroph_interaction:ILE:82    NaN
hydroph_interaction:ILE:82     -1
Name: 34, dtype: object

>  <halogenbond:ILE:82>  (35) 
halogenbond:ILE:82    NaN
halogenbond:ILE:82     -1
Name: 34, dtype: object

>  <hbond:ILE:82>  (35) 
hbond:ILE:82    NaN
hbond:ILE:82     -1
Name: 34, dtype: object

>  <hbond:PHE:83>  (35) 
hbond:PHE:83    NaN
hbond:PHE:83     -1
Name: 34, dtype: object

>  <hydroph_interaction:PHE:83>  (35) 
hydroph_interaction:PHE:83    NaN
hydroph_interaction:PHE:83     -1
Name: 34, dtype: object

>  <halogenbond:PHE:83>  (35) 
halogenbond:PHE:83    NaN
halogenbond:PHE:83     -1
Name: 34, dtype: object

>  <pistack:PHE:83>  (35) 
pistack:PHE:83    NaN
pistack:PHE:83     -1
Name: 34, dtype: object

>  <pication:PHE:83>  (35) 
pication:PHE:83    NaN
pication:PHE:83     -1
Name: 34, dtype: object

>  <hydroph_interaction:VAL:84>  (35) 
hydroph_interaction:VAL:84    0.0
hydroph_interaction:VAL:84      0
Name: 34, dtype: object

>  <halogenbond:VAL:84>  (35) 
halogenbond:VAL:84    NaN
halogenbond:VAL:84     -1
Name: 34, dtype: object

>  <hbond:VAL:84>  (35) 
hbond:VAL:84    NaN
hbond:VAL:84     -1
Name: 34, dtype: object

>  <hydroph_interaction:GLU:85>  (35) 
hydroph_interaction:GLU:85    NaN
hydroph_interaction:GLU:85     -1
Name: 34, dtype: object

>  <hbond:GLU:85>  (35) 
hbond:GLU:85    NaN
hbond:GLU:85     -1
Name: 34, dtype: object

>  <halogenbond:GLU:85>  (35) 
halogenbond:GLU:85    NaN
halogenbond:GLU:85     -1
Name: 34, dtype: object

>  <saltbridge:GLU:85>  (35) 
saltbridge:GLU:85    NaN
saltbridge:GLU:85     -1
Name: 34, dtype: object

>  <halogenbond:ALA:86>  (35) 
halogenbond:ALA:86    0.0
halogenbond:ALA:86      0
Name: 34, dtype: object

>  <hbond:ALA:86>  (35) 
hbond:ALA:86    NaN
hbond:ALA:86     -1
Name: 34, dtype: object

>  <hydroph_interaction:ALA:86>  (35) 
hydroph_interaction:ALA:86    NaN
hydroph_interaction:ALA:86     -1
Name: 34, dtype: object

>  <hbond:SER:87>  (35) 
hbond:SER:87    0
hbond:SER:87    0
Name: 34, dtype: object

>  <halogenbond:SER:87>  (35) 
halogenbond:SER:87    NaN
halogenbond:SER:87     -1
Name: 34, dtype: object

>  <hbond:GLU:88>  (35) 
hbond:GLU:88    0.0
hbond:GLU:88      0
Name: 34, dtype: object

>  <hydroph_interaction:GLU:88>  (35) 
hydroph_interaction:GLU:88    0.0
hydroph_interaction:GLU:88      0
Name: 34, dtype: object

>  <halogenbond:GLU:88>  (35) 
halogenbond:GLU:88    NaN
halogenbond:GLU:88     -1
Name: 34, dtype: object

>  <saltbridge:GLU:88>  (35) 
saltbridge:GLU:88    NaN
saltbridge:GLU:88     -1
Name: 34, dtype: object

>  <hydroph_interaction:TYR:89>  (35) 
hydroph_interaction:TYR:89    0.0
hydroph_interaction:TYR:89      0
Name: 34, dtype: object

>  <pistack:TYR:89>  (35) 
pistack:TYR:89    NaN
pistack:TYR:89     -1
Name: 34, dtype: object

>  <hbond:TYR:89>  (35) 
hbond:TYR:89    NaN
hbond:TYR:89     -1
Name: 34, dtype: object

>  <halogenbond:TYR:89>  (35) 
halogenbond:TYR:89    NaN
halogenbond:TYR:89     -1
Name: 34, dtype: object

>  <hydroph_interaction:TYR:90>  (35) 
hydroph_interaction:TYR:90    1.0
hydroph_interaction:TYR:90      1
Name: 34, dtype: object

>  <hbond:TYR:90>  (35) 
hbond:TYR:90    0.0
hbond:TYR:90      0
Name: 34, dtype: object

>  <pistack:TYR:90>  (35) 
pistack:TYR:90    NaN
pistack:TYR:90     -1
Name: 34, dtype: object

>  <halogenbond:TYR:90>  (35) 
halogenbond:TYR:90    NaN
halogenbond:TYR:90     -1
Name: 34, dtype: object

>  <pication:TYR:90>  (35) 
pication:TYR:90    NaN
pication:TYR:90     -1
Name: 34, dtype: object

>  <hbond:PRO:91>  (35) 
hbond:PRO:91    NaN
hbond:PRO:91     -1
Name: 34, dtype: object

>  <hydroph_interaction:PRO:91>  (35) 
hydroph_interaction:PRO:91    NaN
hydroph_interaction:PRO:91     -1
Name: 34, dtype: object

>  <halogenbond:PRO:91>  (35) 
halogenbond:PRO:91    NaN
halogenbond:PRO:91     -1
Name: 34, dtype: object

>  <hbond:ALA:92>  (35) 
hbond:ALA:92    NaN
hbond:ALA:92     -1
Name: 34, dtype: object

>  <hydroph_interaction:ALA:92>  (35) 
hydroph_interaction:ALA:92    NaN
hydroph_interaction:ALA:92     -1
Name: 34, dtype: object

>  <saltbridge:ARG:93>  (35) 
saltbridge:ARG:93    NaN
saltbridge:ARG:93     -1
Name: 34, dtype: object

>  <hbond:ARG:93>  (35) 
hbond:ARG:93    NaN
hbond:ARG:93     -1
Name: 34, dtype: object

>  <hydroph_interaction:ARG:93>  (35) 
hydroph_interaction:ARG:93    NaN
hydroph_interaction:ARG:93     -1
Name: 34, dtype: object

>  <halogenbond:ARG:93>  (35) 
halogenbond:ARG:93    NaN
halogenbond:ARG:93     -1
Name: 34, dtype: object

>  <pication:ARG:93>  (35) 
pication:ARG:93    NaN
pication:ARG:93     -1
Name: 34, dtype: object

>  <hydroph_interaction:TYR:94>  (35) 
hydroph_interaction:TYR:94    NaN
hydroph_interaction:TYR:94     -1
Name: 34, dtype: object

>  <pistack:TYR:94>  (35) 
pistack:TYR:94    NaN
pistack:TYR:94     -1
Name: 34, dtype: object

>  <hbond:TYR:94>  (35) 
hbond:TYR:94    NaN
hbond:TYR:94     -1
Name: 34, dtype: object

>  <hbond:GLN:95>  (35) 
hbond:GLN:95    NaN
hbond:GLN:95     -1
Name: 34, dtype: object

>  <hydroph_interaction:GLN:95>  (35) 
hydroph_interaction:GLN:95    NaN
hydroph_interaction:GLN:95     -1
Name: 34, dtype: object

>  <halogenbond:GLN:95>  (35) 
halogenbond:GLN:95    NaN
halogenbond:GLN:95     -1
Name: 34, dtype: object

>  <hbond:SER:96>  (35) 
hbond:SER:96    NaN
hbond:SER:96     -1
Name: 34, dtype: object

>  <halogenbond:HIS:97>  (35) 
halogenbond:HIS:97    NaN
halogenbond:HIS:97     -1
Name: 34, dtype: object

>  <hydroph_interaction:LEU:98>  (35) 
hydroph_interaction:LEU:98    NaN
hydroph_interaction:LEU:98     -1
Name: 34, dtype: object

>  <hbond:LEU:98>  (35) 
hbond:LEU:98    NaN
hbond:LEU:98     -1
Name: 34, dtype: object

>  <halogenbond:LEU:98>  (35) 
halogenbond:LEU:98    NaN
halogenbond:LEU:98     -1
Name: 34, dtype: object

>  <hbond:MET:99>  (35) 
hbond:MET:99    NaN
hbond:MET:99     -1
Name: 34, dtype: object

>  <hydroph_interaction:MET:99>  (35) 
hydroph_interaction:MET:99    NaN
hydroph_interaction:MET:99     -1
Name: 34, dtype: object

>  <halogenbond:MET:99>  (35) 
halogenbond:MET:99    NaN
halogenbond:MET:99     -1
Name: 34, dtype: object

>  <hydroph_interaction:LEU:100>  (35) 
hydroph_interaction:LEU:100    NaN
hydroph_interaction:LEU:100     -1
Name: 34, dtype: object

>  <hbond:LEU:100>  (35) 
hbond:LEU:100    NaN
hbond:LEU:100     -1
Name: 34, dtype: object

>  <hbond:ALA:101>  (35) 
hbond:ALA:101    NaN
hbond:ALA:101     -1
Name: 34, dtype: object

>  <hydroph_interaction:ALA:101>  (35) 
hydroph_interaction:ALA:101    NaN
hydroph_interaction:ALA:101     -1
Name: 34, dtype: object

>  <hydroph_interaction:VAL:102>  (35) 
hydroph_interaction:VAL:102    NaN
hydroph_interaction:VAL:102     -1
Name: 34, dtype: object

>  <hbond:VAL:102>  (35) 
hbond:VAL:102    NaN
hbond:VAL:102     -1
Name: 34, dtype: object

>  <hbond:GLY:103>  (35) 
hbond:GLY:103    NaN
hbond:GLY:103     -1
Name: 34, dtype: object

>  <halogenbond:GLY:103>  (35) 
halogenbond:GLY:103    NaN
halogenbond:GLY:103     -1
Name: 34, dtype: object

>  <hbond:HIS:104>  (35) 
hbond:HIS:104    NaN
hbond:HIS:104     -1
Name: 34, dtype: object

>  <saltbridge:HIS:104>  (35) 
saltbridge:HIS:104    NaN
saltbridge:HIS:104     -1
Name: 34, dtype: object

>  <pication:HIS:104>  (35) 
pication:HIS:104    NaN
pication:HIS:104     -1
Name: 34, dtype: object

>  <halogenbond:HIS:104>  (35) 
halogenbond:HIS:104    NaN
halogenbond:HIS:104     -1
Name: 34, dtype: object

>  <hydroph_interaction:HIS:104>  (35) 
hydroph_interaction:HIS:104    NaN
hydroph_interaction:HIS:104     -1
Name: 34, dtype: object

>  <pistack:HIS:104>  (35) 
pistack:HIS:104    NaN
pistack:HIS:104     -1
Name: 34, dtype: object

>  <halogenbond:SER:105>  (35) 
halogenbond:SER:105    0.0
halogenbond:SER:105      0
Name: 34, dtype: object

>  <hbond:SER:105>  (35) 
hbond:SER:105    1.0
hbond:SER:105      1
Name: 34, dtype: object

>  <hbond:GLU:106>  (35) 
hbond:GLU:106    0.0
hbond:GLU:106      0
Name: 34, dtype: object

>  <hydroph_interaction:GLU:106>  (35) 
hydroph_interaction:GLU:106    NaN
hydroph_interaction:GLU:106     -1
Name: 34, dtype: object

>  <saltbridge:GLU:106>  (35) 
saltbridge:GLU:106    NaN
saltbridge:GLU:106     -1
Name: 34, dtype: object

>  <halogenbond:GLU:106>  (35) 
halogenbond:GLU:106    NaN
halogenbond:GLU:106     -1
Name: 34, dtype: object

>  <hydroph_interaction:PRO:107>  (35) 
hydroph_interaction:PRO:107    2
hydroph_interaction:PRO:107    2
Name: 34, dtype: object

>  <hbond:PRO:107>  (35) 
hbond:PRO:107    0.0
hbond:PRO:107      0
Name: 34, dtype: object

>  <halogenbond:PRO:107>  (35) 
halogenbond:PRO:107    NaN
halogenbond:PRO:107     -1
Name: 34, dtype: object

>  <hbond:GLY:108>  (35) 
hbond:GLY:108    NaN
hbond:GLY:108     -1
Name: 34, dtype: object

>  <halogenbond:GLY:108>  (35) 
halogenbond:GLY:108    NaN
halogenbond:GLY:108     -1
Name: 34, dtype: object

>  <hbond:ASP:109>  (35) 
hbond:ASP:109    0.0
hbond:ASP:109      0
Name: 34, dtype: object

>  <hydroph_interaction:ASP:109>  (35) 
hydroph_interaction:ASP:109    0.0
hydroph_interaction:ASP:109      0
Name: 34, dtype: object

>  <saltbridge:ASP:109>  (35) 
saltbridge:ASP:109    NaN
saltbridge:ASP:109     -1
Name: 34, dtype: object

>  <halogenbond:CYS:110>  (35) 
halogenbond:CYS:110    0.0
halogenbond:CYS:110      0
Name: 34, dtype: object

>  <hbond:CYS:110>  (35) 
hbond:CYS:110    0.0
hbond:CYS:110      0
Name: 34, dtype: object

>  <hbond:GLY:111>  (35) 
hbond:GLY:111    NaN
hbond:GLY:111     -1
Name: 34, dtype: object

>  <hbond:GLY:112>  (35) 
hbond:GLY:112    NaN
hbond:GLY:112     -1
Name: 34, dtype: object

>  <hbond:ILE:113>  (35) 
hbond:ILE:113    NaN
hbond:ILE:113     -1
Name: 34, dtype: object

>  <hydroph_interaction:LEU:114>  (35) 
hydroph_interaction:LEU:114    NaN
hydroph_interaction:LEU:114     -1
Name: 34, dtype: object

>  <hbond:LEU:114>  (35) 
hbond:LEU:114    NaN
hbond:LEU:114     -1
Name: 34, dtype: object

>  <hydroph_interaction:ILE:123>  (35) 
hydroph_interaction:ILE:123    NaN
hydroph_interaction:ILE:123     -1
Name: 34, dtype: object

>  <hbond:ILE:123>  (35) 
hbond:ILE:123    NaN
hbond:ILE:123     -1
Name: 34, dtype: object

>  <hydroph_interaction:VAL:124>  (35) 
hydroph_interaction:VAL:124    1.0
hydroph_interaction:VAL:124      1
Name: 34, dtype: object

>  <hbond:VAL:124>  (35) 
hbond:VAL:124    0.0
hbond:VAL:124      0
Name: 34, dtype: object

>  <halogenbond:VAL:124>  (35) 
halogenbond:VAL:124    NaN
halogenbond:VAL:124     -1
Name: 34, dtype: object

>  <hbond:SER:125>  (35) 
hbond:SER:125    0
hbond:SER:125    0
Name: 34, dtype: object

>  <halogenbond:SER:125>  (35) 
halogenbond:SER:125    0.0
halogenbond:SER:125      0
Name: 34, dtype: object

>  <hydroph_interaction:THR:126>  (35) 
hydroph_interaction:THR:126    0.0
hydroph_interaction:THR:126      0
Name: 34, dtype: object

>  <hbond:THR:126>  (35) 
hbond:THR:126    0.0
hbond:THR:126      0
Name: 34, dtype: object

>  <halogenbond:THR:126>  (35) 
halogenbond:THR:126    NaN
halogenbond:THR:126     -1
Name: 34, dtype: object

>  <hbond:GLY:127>  (35) 
hbond:GLY:127    0
hbond:GLY:127    0
Name: 34, dtype: object

>  <halogenbond:GLY:127>  (35) 
halogenbond:GLY:127    NaN
halogenbond:GLY:127     -1
Name: 34, dtype: object

>  <hydroph_interaction:GLY:127>  (35) 
hydroph_interaction:GLY:127    NaN
hydroph_interaction:GLY:127     -1
Name: 34, dtype: object

>  <hbond:GLY:128>  (35) 
hbond:GLY:128    NaN
hbond:GLY:128     -1
Name: 34, dtype: object

>  <halogenbond:GLY:128>  (35) 
halogenbond:GLY:128    NaN
halogenbond:GLY:128     -1
Name: 34, dtype: object

>  <hydroph_interaction:GLY:128>  (35) 
hydroph_interaction:GLY:128    NaN
hydroph_interaction:GLY:128     -1
Name: 34, dtype: object

>  <hbond:ASN:129>  (35) 
hbond:ASN:129    NaN
hbond:ASN:129     -1
Name: 34, dtype: object

>  <hydroph_interaction:ASN:129>  (35) 
hydroph_interaction:ASN:129    NaN
hydroph_interaction:ASN:129     -1
Name: 34, dtype: object

>  <halogenbond:ASN:129>  (35) 
halogenbond:ASN:129    NaN
halogenbond:ASN:129     -1
Name: 34, dtype: object

>  <hbond:GLY:130>  (35) 
hbond:GLY:130    NaN
hbond:GLY:130     -1
Name: 34, dtype: object

>  <hbond:LEU:131>  (35) 
hbond:LEU:131    NaN
hbond:LEU:131     -1
Name: 34, dtype: object

>  <hydroph_interaction:LEU:131>  (35) 
hydroph_interaction:LEU:131    NaN
hydroph_interaction:LEU:131     -1
Name: 34, dtype: object

>  <halogenbond:LEU:131>  (35) 
halogenbond:LEU:131    NaN
halogenbond:LEU:131     -1
Name: 34, dtype: object

>  <hydroph_interaction:VAL:132>  (35) 
hydroph_interaction:VAL:132    NaN
hydroph_interaction:VAL:132     -1
Name: 34, dtype: object

>  <hbond:VAL:132>  (35) 
hbond:VAL:132    NaN
hbond:VAL:132     -1
Name: 34, dtype: object

>  <hbond:GLY:133>  (35) 
hbond:GLY:133    NaN
hbond:GLY:133     -1
Name: 34, dtype: object

>  <halogenbond:GLY:133>  (35) 
halogenbond:GLY:133    NaN
halogenbond:GLY:133     -1
Name: 34, dtype: object

>  <hydroph_interaction:PHE:134>  (35) 
hydroph_interaction:PHE:134    NaN
hydroph_interaction:PHE:134     -1
Name: 34, dtype: object

>  <hbond:PHE:134>  (35) 
hbond:PHE:134    NaN
hbond:PHE:134     -1
Name: 34, dtype: object

>  <pistack:PHE:134>  (35) 
pistack:PHE:134    NaN
pistack:PHE:134     -1
Name: 34, dtype: object

>  <pication:PHE:134>  (35) 
pication:PHE:134    NaN
pication:PHE:134     -1
Name: 34, dtype: object

>  <halogenbond:PHE:134>  (35) 
halogenbond:PHE:134    NaN
halogenbond:PHE:134     -1
Name: 34, dtype: object

>  <hydroph_interaction:ALA:135>  (35) 
hydroph_interaction:ALA:135    NaN
hydroph_interaction:ALA:135     -1
Name: 34, dtype: object

>  <hbond:ALA:135>  (35) 
hbond:ALA:135    NaN
hbond:ALA:135     -1
Name: 34, dtype: object

$$$$
Z1592908376
     RDKit          3D

 48 49  0  0  0  0  0  0  0  0999 V2000
   12.0930   14.9930   24.8780 C   0  0  0  0  0  0  0  0  0  0  0  0
   12.6320   14.2910   23.6330 C   0  0  0  0  0  0  0  0  0  0  0  0
   11.5360   13.4180   22.9900 C   0  0  0  0  0  0  0  0  0  0  0  0
   10.0780   13.7720   23.2760 C   0  0  0  0  0  0  0  0  0  0  0  0
    9.3890   12.5570   23.7620 C   0  0  0  0  0  0  0  0  0  0  0  0
    8.3610   12.6360   24.6960 C   0  0  0  0  0  0  0  0  0  0  0  0
    7.7520   11.4790   25.1340 C   0  0  0  0  0  0  0  0  0  0  0  0
    8.1770   10.2590   24.6360 C   0  0  0  0  0  0  0  0  0  0  0  0
    9.1960   10.1680   23.7030 C   0  0  0  0  0  0  0  0  0  0  0  0
    9.8020   11.3230   23.2630 C   0  0  0  0  0  0  0  0  0  0  0  0
   13.0770   15.2800   22.5610 C   0  0  0  0  0  0  0  0  0  0  0  0
   12.4710   15.1660   21.2520 N   0  0  0  0  0  0  0  0  0  0  0  0
   12.9760   16.1350   20.3310 C   0  0  0  0  0  0  0  0  0  0  0  0
   12.7630   15.6500   18.9120 C   0  0  0  0  0  0  0  0  0  0  0  0
   11.4030   15.8300   18.2570 C   0  0  0  0  0  0  0  0  0  0  0  0
   10.2870   16.1730   19.1320 N   0  0  0  0  0  0  0  0  0  0  0  0
    9.2940   17.0180   18.6670 C   0  0  0  0  0  0  0  0  0  0  0  0
    9.2880   17.2850   17.3420 N   0  0  0  0  0  0  0  0  0  0  0  0
    8.4400   17.5370   19.3720 O   0  0  0  0  0  0  0  0  0  0  0  0
   10.1250   15.2570   20.2550 C   0  0  0  0  0  0  0  0  0  0  0  0
   11.0930   15.5250   21.4050 C   0  0  0  0  0  0  0  0  0  0  0  0
   12.8610   15.0520   25.6580 H   0  0  0  0  0  0  0  0  0  0  0  0
   11.7780   16.0120   24.6580 H   0  0  0  0  0  0  0  0  0  0  0  0
   11.2480   14.4560   25.3130 H   0  0  0  0  0  0  0  0  0  0  0  0
   13.4670   13.6480   23.9290 H   0  0  0  0  0  0  0  0  0  0  0  0
   11.6960   12.3910   23.3260 H   0  0  0  0  0  0  0  0  0  0  0  0
   11.6790   13.3950   21.9050 H   0  0  0  0  0  0  0  0  0  0  0  0
    9.5770   14.1820   22.3890 H   0  0  0  0  0  0  0  0  0  0  0  0
   10.0180   14.5430   24.0500 H   0  0  0  0  0  0  0  0  0  0  0  0
    8.0320   13.5960   25.0860 H   0  0  0  0  0  0  0  0  0  0  0  0
    6.9490   11.5200   25.8630 H   0  0  0  0  0  0  0  0  0  0  0  0
    7.7010    9.3640   24.9790 H   0  0  0  0  0  0  0  0  0  0  0  0
    9.5140    9.2010   23.3230 H   0  0  0  0  0  0  0  0  0  0  0  0
   10.6030   11.2580   22.5300 H   0  0  0  0  0  0  0  0  0  0  0  0
   14.1510   15.2130   22.4100 H   0  0  0  0  0  0  0  0  0  0  0  0
   12.8950   16.2850   22.9360 H   0  0  0  0  0  0  0  0  0  0  0  0
   14.0530   16.3000   20.4590 H   0  0  0  0  0  0  0  0  0  0  0  0
   12.4850   17.0960   20.4810 H   0  0  0  0  0  0  0  0  0  0  0  0
   12.9690   14.5720   18.9380 H   0  0  0  0  0  0  0  0  0  0  0  0
   13.5240   16.0770   18.2600 H   0  0  0  0  0  0  0  0  0  0  0  0
   11.4820   16.5750   17.4540 H   0  0  0  0  0  0  0  0  0  0  0  0
   11.1630   14.8840   17.7710 H   0  0  0  0  0  0  0  0  0  0  0  0
    9.3570   16.4660   16.7480 H   0  0  0  0  0  0  0  0  0  0  0  0
    8.5150   17.8900   17.0920 H   0  0  0  0  0  0  0  0  0  0  0  0
   10.2760   14.2390   19.8850 H   0  0  0  0  0  0  0  0  0  0  0  0
    9.0990   15.2950   20.6330 H   0  0  0  0  0  0  0  0  0  0  0  0
   10.6890   15.1400   22.3400 H   0  0  0  0  0  0  0  0  0  0  0  0
   11.1370   16.6010   21.4720 H   0  0  0  0  0  0  0  0  0  0  0  0
  1  2  1  0
  2  3  1  0
  3  4  1  0
  4  5  1  0
  5  6  2  0
  6  7  1  0
  7  8  2  0
  8  9  1  0
  9 10  2  0
  2 11  1  0
 11 12  1  0
 12 13  1  0
 13 14  1  0
 14 15  1  0
 15 16  1  0
 16 17  1  0
 17 18  1  0
 17 19  2  0
 16 20  1  0
 20 21  1  0
 10  5  1  0
 21 12  1  0
  1 22  1  0
  1 23  1  0
  1 24  1  0
  2 25  1  0
  3 26  1  0
  3 27  1  0
  4 28  1  0
  4 29  1  0
  6 30  1  0
  7 31  1  0
  8 32  1  0
  9 33  1  0
 10 34  1  0
 11 35  1  0
 11 36  1  0
 13 37  1  0
 13 38  1  0
 14 39  1  0
 14 40  1  0
 15 41  1  0
 15 42  1  0
 18 43  1  0
 18 44  1  0
 20 45  1  0
 20 46  1  0
 21 47  1  0
 21 48  1  0
A    1
 C1 
A    2
 C2 
A    3
 C3 
A    4
 C4 
A    5
 C5 
A    6
 C6 
A    7
 C7 
A    8
 C8 
A    9
 C9 
A   10
 C10
A   11
 C11
A   12
 N1 
A   13
 C12
A   14
 C13
A   15
 C14
A   16
 N2 
A   17
 C15
A   18
 N3 
A   19
 O1 
A   20
 C16
A   21
 C17
A   22
 H1 
A   23
 H2 
A   24
 H3 
A   25
 H4 
A   26
 H5 
A   27
 H6 
A   28
 H7 
A   29
 H8 
A   30
 H9 
A   31
 H10
A   32
 H11
A   33
 H12
A   34
 H13
A   35
 H14
A   36
 H15
A   37
 H16
A   38
 H17
A   39
 H18
A   40
 H19
A   41
 H20
A   42
 H21
A   43
 H22
A   44
 H23
A   45
 H24
A   46
 H25
A   47
 H26
A   48
 H27
M  END
>  <ref_pdb>  (36) 
x0310_0A

>  <ref_mols>  (36) 
x0528_0A,x0554_0A

>  <original SMILES>  (36) 
CC(CCc1ccccc1)CN1CCCN(C(N)=O)CC1

>  <rationale>  (36) 
info halogenbond:C110+G127+A86+E85+Q95+E106+E88+T126+P107+H104+Y64+C65+S87+N129+F83+R93+L131+I82+G128+P91+N19+H21+V84+G133+Y90+Y89+H97+L81+F134+L98+R20+G103+S66+S67+S7+G108+R38+V124+M99+S36; hbond:Q95+G108+G103+G130+L131+H104+R68+V124+P91+F83+S67+S7+S66+G112+V132+S77+A135+Y63+A92+A101+M99+F134+L100+I82+Y64+S36+L98+V84+L81+Y94+S80+R38+S37+V102+G8+I123+G111+I113+L114+C65+L22+S96; hydroph_interaction:Y90+P107+N129+D39+L40+I123+A135+I82+L100+L98+L131+F83+F134+H104+A86+V74+P91+A101+F76+M99+L114+A92+Y94+R68+Y72+Y64+V18+V102+W28+G127+G128+L81; pication:H104+R93+Y63+F134+Y90+R68+F83+R20; pistack:H21+H104+F134+Y63+F83+Y94; saltbridge:D39+R93+H104+E106+D109+E88+R68+R20; 

>  <intxn_cluster>  (36) 
-1

>  <intxn_cluster_rank>  (36) 
-1

>  <N_interactions>  (36) 
6

>  <∆∆G>  (36) 
-10.161446

>  <$/mg>  (36) 
163.0

>  <comRMSD>  (36) 
0.847363

>  <N_rotatable_bonds>  (36) 
6

>  <deep_P1_sidechain>  (36) 
nan

>  <farthest_distance_to_substrate>  (36) 
2.620618

>  <hbond:SER:7>  (36) 
hbond:SER:7    NaN
hbond:SER:7     -1
Name: 35, dtype: object

>  <halogenbond:SER:7>  (36) 
halogenbond:SER:7    NaN
halogenbond:SER:7     -1
Name: 35, dtype: object

>  <hbond:GLY:8>  (36) 
hbond:GLY:8    NaN
hbond:GLY:8     -1
Name: 35, dtype: object

>  <hydroph_interaction:VAL:18>  (36) 
hydroph_interaction:VAL:18    NaN
hydroph_interaction:VAL:18     -1
Name: 35, dtype: object

>  <hbond:ASN:19>  (36) 
hbond:ASN:19    0.0
hbond:ASN:19      0
Name: 35, dtype: object

>  <hydroph_interaction:ASN:19>  (36) 
hydroph_interaction:ASN:19    0.0
hydroph_interaction:ASN:19      0
Name: 35, dtype: object

>  <halogenbond:ASN:19>  (36) 
halogenbond:ASN:19    NaN
halogenbond:ASN:19     -1
Name: 35, dtype: object

>  <hbond:ARG:20>  (36) 
hbond:ARG:20    0.0
hbond:ARG:20      0
Name: 35, dtype: object

>  <hydroph_interaction:ARG:20>  (36) 
hydroph_interaction:ARG:20    0.0
hydroph_interaction:ARG:20      0
Name: 35, dtype: object

>  <saltbridge:ARG:20>  (36) 
saltbridge:ARG:20    NaN
saltbridge:ARG:20     -1
Name: 35, dtype: object

>  <halogenbond:ARG:20>  (36) 
halogenbond:ARG:20    NaN
halogenbond:ARG:20     -1
Name: 35, dtype: object

>  <pication:ARG:20>  (36) 
pication:ARG:20    NaN
pication:ARG:20     -1
Name: 35, dtype: object

>  <hbond:HIS:21>  (36) 
hbond:HIS:21    0.0
hbond:HIS:21      0
Name: 35, dtype: object

>  <hydroph_interaction:HIS:21>  (36) 
hydroph_interaction:HIS:21    0.0
hydroph_interaction:HIS:21      0
Name: 35, dtype: object

>  <pistack:HIS:21>  (36) 
pistack:HIS:21    NaN
pistack:HIS:21     -1
Name: 35, dtype: object

>  <pication:HIS:21>  (36) 
pication:HIS:21    0.0
pication:HIS:21      0
Name: 35, dtype: object

>  <saltbridge:HIS:21>  (36) 
saltbridge:HIS:21    0.0
saltbridge:HIS:21      0
Name: 35, dtype: object

>  <halogenbond:HIS:21>  (36) 
halogenbond:HIS:21    NaN
halogenbond:HIS:21     -1
Name: 35, dtype: object

>  <hydroph_interaction:LEU:22>  (36) 
hydroph_interaction:LEU:22    0.0
hydroph_interaction:LEU:22      0
Name: 35, dtype: object

>  <hbond:LEU:22>  (36) 
hbond:LEU:22    NaN
hbond:LEU:22     -1
Name: 35, dtype: object

>  <hydroph_interaction:TRP:28>  (36) 
hydroph_interaction:TRP:28    NaN
hydroph_interaction:TRP:28     -1
Name: 35, dtype: object

>  <hbond:SER:36>  (36) 
hbond:SER:36    NaN
hbond:SER:36     -1
Name: 35, dtype: object

>  <halogenbond:SER:36>  (36) 
halogenbond:SER:36    NaN
halogenbond:SER:36     -1
Name: 35, dtype: object

>  <hbond:SER:37>  (36) 
hbond:SER:37    NaN
hbond:SER:37     -1
Name: 35, dtype: object

>  <hbond:ARG:38>  (36) 
hbond:ARG:38    NaN
hbond:ARG:38     -1
Name: 35, dtype: object

>  <halogenbond:ARG:38>  (36) 
halogenbond:ARG:38    NaN
halogenbond:ARG:38     -1
Name: 35, dtype: object

>  <saltbridge:ASP:39>  (36) 
saltbridge:ASP:39    1.0
saltbridge:ASP:39      1
Name: 35, dtype: object

>  <halogenbond:ASP:39>  (36) 
halogenbond:ASP:39    0.0
halogenbond:ASP:39      0
Name: 35, dtype: object

>  <hbond:ASP:39>  (36) 
hbond:ASP:39    0.0
hbond:ASP:39      0
Name: 35, dtype: object

>  <hydroph_interaction:ASP:39>  (36) 
hydroph_interaction:ASP:39    1.0
hydroph_interaction:ASP:39      1
Name: 35, dtype: object

>  <hydroph_interaction:LEU:40>  (36) 
hydroph_interaction:LEU:40    NaN
hydroph_interaction:LEU:40     -1
Name: 35, dtype: object

>  <hydroph_interaction:TYR:63>  (36) 
hydroph_interaction:TYR:63    0.0
hydroph_interaction:TYR:63      0
Name: 35, dtype: object

>  <hbond:TYR:63>  (36) 
hbond:TYR:63    NaN
hbond:TYR:63     -1
Name: 35, dtype: object

>  <pistack:TYR:63>  (36) 
pistack:TYR:63    NaN
pistack:TYR:63     -1
Name: 35, dtype: object

>  <pication:TYR:63>  (36) 
pication:TYR:63    NaN
pication:TYR:63     -1
Name: 35, dtype: object

>  <halogenbond:TYR:64>  (36) 
halogenbond:TYR:64    NaN
halogenbond:TYR:64     -1
Name: 35, dtype: object

>  <hbond:TYR:64>  (36) 
hbond:TYR:64    NaN
hbond:TYR:64     -1
Name: 35, dtype: object

>  <hydroph_interaction:TYR:64>  (36) 
hydroph_interaction:TYR:64    NaN
hydroph_interaction:TYR:64     -1
Name: 35, dtype: object

>  <halogenbond:CYS:65>  (36) 
halogenbond:CYS:65    NaN
halogenbond:CYS:65     -1
Name: 35, dtype: object

>  <hbond:CYS:65>  (36) 
hbond:CYS:65    NaN
hbond:CYS:65     -1
Name: 35, dtype: object

>  <hbond:SER:66>  (36) 
hbond:SER:66    NaN
hbond:SER:66     -1
Name: 35, dtype: object

>  <halogenbond:SER:66>  (36) 
halogenbond:SER:66    NaN
halogenbond:SER:66     -1
Name: 35, dtype: object

>  <hbond:SER:67>  (36) 
hbond:SER:67    NaN
hbond:SER:67     -1
Name: 35, dtype: object

>  <halogenbond:SER:67>  (36) 
halogenbond:SER:67    NaN
halogenbond:SER:67     -1
Name: 35, dtype: object

>  <hbond:ARG:68>  (36) 
hbond:ARG:68    NaN
hbond:ARG:68     -1
Name: 35, dtype: object

>  <saltbridge:ARG:68>  (36) 
saltbridge:ARG:68    NaN
saltbridge:ARG:68     -1
Name: 35, dtype: object

>  <hydroph_interaction:ARG:68>  (36) 
hydroph_interaction:ARG:68    NaN
hydroph_interaction:ARG:68     -1
Name: 35, dtype: object

>  <pication:ARG:68>  (36) 
pication:ARG:68    NaN
pication:ARG:68     -1
Name: 35, dtype: object

>  <hydroph_interaction:TYR:72>  (36) 
hydroph_interaction:TYR:72    NaN
hydroph_interaction:TYR:72     -1
Name: 35, dtype: object

>  <hydroph_interaction:VAL:74>  (36) 
hydroph_interaction:VAL:74    NaN
hydroph_interaction:VAL:74     -1
Name: 35, dtype: object

>  <hydroph_interaction:PHE:76>  (36) 
hydroph_interaction:PHE:76    NaN
hydroph_interaction:PHE:76     -1
Name: 35, dtype: object

>  <hbond:SER:77>  (36) 
hbond:SER:77    NaN
hbond:SER:77     -1
Name: 35, dtype: object

>  <hbond:SER:80>  (36) 
hbond:SER:80    NaN
hbond:SER:80     -1
Name: 35, dtype: object

>  <hbond:LEU:81>  (36) 
hbond:LEU:81    NaN
hbond:LEU:81     -1
Name: 35, dtype: object

>  <halogenbond:LEU:81>  (36) 
halogenbond:LEU:81    NaN
halogenbond:LEU:81     -1
Name: 35, dtype: object

>  <hydroph_interaction:LEU:81>  (36) 
hydroph_interaction:LEU:81    NaN
hydroph_interaction:LEU:81     -1
Name: 35, dtype: object

>  <hydroph_interaction:ILE:82>  (36) 
hydroph_interaction:ILE:82    NaN
hydroph_interaction:ILE:82     -1
Name: 35, dtype: object

>  <halogenbond:ILE:82>  (36) 
halogenbond:ILE:82    NaN
halogenbond:ILE:82     -1
Name: 35, dtype: object

>  <hbond:ILE:82>  (36) 
hbond:ILE:82    NaN
hbond:ILE:82     -1
Name: 35, dtype: object

>  <hbond:PHE:83>  (36) 
hbond:PHE:83    NaN
hbond:PHE:83     -1
Name: 35, dtype: object

>  <hydroph_interaction:PHE:83>  (36) 
hydroph_interaction:PHE:83    NaN
hydroph_interaction:PHE:83     -1
Name: 35, dtype: object

>  <halogenbond:PHE:83>  (36) 
halogenbond:PHE:83    NaN
halogenbond:PHE:83     -1
Name: 35, dtype: object

>  <pistack:PHE:83>  (36) 
pistack:PHE:83    NaN
pistack:PHE:83     -1
Name: 35, dtype: object

>  <pication:PHE:83>  (36) 
pication:PHE:83    NaN
pication:PHE:83     -1
Name: 35, dtype: object

>  <hydroph_interaction:VAL:84>  (36) 
hydroph_interaction:VAL:84    0.0
hydroph_interaction:VAL:84      0
Name: 35, dtype: object

>  <halogenbond:VAL:84>  (36) 
halogenbond:VAL:84    NaN
halogenbond:VAL:84     -1
Name: 35, dtype: object

>  <hbond:VAL:84>  (36) 
hbond:VAL:84    NaN
hbond:VAL:84     -1
Name: 35, dtype: object

>  <hydroph_interaction:GLU:85>  (36) 
hydroph_interaction:GLU:85    0.0
hydroph_interaction:GLU:85      0
Name: 35, dtype: object

>  <hbond:GLU:85>  (36) 
hbond:GLU:85    0.0
hbond:GLU:85      0
Name: 35, dtype: object

>  <halogenbond:GLU:85>  (36) 
halogenbond:GLU:85    NaN
halogenbond:GLU:85     -1
Name: 35, dtype: object

>  <saltbridge:GLU:85>  (36) 
saltbridge:GLU:85    0.0
saltbridge:GLU:85      0
Name: 35, dtype: object

>  <halogenbond:ALA:86>  (36) 
halogenbond:ALA:86    NaN
halogenbond:ALA:86     -1
Name: 35, dtype: object

>  <hbond:ALA:86>  (36) 
hbond:ALA:86    0.0
hbond:ALA:86      0
Name: 35, dtype: object

>  <hydroph_interaction:ALA:86>  (36) 
hydroph_interaction:ALA:86    NaN
hydroph_interaction:ALA:86     -1
Name: 35, dtype: object

>  <hbond:SER:87>  (36) 
hbond:SER:87    0
hbond:SER:87    0
Name: 35, dtype: object

>  <halogenbond:SER:87>  (36) 
halogenbond:SER:87    NaN
halogenbond:SER:87     -1
Name: 35, dtype: object

>  <hbond:GLU:88>  (36) 
hbond:GLU:88    0.0
hbond:GLU:88      0
Name: 35, dtype: object

>  <hydroph_interaction:GLU:88>  (36) 
hydroph_interaction:GLU:88    0.0
hydroph_interaction:GLU:88      0
Name: 35, dtype: object

>  <halogenbond:GLU:88>  (36) 
halogenbond:GLU:88    NaN
halogenbond:GLU:88     -1
Name: 35, dtype: object

>  <saltbridge:GLU:88>  (36) 
saltbridge:GLU:88    NaN
saltbridge:GLU:88     -1
Name: 35, dtype: object

>  <hydroph_interaction:TYR:89>  (36) 
hydroph_interaction:TYR:89    0.0
hydroph_interaction:TYR:89      0
Name: 35, dtype: object

>  <pistack:TYR:89>  (36) 
pistack:TYR:89    0.0
pistack:TYR:89      0
Name: 35, dtype: object

>  <hbond:TYR:89>  (36) 
hbond:TYR:89    0.0
hbond:TYR:89      0
Name: 35, dtype: object

>  <halogenbond:TYR:89>  (36) 
halogenbond:TYR:89    NaN
halogenbond:TYR:89     -1
Name: 35, dtype: object

>  <hydroph_interaction:TYR:90>  (36) 
hydroph_interaction:TYR:90    1.0
hydroph_interaction:TYR:90      1
Name: 35, dtype: object

>  <hbond:TYR:90>  (36) 
hbond:TYR:90    0.0
hbond:TYR:90      0
Name: 35, dtype: object

>  <pistack:TYR:90>  (36) 
pistack:TYR:90    0.0
pistack:TYR:90      0
Name: 35, dtype: object

>  <halogenbond:TYR:90>  (36) 
halogenbond:TYR:90    NaN
halogenbond:TYR:90     -1
Name: 35, dtype: object

>  <pication:TYR:90>  (36) 
pication:TYR:90    NaN
pication:TYR:90     -1
Name: 35, dtype: object

>  <hbond:PRO:91>  (36) 
hbond:PRO:91    NaN
hbond:PRO:91     -1
Name: 35, dtype: object

>  <hydroph_interaction:PRO:91>  (36) 
hydroph_interaction:PRO:91    NaN
hydroph_interaction:PRO:91     -1
Name: 35, dtype: object

>  <halogenbond:PRO:91>  (36) 
halogenbond:PRO:91    NaN
halogenbond:PRO:91     -1
Name: 35, dtype: object

>  <hbond:ALA:92>  (36) 
hbond:ALA:92    NaN
hbond:ALA:92     -1
Name: 35, dtype: object

>  <hydroph_interaction:ALA:92>  (36) 
hydroph_interaction:ALA:92    NaN
hydroph_interaction:ALA:92     -1
Name: 35, dtype: object

>  <saltbridge:ARG:93>  (36) 
saltbridge:ARG:93    NaN
saltbridge:ARG:93     -1
Name: 35, dtype: object

>  <hbond:ARG:93>  (36) 
hbond:ARG:93    0.0
hbond:ARG:93      0
Name: 35, dtype: object

>  <hydroph_interaction:ARG:93>  (36) 
hydroph_interaction:ARG:93    0.0
hydroph_interaction:ARG:93      0
Name: 35, dtype: object

>  <halogenbond:ARG:93>  (36) 
halogenbond:ARG:93    NaN
halogenbond:ARG:93     -1
Name: 35, dtype: object

>  <pication:ARG:93>  (36) 
pication:ARG:93    NaN
pication:ARG:93     -1
Name: 35, dtype: object

>  <hydroph_interaction:TYR:94>  (36) 
hydroph_interaction:TYR:94    NaN
hydroph_interaction:TYR:94     -1
Name: 35, dtype: object

>  <pistack:TYR:94>  (36) 
pistack:TYR:94    NaN
pistack:TYR:94     -1
Name: 35, dtype: object

>  <hbond:TYR:94>  (36) 
hbond:TYR:94    NaN
hbond:TYR:94     -1
Name: 35, dtype: object

>  <hbond:GLN:95>  (36) 
hbond:GLN:95    1.0
hbond:GLN:95      1
Name: 35, dtype: object

>  <hydroph_interaction:GLN:95>  (36) 
hydroph_interaction:GLN:95    0.0
hydroph_interaction:GLN:95      0
Name: 35, dtype: object

>  <halogenbond:GLN:95>  (36) 
halogenbond:GLN:95    NaN
halogenbond:GLN:95     -1
Name: 35, dtype: object

>  <hbond:SER:96>  (36) 
hbond:SER:96    NaN
hbond:SER:96     -1
Name: 35, dtype: object

>  <halogenbond:HIS:97>  (36) 
halogenbond:HIS:97    NaN
halogenbond:HIS:97     -1
Name: 35, dtype: object

>  <hydroph_interaction:LEU:98>  (36) 
hydroph_interaction:LEU:98    NaN
hydroph_interaction:LEU:98     -1
Name: 35, dtype: object

>  <hbond:LEU:98>  (36) 
hbond:LEU:98    NaN
hbond:LEU:98     -1
Name: 35, dtype: object

>  <halogenbond:LEU:98>  (36) 
halogenbond:LEU:98    NaN
halogenbond:LEU:98     -1
Name: 35, dtype: object

>  <hbond:MET:99>  (36) 
hbond:MET:99    NaN
hbond:MET:99     -1
Name: 35, dtype: object

>  <hydroph_interaction:MET:99>  (36) 
hydroph_interaction:MET:99    NaN
hydroph_interaction:MET:99     -1
Name: 35, dtype: object

>  <halogenbond:MET:99>  (36) 
halogenbond:MET:99    NaN
halogenbond:MET:99     -1
Name: 35, dtype: object

>  <hydroph_interaction:LEU:100>  (36) 
hydroph_interaction:LEU:100    NaN
hydroph_interaction:LEU:100     -1
Name: 35, dtype: object

>  <hbond:LEU:100>  (36) 
hbond:LEU:100    NaN
hbond:LEU:100     -1
Name: 35, dtype: object

>  <hbond:ALA:101>  (36) 
hbond:ALA:101    NaN
hbond:ALA:101     -1
Name: 35, dtype: object

>  <hydroph_interaction:ALA:101>  (36) 
hydroph_interaction:ALA:101    NaN
hydroph_interaction:ALA:101     -1
Name: 35, dtype: object

>  <hydroph_interaction:VAL:102>  (36) 
hydroph_interaction:VAL:102    NaN
hydroph_interaction:VAL:102     -1
Name: 35, dtype: object

>  <hbond:VAL:102>  (36) 
hbond:VAL:102    NaN
hbond:VAL:102     -1
Name: 35, dtype: object

>  <hbond:GLY:103>  (36) 
hbond:GLY:103    NaN
hbond:GLY:103     -1
Name: 35, dtype: object

>  <halogenbond:GLY:103>  (36) 
halogenbond:GLY:103    NaN
halogenbond:GLY:103     -1
Name: 35, dtype: object

>  <hbond:HIS:104>  (36) 
hbond:HIS:104    NaN
hbond:HIS:104     -1
Name: 35, dtype: object

>  <saltbridge:HIS:104>  (36) 
saltbridge:HIS:104    NaN
saltbridge:HIS:104     -1
Name: 35, dtype: object

>  <pication:HIS:104>  (36) 
pication:HIS:104    NaN
pication:HIS:104     -1
Name: 35, dtype: object

>  <halogenbond:HIS:104>  (36) 
halogenbond:HIS:104    NaN
halogenbond:HIS:104     -1
Name: 35, dtype: object

>  <hydroph_interaction:HIS:104>  (36) 
hydroph_interaction:HIS:104    NaN
hydroph_interaction:HIS:104     -1
Name: 35, dtype: object

>  <pistack:HIS:104>  (36) 
pistack:HIS:104    NaN
pistack:HIS:104     -1
Name: 35, dtype: object

>  <halogenbond:SER:105>  (36) 
halogenbond:SER:105    0.0
halogenbond:SER:105      0
Name: 35, dtype: object

>  <hbond:SER:105>  (36) 
hbond:SER:105    0.0
hbond:SER:105      0
Name: 35, dtype: object

>  <hbond:GLU:106>  (36) 
hbond:GLU:106    0.0
hbond:GLU:106      0
Name: 35, dtype: object

>  <hydroph_interaction:GLU:106>  (36) 
hydroph_interaction:GLU:106    0.0
hydroph_interaction:GLU:106      0
Name: 35, dtype: object

>  <saltbridge:GLU:106>  (36) 
saltbridge:GLU:106    NaN
saltbridge:GLU:106     -1
Name: 35, dtype: object

>  <halogenbond:GLU:106>  (36) 
halogenbond:GLU:106    NaN
halogenbond:GLU:106     -1
Name: 35, dtype: object

>  <hydroph_interaction:PRO:107>  (36) 
hydroph_interaction:PRO:107    2
hydroph_interaction:PRO:107    2
Name: 35, dtype: object

>  <hbond:PRO:107>  (36) 
hbond:PRO:107    0.0
hbond:PRO:107      0
Name: 35, dtype: object

>  <halogenbond:PRO:107>  (36) 
halogenbond:PRO:107    NaN
halogenbond:PRO:107     -1
Name: 35, dtype: object

>  <hbond:GLY:108>  (36) 
hbond:GLY:108    NaN
hbond:GLY:108     -1
Name: 35, dtype: object

>  <halogenbond:GLY:108>  (36) 
halogenbond:GLY:108    NaN
halogenbond:GLY:108     -1
Name: 35, dtype: object

>  <hbond:ASP:109>  (36) 
hbond:ASP:109    0.0
hbond:ASP:109      0
Name: 35, dtype: object

>  <hydroph_interaction:ASP:109>  (36) 
hydroph_interaction:ASP:109    0.0
hydroph_interaction:ASP:109      0
Name: 35, dtype: object

>  <saltbridge:ASP:109>  (36) 
saltbridge:ASP:109    NaN
saltbridge:ASP:109     -1
Name: 35, dtype: object

>  <halogenbond:CYS:110>  (36) 
halogenbond:CYS:110    NaN
halogenbond:CYS:110     -1
Name: 35, dtype: object

>  <hbond:CYS:110>  (36) 
hbond:CYS:110    0.0
hbond:CYS:110      0
Name: 35, dtype: object

>  <hbond:GLY:111>  (36) 
hbond:GLY:111    NaN
hbond:GLY:111     -1
Name: 35, dtype: object

>  <hbond:GLY:112>  (36) 
hbond:GLY:112    NaN
hbond:GLY:112     -1
Name: 35, dtype: object

>  <hbond:ILE:113>  (36) 
hbond:ILE:113    NaN
hbond:ILE:113     -1
Name: 35, dtype: object

>  <hydroph_interaction:LEU:114>  (36) 
hydroph_interaction:LEU:114    NaN
hydroph_interaction:LEU:114     -1
Name: 35, dtype: object

>  <hbond:LEU:114>  (36) 
hbond:LEU:114    NaN
hbond:LEU:114     -1
Name: 35, dtype: object

>  <hydroph_interaction:ILE:123>  (36) 
hydroph_interaction:ILE:123    NaN
hydroph_interaction:ILE:123     -1
Name: 35, dtype: object

>  <hbond:ILE:123>  (36) 
hbond:ILE:123    NaN
hbond:ILE:123     -1
Name: 35, dtype: object

>  <hydroph_interaction:VAL:124>  (36) 
hydroph_interaction:VAL:124    0.0
hydroph_interaction:VAL:124      0
Name: 35, dtype: object

>  <hbond:VAL:124>  (36) 
hbond:VAL:124    NaN
hbond:VAL:124     -1
Name: 35, dtype: object

>  <halogenbond:VAL:124>  (36) 
halogenbond:VAL:124    NaN
halogenbond:VAL:124     -1
Name: 35, dtype: object

>  <hbond:SER:125>  (36) 
hbond:SER:125    0
hbond:SER:125    0
Name: 35, dtype: object

>  <halogenbond:SER:125>  (36) 
halogenbond:SER:125    0.0
halogenbond:SER:125      0
Name: 35, dtype: object

>  <hydroph_interaction:THR:126>  (36) 
hydroph_interaction:THR:126    0.0
hydroph_interaction:THR:126      0
Name: 35, dtype: object

>  <hbond:THR:126>  (36) 
hbond:THR:126    0.0
hbond:THR:126      0
Name: 35, dtype: object

>  <halogenbond:THR:126>  (36) 
halogenbond:THR:126    NaN
halogenbond:THR:126     -1
Name: 35, dtype: object

>  <hbond:GLY:127>  (36) 
hbond:GLY:127    0
hbond:GLY:127    0
Name: 35, dtype: object

>  <halogenbond:GLY:127>  (36) 
halogenbond:GLY:127    NaN
halogenbond:GLY:127     -1
Name: 35, dtype: object

>  <hydroph_interaction:GLY:127>  (36) 
hydroph_interaction:GLY:127    NaN
hydroph_interaction:GLY:127     -1
Name: 35, dtype: object

>  <hbond:GLY:128>  (36) 
hbond:GLY:128    0.0
hbond:GLY:128      0
Name: 35, dtype: object

>  <halogenbond:GLY:128>  (36) 
halogenbond:GLY:128    NaN
halogenbond:GLY:128     -1
Name: 35, dtype: object

>  <hydroph_interaction:GLY:128>  (36) 
hydroph_interaction:GLY:128    NaN
hydroph_interaction:GLY:128     -1
Name: 35, dtype: object

>  <hbond:ASN:129>  (36) 
hbond:ASN:129    0.0
hbond:ASN:129      0
Name: 35, dtype: object

>  <hydroph_interaction:ASN:129>  (36) 
hydroph_interaction:ASN:129    NaN
hydroph_interaction:ASN:129     -1
Name: 35, dtype: object

>  <halogenbond:ASN:129>  (36) 
halogenbond:ASN:129    NaN
halogenbond:ASN:129     -1
Name: 35, dtype: object

>  <hbond:GLY:130>  (36) 
hbond:GLY:130    NaN
hbond:GLY:130     -1
Name: 35, dtype: object

>  <hbond:LEU:131>  (36) 
hbond:LEU:131    NaN
hbond:LEU:131     -1
Name: 35, dtype: object

>  <hydroph_interaction:LEU:131>  (36) 
hydroph_interaction:LEU:131    NaN
hydroph_interaction:LEU:131     -1
Name: 35, dtype: object

>  <halogenbond:LEU:131>  (36) 
halogenbond:LEU:131    NaN
halogenbond:LEU:131     -1
Name: 35, dtype: object

>  <hydroph_interaction:VAL:132>  (36) 
hydroph_interaction:VAL:132    0.0
hydroph_interaction:VAL:132      0
Name: 35, dtype: object

>  <hbond:VAL:132>  (36) 
hbond:VAL:132    NaN
hbond:VAL:132     -1
Name: 35, dtype: object

>  <hbond:GLY:133>  (36) 
hbond:GLY:133    0.0
hbond:GLY:133      0
Name: 35, dtype: object

>  <halogenbond:GLY:133>  (36) 
halogenbond:GLY:133    NaN
halogenbond:GLY:133     -1
Name: 35, dtype: object

>  <hydroph_interaction:PHE:134>  (36) 
hydroph_interaction:PHE:134    NaN
hydroph_interaction:PHE:134     -1
Name: 35, dtype: object

>  <hbond:PHE:134>  (36) 
hbond:PHE:134    NaN
hbond:PHE:134     -1
Name: 35, dtype: object

>  <pistack:PHE:134>  (36) 
pistack:PHE:134    NaN
pistack:PHE:134     -1
Name: 35, dtype: object

>  <pication:PHE:134>  (36) 
pication:PHE:134    NaN
pication:PHE:134     -1
Name: 35, dtype: object

>  <halogenbond:PHE:134>  (36) 
halogenbond:PHE:134    NaN
halogenbond:PHE:134     -1
Name: 35, dtype: object

>  <hydroph_interaction:ALA:135>  (36) 
hydroph_interaction:ALA:135    NaN
hydroph_interaction:ALA:135     -1
Name: 35, dtype: object

>  <hbond:ALA:135>  (36) 
hbond:ALA:135    NaN
hbond:ALA:135     -1
Name: 35, dtype: object

$$$$
Z1595825242
     RDKit          3D

 25 25  0  0  0  0  0  0  0  0999 V2000
    7.4610   14.8430   25.2420 C   0  0  0  0  0  0  0  0  0  0  0  0
    6.9270   13.2980   26.0250 S   0  0  0  0  0  0  0  0  0  0  0  0
    7.9230   12.1780   25.0070 C   0  0  0  0  0  0  0  0  0  0  0  0
    7.6260   10.7720   25.1530 C   0  0  0  0  0  0  0  0  0  0  0  0
    8.4660    9.8080   24.3010 C   0  0  0  0  0  0  0  0  0  0  0  0
    9.5150   10.3990   23.3970 C   0  0  0  0  0  0  0  0  0  0  0  0
   10.3280    9.4480   22.5710 C   0  0  0  0  0  0  0  0  0  0  0  0
    9.6780   11.7880   23.3720 C   0  0  0  0  0  0  0  0  0  0  0  0
   10.6340   12.3880   22.5710 N   0  0  0  0  0  0  0  0  0  0  0  0
   11.3380   13.4900   22.9220 C   0  0  0  0  0  0  0  0  0  0  0  0
   12.2030   13.8250   21.9320 N   0  0  0  0  0  0  0  0  0  0  0  0
   11.2620   14.1470   23.9520 O   0  0  0  0  0  0  0  0  0  0  0  0
    8.8990   12.6230   24.1540 C   0  0  0  0  0  0  0  0  0  0  0  0
    6.8910   15.6620   25.6090 H   0  0  0  0  0  0  0  0  0  0  0  0
    8.5150   15.0200   25.4780 H   0  0  0  0  0  0  0  0  0  0  0  0
    7.3550   14.7760   24.1580 H   0  0  0  0  0  0  0  0  0  0  0  0
    6.8560   10.3960   25.8240 H   0  0  0  0  0  0  0  0  0  0  0  0
    8.3210    8.7560   24.3360 H   0  0  0  0  0  0  0  0  0  0  0  0
    9.6610    8.7220   22.0970 H   0  0  0  0  0  0  0  0  0  0  0  0
   11.0900    8.8730   23.0900 H   0  0  0  0  0  0  0  0  0  0  0  0
   10.8300   10.0020   21.7850 H   0  0  0  0  0  0  0  0  0  0  0  0
   10.7350   12.1100   21.5980 H   0  0  0  0  0  0  0  0  0  0  0  0
   13.1600   13.7910   22.2690 H   0  0  0  0  0  0  0  0  0  0  0  0
   12.0600   13.2680   21.0880 H   0  0  0  0  0  0  0  0  0  0  0  0
    9.0670   13.6930   24.0990 H   0  0  0  0  0  0  0  0  0  0  0  0
  1  2  1  0
  2  3  1  0
  3  4  2  0
  4  5  1  0
  5  6  2  0
  6  7  1  0
  6  8  1  0
  8  9  1  0
  9 10  1  0
 10 11  1  0
 10 12  2  0
  8 13  2  0
 13  3  1  0
  1 14  1  0
  1 15  1  0
  1 16  1  0
  4 17  1  0
  5 18  1  0
  7 19  1  0
  7 20  1  0
  7 21  1  0
  9 22  1  0
 11 23  1  0
 11 24  1  0
 13 25  1  0
A    1
 C1 
A    2
 S1 
A    3
 C2 
A    4
 C3 
A    5
 C4 
A    6
 C5 
A    7
 C6 
A    8
 C7 
A    9
 N1 
A   10
 C8 
A   11
 N2 
A   12
 O1 
A   13
 C9 
A   14
 H1 
A   15
 H2 
A   16
 H3 
A   17
 H4 
A   18
 H5 
A   19
 H6 
A   20
 H7 
A   21
 H8 
A   22
 H9 
A   23
 H10
A   24
 H11
A   25
 H12
M  END
>  <ref_pdb>  (37) 
x0310_0A

>  <ref_mols>  (37) 
x0310_0A,x0416_0A,x0416_0A

>  <original SMILES>  (37) 
CSc1ccc(C)c(NC(N)=O)c1

>  <rationale>  (37) 
info halogenbond:G127+D39+E85+Q95+E106+E88+T126+P107+H104+Y64+C65+S87+N129+F83+R93+L131+I82+G128+P91+N19+H21+V84+G133+Y90+Y89+H97+L81+F134+L98+R20+G103+S66+S67+S7+G108+R38+V124+M99+S36; hbond:S125+E85+G108+G103+G128+L131+N129+R68+V124+P91+F83+S67+S7+S66+G112+G133+V132+R20+Y89+S77+A135+Y63+A92+A101+M99+F134+L100+I82+Y64+S36+L98+V84+L81+Y94+S80+R38+S37+V102+G8+I123+G111+I113+L114+C65+L22+S96; hydroph_interaction:V84+V124+T126+P107+L22+E85+N129+N19+L40+I123+A135+Q95+I82+L100+L98+L131+F83+R93+V132+Y63+F134+R20+A86+V74+P91+A101+F76+M99+L114+A92+Y94+R68+Y72+Y64+V18+V102+W28+G127+G128+L81; pication:H104+R93+Y63+F134+Y90+R68+F83+R20; pistack:H21+Y89+Y90+H104+F134+Y63+F83+Y94; saltbridge:R93+H104+E106+D109+E85+R68+R20; 

>  <intxn_cluster>  (37) 
-1

>  <intxn_cluster_rank>  (37) 
-1

>  <N_interactions>  (37) 
4

>  <∆∆G>  (37) 
-9.756677

>  <$/mg>  (37) 
0.0

>  <comRMSD>  (37) 
0.828987

>  <N_rotatable_bonds>  (37) 
4

>  <deep_P1_sidechain>  (37) 
nan

>  <farthest_distance_to_substrate>  (37) 
2.453621

>  <hbond:SER:7>  (37) 
hbond:SER:7    NaN
hbond:SER:7     -1
Name: 36, dtype: object

>  <halogenbond:SER:7>  (37) 
halogenbond:SER:7    NaN
halogenbond:SER:7     -1
Name: 36, dtype: object

>  <hbond:GLY:8>  (37) 
hbond:GLY:8    NaN
hbond:GLY:8     -1
Name: 36, dtype: object

>  <hydroph_interaction:VAL:18>  (37) 
hydroph_interaction:VAL:18    NaN
hydroph_interaction:VAL:18     -1
Name: 36, dtype: object

>  <hbond:ASN:19>  (37) 
hbond:ASN:19    0.0
hbond:ASN:19      0
Name: 36, dtype: object

>  <hydroph_interaction:ASN:19>  (37) 
hydroph_interaction:ASN:19    NaN
hydroph_interaction:ASN:19     -1
Name: 36, dtype: object

>  <halogenbond:ASN:19>  (37) 
halogenbond:ASN:19    NaN
halogenbond:ASN:19     -1
Name: 36, dtype: object

>  <hbond:ARG:20>  (37) 
hbond:ARG:20    NaN
hbond:ARG:20     -1
Name: 36, dtype: object

>  <hydroph_interaction:ARG:20>  (37) 
hydroph_interaction:ARG:20    NaN
hydroph_interaction:ARG:20     -1
Name: 36, dtype: object

>  <saltbridge:ARG:20>  (37) 
saltbridge:ARG:20    NaN
saltbridge:ARG:20     -1
Name: 36, dtype: object

>  <halogenbond:ARG:20>  (37) 
halogenbond:ARG:20    NaN
halogenbond:ARG:20     -1
Name: 36, dtype: object

>  <pication:ARG:20>  (37) 
pication:ARG:20    NaN
pication:ARG:20     -1
Name: 36, dtype: object

>  <hbond:HIS:21>  (37) 
hbond:HIS:21    0.0
hbond:HIS:21      0
Name: 36, dtype: object

>  <hydroph_interaction:HIS:21>  (37) 
hydroph_interaction:HIS:21    0.0
hydroph_interaction:HIS:21      0
Name: 36, dtype: object

>  <pistack:HIS:21>  (37) 
pistack:HIS:21    NaN
pistack:HIS:21     -1
Name: 36, dtype: object

>  <pication:HIS:21>  (37) 
pication:HIS:21    0.0
pication:HIS:21      0
Name: 36, dtype: object

>  <saltbridge:HIS:21>  (37) 
saltbridge:HIS:21    0.0
saltbridge:HIS:21      0
Name: 36, dtype: object

>  <halogenbond:HIS:21>  (37) 
halogenbond:HIS:21    NaN
halogenbond:HIS:21     -1
Name: 36, dtype: object

>  <hydroph_interaction:LEU:22>  (37) 
hydroph_interaction:LEU:22    NaN
hydroph_interaction:LEU:22     -1
Name: 36, dtype: object

>  <hbond:LEU:22>  (37) 
hbond:LEU:22    NaN
hbond:LEU:22     -1
Name: 36, dtype: object

>  <hydroph_interaction:TRP:28>  (37) 
hydroph_interaction:TRP:28    NaN
hydroph_interaction:TRP:28     -1
Name: 36, dtype: object

>  <hbond:SER:36>  (37) 
hbond:SER:36    NaN
hbond:SER:36     -1
Name: 36, dtype: object

>  <halogenbond:SER:36>  (37) 
halogenbond:SER:36    NaN
halogenbond:SER:36     -1
Name: 36, dtype: object

>  <hbond:SER:37>  (37) 
hbond:SER:37    NaN
hbond:SER:37     -1
Name: 36, dtype: object

>  <hbond:ARG:38>  (37) 
hbond:ARG:38    NaN
hbond:ARG:38     -1
Name: 36, dtype: object

>  <halogenbond:ARG:38>  (37) 
halogenbond:ARG:38    NaN
halogenbond:ARG:38     -1
Name: 36, dtype: object

>  <saltbridge:ASP:39>  (37) 
saltbridge:ASP:39    0.0
saltbridge:ASP:39      0
Name: 36, dtype: object

>  <halogenbond:ASP:39>  (37) 
halogenbond:ASP:39    NaN
halogenbond:ASP:39     -1
Name: 36, dtype: object

>  <hbond:ASP:39>  (37) 
hbond:ASP:39    0.0
hbond:ASP:39      0
Name: 36, dtype: object

>  <hydroph_interaction:ASP:39>  (37) 
hydroph_interaction:ASP:39    0.0
hydroph_interaction:ASP:39      0
Name: 36, dtype: object

>  <hydroph_interaction:LEU:40>  (37) 
hydroph_interaction:LEU:40    NaN
hydroph_interaction:LEU:40     -1
Name: 36, dtype: object

>  <hydroph_interaction:TYR:63>  (37) 
hydroph_interaction:TYR:63    NaN
hydroph_interaction:TYR:63     -1
Name: 36, dtype: object

>  <hbond:TYR:63>  (37) 
hbond:TYR:63    NaN
hbond:TYR:63     -1
Name: 36, dtype: object

>  <pistack:TYR:63>  (37) 
pistack:TYR:63    NaN
pistack:TYR:63     -1
Name: 36, dtype: object

>  <pication:TYR:63>  (37) 
pication:TYR:63    NaN
pication:TYR:63     -1
Name: 36, dtype: object

>  <halogenbond:TYR:64>  (37) 
halogenbond:TYR:64    NaN
halogenbond:TYR:64     -1
Name: 36, dtype: object

>  <hbond:TYR:64>  (37) 
hbond:TYR:64    NaN
hbond:TYR:64     -1
Name: 36, dtype: object

>  <hydroph_interaction:TYR:64>  (37) 
hydroph_interaction:TYR:64    NaN
hydroph_interaction:TYR:64     -1
Name: 36, dtype: object

>  <halogenbond:CYS:65>  (37) 
halogenbond:CYS:65    NaN
halogenbond:CYS:65     -1
Name: 36, dtype: object

>  <hbond:CYS:65>  (37) 
hbond:CYS:65    NaN
hbond:CYS:65     -1
Name: 36, dtype: object

>  <hbond:SER:66>  (37) 
hbond:SER:66    NaN
hbond:SER:66     -1
Name: 36, dtype: object

>  <halogenbond:SER:66>  (37) 
halogenbond:SER:66    NaN
halogenbond:SER:66     -1
Name: 36, dtype: object

>  <hbond:SER:67>  (37) 
hbond:SER:67    NaN
hbond:SER:67     -1
Name: 36, dtype: object

>  <halogenbond:SER:67>  (37) 
halogenbond:SER:67    NaN
halogenbond:SER:67     -1
Name: 36, dtype: object

>  <hbond:ARG:68>  (37) 
hbond:ARG:68    NaN
hbond:ARG:68     -1
Name: 36, dtype: object

>  <saltbridge:ARG:68>  (37) 
saltbridge:ARG:68    NaN
saltbridge:ARG:68     -1
Name: 36, dtype: object

>  <hydroph_interaction:ARG:68>  (37) 
hydroph_interaction:ARG:68    NaN
hydroph_interaction:ARG:68     -1
Name: 36, dtype: object

>  <pication:ARG:68>  (37) 
pication:ARG:68    NaN
pication:ARG:68     -1
Name: 36, dtype: object

>  <hydroph_interaction:TYR:72>  (37) 
hydroph_interaction:TYR:72    NaN
hydroph_interaction:TYR:72     -1
Name: 36, dtype: object

>  <hydroph_interaction:VAL:74>  (37) 
hydroph_interaction:VAL:74    NaN
hydroph_interaction:VAL:74     -1
Name: 36, dtype: object

>  <hydroph_interaction:PHE:76>  (37) 
hydroph_interaction:PHE:76    NaN
hydroph_interaction:PHE:76     -1
Name: 36, dtype: object

>  <hbond:SER:77>  (37) 
hbond:SER:77    NaN
hbond:SER:77     -1
Name: 36, dtype: object

>  <hbond:SER:80>  (37) 
hbond:SER:80    NaN
hbond:SER:80     -1
Name: 36, dtype: object

>  <hbond:LEU:81>  (37) 
hbond:LEU:81    NaN
hbond:LEU:81     -1
Name: 36, dtype: object

>  <halogenbond:LEU:81>  (37) 
halogenbond:LEU:81    NaN
halogenbond:LEU:81     -1
Name: 36, dtype: object

>  <hydroph_interaction:LEU:81>  (37) 
hydroph_interaction:LEU:81    NaN
hydroph_interaction:LEU:81     -1
Name: 36, dtype: object

>  <hydroph_interaction:ILE:82>  (37) 
hydroph_interaction:ILE:82    NaN
hydroph_interaction:ILE:82     -1
Name: 36, dtype: object

>  <halogenbond:ILE:82>  (37) 
halogenbond:ILE:82    NaN
halogenbond:ILE:82     -1
Name: 36, dtype: object

>  <hbond:ILE:82>  (37) 
hbond:ILE:82    NaN
hbond:ILE:82     -1
Name: 36, dtype: object

>  <hbond:PHE:83>  (37) 
hbond:PHE:83    NaN
hbond:PHE:83     -1
Name: 36, dtype: object

>  <hydroph_interaction:PHE:83>  (37) 
hydroph_interaction:PHE:83    NaN
hydroph_interaction:PHE:83     -1
Name: 36, dtype: object

>  <halogenbond:PHE:83>  (37) 
halogenbond:PHE:83    NaN
halogenbond:PHE:83     -1
Name: 36, dtype: object

>  <pistack:PHE:83>  (37) 
pistack:PHE:83    NaN
pistack:PHE:83     -1
Name: 36, dtype: object

>  <pication:PHE:83>  (37) 
pication:PHE:83    NaN
pication:PHE:83     -1
Name: 36, dtype: object

>  <hydroph_interaction:VAL:84>  (37) 
hydroph_interaction:VAL:84    NaN
hydroph_interaction:VAL:84     -1
Name: 36, dtype: object

>  <halogenbond:VAL:84>  (37) 
halogenbond:VAL:84    NaN
halogenbond:VAL:84     -1
Name: 36, dtype: object

>  <hbond:VAL:84>  (37) 
hbond:VAL:84    NaN
hbond:VAL:84     -1
Name: 36, dtype: object

>  <hydroph_interaction:GLU:85>  (37) 
hydroph_interaction:GLU:85    NaN
hydroph_interaction:GLU:85     -1
Name: 36, dtype: object

>  <hbond:GLU:85>  (37) 
hbond:GLU:85    NaN
hbond:GLU:85     -1
Name: 36, dtype: object

>  <halogenbond:GLU:85>  (37) 
halogenbond:GLU:85    NaN
halogenbond:GLU:85     -1
Name: 36, dtype: object

>  <saltbridge:GLU:85>  (37) 
saltbridge:GLU:85    NaN
saltbridge:GLU:85     -1
Name: 36, dtype: object

>  <halogenbond:ALA:86>  (37) 
halogenbond:ALA:86    0.0
halogenbond:ALA:86      0
Name: 36, dtype: object

>  <hbond:ALA:86>  (37) 
hbond:ALA:86    0.0
hbond:ALA:86      0
Name: 36, dtype: object

>  <hydroph_interaction:ALA:86>  (37) 
hydroph_interaction:ALA:86    NaN
hydroph_interaction:ALA:86     -1
Name: 36, dtype: object

>  <hbond:SER:87>  (37) 
hbond:SER:87    0
hbond:SER:87    0
Name: 36, dtype: object

>  <halogenbond:SER:87>  (37) 
halogenbond:SER:87    NaN
halogenbond:SER:87     -1
Name: 36, dtype: object

>  <hbond:GLU:88>  (37) 
hbond:GLU:88    0.0
hbond:GLU:88      0
Name: 36, dtype: object

>  <hydroph_interaction:GLU:88>  (37) 
hydroph_interaction:GLU:88    0.0
hydroph_interaction:GLU:88      0
Name: 36, dtype: object

>  <halogenbond:GLU:88>  (37) 
halogenbond:GLU:88    NaN
halogenbond:GLU:88     -1
Name: 36, dtype: object

>  <saltbridge:GLU:88>  (37) 
saltbridge:GLU:88    0.0
saltbridge:GLU:88      0
Name: 36, dtype: object

>  <hydroph_interaction:TYR:89>  (37) 
hydroph_interaction:TYR:89    0.0
hydroph_interaction:TYR:89      0
Name: 36, dtype: object

>  <pistack:TYR:89>  (37) 
pistack:TYR:89    NaN
pistack:TYR:89     -1
Name: 36, dtype: object

>  <hbond:TYR:89>  (37) 
hbond:TYR:89    NaN
hbond:TYR:89     -1
Name: 36, dtype: object

>  <halogenbond:TYR:89>  (37) 
halogenbond:TYR:89    NaN
halogenbond:TYR:89     -1
Name: 36, dtype: object

>  <hydroph_interaction:TYR:90>  (37) 
hydroph_interaction:TYR:90    0.0
hydroph_interaction:TYR:90      0
Name: 36, dtype: object

>  <hbond:TYR:90>  (37) 
hbond:TYR:90    0.0
hbond:TYR:90      0
Name: 36, dtype: object

>  <pistack:TYR:90>  (37) 
pistack:TYR:90    NaN
pistack:TYR:90     -1
Name: 36, dtype: object

>  <halogenbond:TYR:90>  (37) 
halogenbond:TYR:90    NaN
halogenbond:TYR:90     -1
Name: 36, dtype: object

>  <pication:TYR:90>  (37) 
pication:TYR:90    NaN
pication:TYR:90     -1
Name: 36, dtype: object

>  <hbond:PRO:91>  (37) 
hbond:PRO:91    NaN
hbond:PRO:91     -1
Name: 36, dtype: object

>  <hydroph_interaction:PRO:91>  (37) 
hydroph_interaction:PRO:91    NaN
hydroph_interaction:PRO:91     -1
Name: 36, dtype: object

>  <halogenbond:PRO:91>  (37) 
halogenbond:PRO:91    NaN
halogenbond:PRO:91     -1
Name: 36, dtype: object

>  <hbond:ALA:92>  (37) 
hbond:ALA:92    NaN
hbond:ALA:92     -1
Name: 36, dtype: object

>  <hydroph_interaction:ALA:92>  (37) 
hydroph_interaction:ALA:92    NaN
hydroph_interaction:ALA:92     -1
Name: 36, dtype: object

>  <saltbridge:ARG:93>  (37) 
saltbridge:ARG:93    NaN
saltbridge:ARG:93     -1
Name: 36, dtype: object

>  <hbond:ARG:93>  (37) 
hbond:ARG:93    0.0
hbond:ARG:93      0
Name: 36, dtype: object

>  <hydroph_interaction:ARG:93>  (37) 
hydroph_interaction:ARG:93    NaN
hydroph_interaction:ARG:93     -1
Name: 36, dtype: object

>  <halogenbond:ARG:93>  (37) 
halogenbond:ARG:93    NaN
halogenbond:ARG:93     -1
Name: 36, dtype: object

>  <pication:ARG:93>  (37) 
pication:ARG:93    NaN
pication:ARG:93     -1
Name: 36, dtype: object

>  <hydroph_interaction:TYR:94>  (37) 
hydroph_interaction:TYR:94    NaN
hydroph_interaction:TYR:94     -1
Name: 36, dtype: object

>  <pistack:TYR:94>  (37) 
pistack:TYR:94    NaN
pistack:TYR:94     -1
Name: 36, dtype: object

>  <hbond:TYR:94>  (37) 
hbond:TYR:94    NaN
hbond:TYR:94     -1
Name: 36, dtype: object

>  <hbond:GLN:95>  (37) 
hbond:GLN:95    0.0
hbond:GLN:95      0
Name: 36, dtype: object

>  <hydroph_interaction:GLN:95>  (37) 
hydroph_interaction:GLN:95    NaN
hydroph_interaction:GLN:95     -1
Name: 36, dtype: object

>  <halogenbond:GLN:95>  (37) 
halogenbond:GLN:95    NaN
halogenbond:GLN:95     -1
Name: 36, dtype: object

>  <hbond:SER:96>  (37) 
hbond:SER:96    NaN
hbond:SER:96     -1
Name: 36, dtype: object

>  <halogenbond:HIS:97>  (37) 
halogenbond:HIS:97    NaN
halogenbond:HIS:97     -1
Name: 36, dtype: object

>  <hydroph_interaction:LEU:98>  (37) 
hydroph_interaction:LEU:98    NaN
hydroph_interaction:LEU:98     -1
Name: 36, dtype: object

>  <hbond:LEU:98>  (37) 
hbond:LEU:98    NaN
hbond:LEU:98     -1
Name: 36, dtype: object

>  <halogenbond:LEU:98>  (37) 
halogenbond:LEU:98    NaN
halogenbond:LEU:98     -1
Name: 36, dtype: object

>  <hbond:MET:99>  (37) 
hbond:MET:99    NaN
hbond:MET:99     -1
Name: 36, dtype: object

>  <hydroph_interaction:MET:99>  (37) 
hydroph_interaction:MET:99    NaN
hydroph_interaction:MET:99     -1
Name: 36, dtype: object

>  <halogenbond:MET:99>  (37) 
halogenbond:MET:99    NaN
halogenbond:MET:99     -1
Name: 36, dtype: object

>  <hydroph_interaction:LEU:100>  (37) 
hydroph_interaction:LEU:100    NaN
hydroph_interaction:LEU:100     -1
Name: 36, dtype: object

>  <hbond:LEU:100>  (37) 
hbond:LEU:100    NaN
hbond:LEU:100     -1
Name: 36, dtype: object

>  <hbond:ALA:101>  (37) 
hbond:ALA:101    NaN
hbond:ALA:101     -1
Name: 36, dtype: object

>  <hydroph_interaction:ALA:101>  (37) 
hydroph_interaction:ALA:101    NaN
hydroph_interaction:ALA:101     -1
Name: 36, dtype: object

>  <hydroph_interaction:VAL:102>  (37) 
hydroph_interaction:VAL:102    NaN
hydroph_interaction:VAL:102     -1
Name: 36, dtype: object

>  <hbond:VAL:102>  (37) 
hbond:VAL:102    NaN
hbond:VAL:102     -1
Name: 36, dtype: object

>  <hbond:GLY:103>  (37) 
hbond:GLY:103    NaN
hbond:GLY:103     -1
Name: 36, dtype: object

>  <halogenbond:GLY:103>  (37) 
halogenbond:GLY:103    NaN
halogenbond:GLY:103     -1
Name: 36, dtype: object

>  <hbond:HIS:104>  (37) 
hbond:HIS:104    0.0
hbond:HIS:104      0
Name: 36, dtype: object

>  <saltbridge:HIS:104>  (37) 
saltbridge:HIS:104    NaN
saltbridge:HIS:104     -1
Name: 36, dtype: object

>  <pication:HIS:104>  (37) 
pication:HIS:104    NaN
pication:HIS:104     -1
Name: 36, dtype: object

>  <halogenbond:HIS:104>  (37) 
halogenbond:HIS:104    NaN
halogenbond:HIS:104     -1
Name: 36, dtype: object

>  <hydroph_interaction:HIS:104>  (37) 
hydroph_interaction:HIS:104    0.0
hydroph_interaction:HIS:104      0
Name: 36, dtype: object

>  <pistack:HIS:104>  (37) 
pistack:HIS:104    NaN
pistack:HIS:104     -1
Name: 36, dtype: object

>  <halogenbond:SER:105>  (37) 
halogenbond:SER:105    0.0
halogenbond:SER:105      0
Name: 36, dtype: object

>  <hbond:SER:105>  (37) 
hbond:SER:105    0.0
hbond:SER:105      0
Name: 36, dtype: object

>  <hbond:GLU:106>  (37) 
hbond:GLU:106    0.0
hbond:GLU:106      0
Name: 36, dtype: object

>  <hydroph_interaction:GLU:106>  (37) 
hydroph_interaction:GLU:106    0.0
hydroph_interaction:GLU:106      0
Name: 36, dtype: object

>  <saltbridge:GLU:106>  (37) 
saltbridge:GLU:106    NaN
saltbridge:GLU:106     -1
Name: 36, dtype: object

>  <halogenbond:GLU:106>  (37) 
halogenbond:GLU:106    NaN
halogenbond:GLU:106     -1
Name: 36, dtype: object

>  <hydroph_interaction:PRO:107>  (37) 
hydroph_interaction:PRO:107    1
hydroph_interaction:PRO:107    1
Name: 36, dtype: object

>  <hbond:PRO:107>  (37) 
hbond:PRO:107    0.0
hbond:PRO:107      0
Name: 36, dtype: object

>  <halogenbond:PRO:107>  (37) 
halogenbond:PRO:107    NaN
halogenbond:PRO:107     -1
Name: 36, dtype: object

>  <hbond:GLY:108>  (37) 
hbond:GLY:108    NaN
hbond:GLY:108     -1
Name: 36, dtype: object

>  <halogenbond:GLY:108>  (37) 
halogenbond:GLY:108    NaN
halogenbond:GLY:108     -1
Name: 36, dtype: object

>  <hbond:ASP:109>  (37) 
hbond:ASP:109    0.0
hbond:ASP:109      0
Name: 36, dtype: object

>  <hydroph_interaction:ASP:109>  (37) 
hydroph_interaction:ASP:109    0.0
hydroph_interaction:ASP:109      0
Name: 36, dtype: object

>  <saltbridge:ASP:109>  (37) 
saltbridge:ASP:109    NaN
saltbridge:ASP:109     -1
Name: 36, dtype: object

>  <halogenbond:CYS:110>  (37) 
halogenbond:CYS:110    0.0
halogenbond:CYS:110      0
Name: 36, dtype: object

>  <hbond:CYS:110>  (37) 
hbond:CYS:110    0.0
hbond:CYS:110      0
Name: 36, dtype: object

>  <hbond:GLY:111>  (37) 
hbond:GLY:111    NaN
hbond:GLY:111     -1
Name: 36, dtype: object

>  <hbond:GLY:112>  (37) 
hbond:GLY:112    NaN
hbond:GLY:112     -1
Name: 36, dtype: object

>  <hbond:ILE:113>  (37) 
hbond:ILE:113    NaN
hbond:ILE:113     -1
Name: 36, dtype: object

>  <hydroph_interaction:LEU:114>  (37) 
hydroph_interaction:LEU:114    NaN
hydroph_interaction:LEU:114     -1
Name: 36, dtype: object

>  <hbond:LEU:114>  (37) 
hbond:LEU:114    NaN
hbond:LEU:114     -1
Name: 36, dtype: object

>  <hydroph_interaction:ILE:123>  (37) 
hydroph_interaction:ILE:123    NaN
hydroph_interaction:ILE:123     -1
Name: 36, dtype: object

>  <hbond:ILE:123>  (37) 
hbond:ILE:123    NaN
hbond:ILE:123     -1
Name: 36, dtype: object

>  <hydroph_interaction:VAL:124>  (37) 
hydroph_interaction:VAL:124    1.0
hydroph_interaction:VAL:124      1
Name: 36, dtype: object

>  <hbond:VAL:124>  (37) 
hbond:VAL:124    NaN
hbond:VAL:124     -1
Name: 36, dtype: object

>  <halogenbond:VAL:124>  (37) 
halogenbond:VAL:124    NaN
halogenbond:VAL:124     -1
Name: 36, dtype: object

>  <hbond:SER:125>  (37) 
hbond:SER:125    2
hbond:SER:125    2
Name: 36, dtype: object

>  <halogenbond:SER:125>  (37) 
halogenbond:SER:125    0.0
halogenbond:SER:125      0
Name: 36, dtype: object

>  <hydroph_interaction:THR:126>  (37) 
hydroph_interaction:THR:126    NaN
hydroph_interaction:THR:126     -1
Name: 36, dtype: object

>  <hbond:THR:126>  (37) 
hbond:THR:126    0.0
hbond:THR:126      0
Name: 36, dtype: object

>  <halogenbond:THR:126>  (37) 
halogenbond:THR:126    NaN
halogenbond:THR:126     -1
Name: 36, dtype: object

>  <hbond:GLY:127>  (37) 
hbond:GLY:127    0
hbond:GLY:127    0
Name: 36, dtype: object

>  <halogenbond:GLY:127>  (37) 
halogenbond:GLY:127    NaN
halogenbond:GLY:127     -1
Name: 36, dtype: object

>  <hydroph_interaction:GLY:127>  (37) 
hydroph_interaction:GLY:127    NaN
hydroph_interaction:GLY:127     -1
Name: 36, dtype: object

>  <hbond:GLY:128>  (37) 
hbond:GLY:128    NaN
hbond:GLY:128     -1
Name: 36, dtype: object

>  <halogenbond:GLY:128>  (37) 
halogenbond:GLY:128    NaN
halogenbond:GLY:128     -1
Name: 36, dtype: object

>  <hydroph_interaction:GLY:128>  (37) 
hydroph_interaction:GLY:128    NaN
hydroph_interaction:GLY:128     -1
Name: 36, dtype: object

>  <hbond:ASN:129>  (37) 
hbond:ASN:129    NaN
hbond:ASN:129     -1
Name: 36, dtype: object

>  <hydroph_interaction:ASN:129>  (37) 
hydroph_interaction:ASN:129    NaN
hydroph_interaction:ASN:129     -1
Name: 36, dtype: object

>  <halogenbond:ASN:129>  (37) 
halogenbond:ASN:129    NaN
halogenbond:ASN:129     -1
Name: 36, dtype: object

>  <hbond:GLY:130>  (37) 
hbond:GLY:130    0.0
hbond:GLY:130      0
Name: 36, dtype: object

>  <hbond:LEU:131>  (37) 
hbond:LEU:131    NaN
hbond:LEU:131     -1
Name: 36, dtype: object

>  <hydroph_interaction:LEU:131>  (37) 
hydroph_interaction:LEU:131    NaN
hydroph_interaction:LEU:131     -1
Name: 36, dtype: object

>  <halogenbond:LEU:131>  (37) 
halogenbond:LEU:131    NaN
halogenbond:LEU:131     -1
Name: 36, dtype: object

>  <hydroph_interaction:VAL:132>  (37) 
hydroph_interaction:VAL:132    NaN
hydroph_interaction:VAL:132     -1
Name: 36, dtype: object

>  <hbond:VAL:132>  (37) 
hbond:VAL:132    NaN
hbond:VAL:132     -1
Name: 36, dtype: object

>  <hbond:GLY:133>  (37) 
hbond:GLY:133    NaN
hbond:GLY:133     -1
Name: 36, dtype: object

>  <halogenbond:GLY:133>  (37) 
halogenbond:GLY:133    NaN
halogenbond:GLY:133     -1
Name: 36, dtype: object

>  <hydroph_interaction:PHE:134>  (37) 
hydroph_interaction:PHE:134    NaN
hydroph_interaction:PHE:134     -1
Name: 36, dtype: object

>  <hbond:PHE:134>  (37) 
hbond:PHE:134    NaN
hbond:PHE:134     -1
Name: 36, dtype: object

>  <pistack:PHE:134>  (37) 
pistack:PHE:134    NaN
pistack:PHE:134     -1
Name: 36, dtype: object

>  <pication:PHE:134>  (37) 
pication:PHE:134    NaN
pication:PHE:134     -1
Name: 36, dtype: object

>  <halogenbond:PHE:134>  (37) 
halogenbond:PHE:134    NaN
halogenbond:PHE:134     -1
Name: 36, dtype: object

>  <hydroph_interaction:ALA:135>  (37) 
hydroph_interaction:ALA:135    NaN
hydroph_interaction:ALA:135     -1
Name: 36, dtype: object

>  <hbond:ALA:135>  (37) 
hbond:ALA:135    NaN
hbond:ALA:135     -1
Name: 36, dtype: object

$$$$
Z4387276072
     RDKit          3D

 31 32  0  0  0  0  0  0  0  0999 V2000
   12.1170   15.9170   21.7960 C   0  0  0  0  0  0  0  0  0  0  0  0
   11.0290   14.8380   21.8040 C   0  0  0  0  0  0  0  0  0  0  0  0
   10.0840   14.6390   20.6070 C   0  0  0  0  0  0  0  0  0  0  0  0
   10.9220   13.9880   23.0100 C   0  0  0  0  0  0  0  0  0  0  0  0
   11.7880   14.2560   24.0740 C   0  0  0  0  0  0  0  0  0  0  0  0
   10.0510   12.7980   23.3780 C   0  0  0  0  0  0  0  0  0  0  0  0
   10.3040   11.6050   22.8560 C   0  0  0  0  0  0  0  0  0  0  0  0
    9.4990   10.6620   23.2930 N   0  0  0  0  0  0  0  0  0  0  0  0
    9.5800    9.3070   22.8930 C   0  0  0  0  0  0  0  0  0  0  0  0
    8.6140   11.2710   24.1830 C   0  0  0  0  0  0  0  0  0  0  0  0
    7.6270   10.6570   24.8600 N   0  0  0  0  0  0  0  0  0  0  0  0
    6.9360   11.5010   25.6410 C   0  0  0  0  0  0  0  0  0  0  0  0
    7.1200   12.8260   25.8110 N   0  0  0  0  0  0  0  0  0  0  0  0
    8.1230   13.3960   25.1160 C   0  0  0  0  0  0  0  0  0  0  0  0
    8.2700   14.7350   25.3280 O   0  0  0  0  0  0  0  0  0  0  0  0
    8.9370   12.6540   24.2570 C   0  0  0  0  0  0  0  0  0  0  0  0
   12.9380   15.6090   21.1410 H   0  0  0  0  0  0  0  0  0  0  0  0
   11.7430   16.8750   21.4250 H   0  0  0  0  0  0  0  0  0  0  0  0
   12.5350   16.0530   22.7980 H   0  0  0  0  0  0  0  0  0  0  0  0
   10.6220   14.1360   19.8020 H   0  0  0  0  0  0  0  0  0  0  0  0
    9.6970   15.5880   20.2210 H   0  0  0  0  0  0  0  0  0  0  0  0
    9.2710   14.0060   20.9500 H   0  0  0  0  0  0  0  0  0  0  0  0
   12.3190   15.1920   23.8850 H   0  0  0  0  0  0  0  0  0  0  0  0
   11.3650   14.3430   25.0730 H   0  0  0  0  0  0  0  0  0  0  0  0
   12.5500   13.4680   24.1270 H   0  0  0  0  0  0  0  0  0  0  0  0
   11.0960   11.4420   22.1550 H   0  0  0  0  0  0  0  0  0  0  0  0
    8.6040    8.8650   22.9910 H   0  0  0  0  0  0  0  0  0  0  0  0
    9.9110    9.2640   21.8590 H   0  0  0  0  0  0  0  0  0  0  0  0
   10.2930    8.8090   23.5280 H   0  0  0  0  0  0  0  0  0  0  0  0
    6.1170   11.0540   26.2150 H   0  0  0  0  0  0  0  0  0  0  0  0
    7.6880   15.0790   24.6200 H   0  0  0  0  0  0  0  0  0  0  0  0
  1  2  1  0
  2  3  1  0
  2  4  2  3
  4  5  1  0
  4  6  1  0
  6  7  2  0
  7  8  1  0
  8  9  1  0
  8 10  1  0
 10 11  2  0
 11 12  1  0
 12 13  2  0
 13 14  1  0
 14 15  1  0
 14 16  2  0
 16  6  1  0
 16 10  1  0
  1 17  1  0
  1 18  1  0
  1 19  1  0
  3 20  1  0
  3 21  1  0
  3 22  1  0
  5 23  1  0
  5 24  1  0
  5 25  1  0
  7 26  1  0
  9 27  1  0
  9 28  1  0
  9 29  1  0
 12 30  1  0
 15 31  1  0
A    1
 C1 
A    2
 C2 
A    3
 C3 
A    4
 C4 
A    5
 C5 
A    6
 C6 
A    7
 C7 
A    8
 N1 
A    9
 C8 
A   10
 C9 
A   11
 N2 
A   12
 C10
A   13
 N3 
A   14
 C11
A   15
 O1 
A   16
 C12
A   17
 H1 
A   18
 H2 
A   19
 H3 
A   20
 H4 
A   21
 H5 
A   22
 H6 
A   23
 H7 
A   24
 H8 
A   25
 H9 
A   26
 H10
A   27
 H11
A   28
 H12
A   29
 H13
A   30
 H14
A   31
 H15
M  END
>  <ref_pdb>  (38) 
x0310_0A

>  <ref_mols>  (38) 
x0451_0A,x0451_0A

>  <original SMILES>  (38) 
CC(C)=C(C)c1cn(C)c2ncnc(O)c12

>  <rationale>  (38) 
info halogenbond:G127+D39+A86+E85+E106+E88+T126+P107+H104+Y64+C65+S87+N129+F83+R93+L131+I82+G128+P91+N19+H21+V84+Y90+Y89+H97+L81+F134+L98+R20+G103+S66+S67+S7+G108+R38+V124+M99+S36; hbond:S105+D39+A86+G108+G103+G128+G130+L131+N129+H104+R68+V124+P91+F83+S67+S7+S66+G112+G133+V132+R20+Y89+S77+A135+Y63+A92+A101+M99+F134+L100+I82+Y64+S36+L98+V84+L81+Y94+S80+R38+S37+V102+G8+I123+G111+I113+L114+C65+L22+S96; hydroph_interaction:Y90+T126+P107+E106+E88+N129+N19+L40+I123+A135+I82+L100+L98+L131+F83+R93+V132+F134+H104+R20+A86+V74+P91+A101+F76+M99+L114+A92+Y94+R68+Y72+Y64+V18+V102+W28+G127+G128+L81; pication:H21+H104+R93+Y63+F134+Y90+R68+F83+R20; pistack:Y89+H104+F134+Y63+F83+Y94; saltbridge:D39+R93+H104+E106+D109+E85+E88+R68+R20; 

>  <intxn_cluster>  (38) 
-1

>  <intxn_cluster_rank>  (38) 
-1

>  <N_interactions>  (38) 
5

>  <∆∆G>  (38) 
-10.388324

>  <$/mg>  (38) 
0.0

>  <comRMSD>  (38) 
0.628822

>  <N_rotatable_bonds>  (38) 
6

>  <deep_P1_sidechain>  (38) 
nan

>  <farthest_distance_to_substrate>  (38) 
2.476397

>  <hbond:SER:7>  (38) 
hbond:SER:7    NaN
hbond:SER:7     -1
Name: 37, dtype: object

>  <halogenbond:SER:7>  (38) 
halogenbond:SER:7    NaN
halogenbond:SER:7     -1
Name: 37, dtype: object

>  <hbond:GLY:8>  (38) 
hbond:GLY:8    NaN
hbond:GLY:8     -1
Name: 37, dtype: object

>  <hydroph_interaction:VAL:18>  (38) 
hydroph_interaction:VAL:18    NaN
hydroph_interaction:VAL:18     -1
Name: 37, dtype: object

>  <hbond:ASN:19>  (38) 
hbond:ASN:19    0.0
hbond:ASN:19      0
Name: 37, dtype: object

>  <hydroph_interaction:ASN:19>  (38) 
hydroph_interaction:ASN:19    NaN
hydroph_interaction:ASN:19     -1
Name: 37, dtype: object

>  <halogenbond:ASN:19>  (38) 
halogenbond:ASN:19    NaN
halogenbond:ASN:19     -1
Name: 37, dtype: object

>  <hbond:ARG:20>  (38) 
hbond:ARG:20    NaN
hbond:ARG:20     -1
Name: 37, dtype: object

>  <hydroph_interaction:ARG:20>  (38) 
hydroph_interaction:ARG:20    NaN
hydroph_interaction:ARG:20     -1
Name: 37, dtype: object

>  <saltbridge:ARG:20>  (38) 
saltbridge:ARG:20    NaN
saltbridge:ARG:20     -1
Name: 37, dtype: object

>  <halogenbond:ARG:20>  (38) 
halogenbond:ARG:20    NaN
halogenbond:ARG:20     -1
Name: 37, dtype: object

>  <pication:ARG:20>  (38) 
pication:ARG:20    NaN
pication:ARG:20     -1
Name: 37, dtype: object

>  <hbond:HIS:21>  (38) 
hbond:HIS:21    0.0
hbond:HIS:21      0
Name: 37, dtype: object

>  <hydroph_interaction:HIS:21>  (38) 
hydroph_interaction:HIS:21    0.0
hydroph_interaction:HIS:21      0
Name: 37, dtype: object

>  <pistack:HIS:21>  (38) 
pistack:HIS:21    0.0
pistack:HIS:21      0
Name: 37, dtype: object

>  <pication:HIS:21>  (38) 
pication:HIS:21    NaN
pication:HIS:21     -1
Name: 37, dtype: object

>  <saltbridge:HIS:21>  (38) 
saltbridge:HIS:21    0.0
saltbridge:HIS:21      0
Name: 37, dtype: object

>  <halogenbond:HIS:21>  (38) 
halogenbond:HIS:21    NaN
halogenbond:HIS:21     -1
Name: 37, dtype: object

>  <hydroph_interaction:LEU:22>  (38) 
hydroph_interaction:LEU:22    0.0
hydroph_interaction:LEU:22      0
Name: 37, dtype: object

>  <hbond:LEU:22>  (38) 
hbond:LEU:22    NaN
hbond:LEU:22     -1
Name: 37, dtype: object

>  <hydroph_interaction:TRP:28>  (38) 
hydroph_interaction:TRP:28    NaN
hydroph_interaction:TRP:28     -1
Name: 37, dtype: object

>  <hbond:SER:36>  (38) 
hbond:SER:36    NaN
hbond:SER:36     -1
Name: 37, dtype: object

>  <halogenbond:SER:36>  (38) 
halogenbond:SER:36    NaN
halogenbond:SER:36     -1
Name: 37, dtype: object

>  <hbond:SER:37>  (38) 
hbond:SER:37    NaN
hbond:SER:37     -1
Name: 37, dtype: object

>  <hbond:ARG:38>  (38) 
hbond:ARG:38    NaN
hbond:ARG:38     -1
Name: 37, dtype: object

>  <halogenbond:ARG:38>  (38) 
halogenbond:ARG:38    NaN
halogenbond:ARG:38     -1
Name: 37, dtype: object

>  <saltbridge:ASP:39>  (38) 
saltbridge:ASP:39    NaN
saltbridge:ASP:39     -1
Name: 37, dtype: object

>  <halogenbond:ASP:39>  (38) 
halogenbond:ASP:39    NaN
halogenbond:ASP:39     -1
Name: 37, dtype: object

>  <hbond:ASP:39>  (38) 
hbond:ASP:39    NaN
hbond:ASP:39     -1
Name: 37, dtype: object

>  <hydroph_interaction:ASP:39>  (38) 
hydroph_interaction:ASP:39    0.0
hydroph_interaction:ASP:39      0
Name: 37, dtype: object

>  <hydroph_interaction:LEU:40>  (38) 
hydroph_interaction:LEU:40    NaN
hydroph_interaction:LEU:40     -1
Name: 37, dtype: object

>  <hydroph_interaction:TYR:63>  (38) 
hydroph_interaction:TYR:63    0.0
hydroph_interaction:TYR:63      0
Name: 37, dtype: object

>  <hbond:TYR:63>  (38) 
hbond:TYR:63    NaN
hbond:TYR:63     -1
Name: 37, dtype: object

>  <pistack:TYR:63>  (38) 
pistack:TYR:63    NaN
pistack:TYR:63     -1
Name: 37, dtype: object

>  <pication:TYR:63>  (38) 
pication:TYR:63    NaN
pication:TYR:63     -1
Name: 37, dtype: object

>  <halogenbond:TYR:64>  (38) 
halogenbond:TYR:64    NaN
halogenbond:TYR:64     -1
Name: 37, dtype: object

>  <hbond:TYR:64>  (38) 
hbond:TYR:64    NaN
hbond:TYR:64     -1
Name: 37, dtype: object

>  <hydroph_interaction:TYR:64>  (38) 
hydroph_interaction:TYR:64    NaN
hydroph_interaction:TYR:64     -1
Name: 37, dtype: object

>  <halogenbond:CYS:65>  (38) 
halogenbond:CYS:65    NaN
halogenbond:CYS:65     -1
Name: 37, dtype: object

>  <hbond:CYS:65>  (38) 
hbond:CYS:65    NaN
hbond:CYS:65     -1
Name: 37, dtype: object

>  <hbond:SER:66>  (38) 
hbond:SER:66    NaN
hbond:SER:66     -1
Name: 37, dtype: object

>  <halogenbond:SER:66>  (38) 
halogenbond:SER:66    NaN
halogenbond:SER:66     -1
Name: 37, dtype: object

>  <hbond:SER:67>  (38) 
hbond:SER:67    NaN
hbond:SER:67     -1
Name: 37, dtype: object

>  <halogenbond:SER:67>  (38) 
halogenbond:SER:67    NaN
halogenbond:SER:67     -1
Name: 37, dtype: object

>  <hbond:ARG:68>  (38) 
hbond:ARG:68    NaN
hbond:ARG:68     -1
Name: 37, dtype: object

>  <saltbridge:ARG:68>  (38) 
saltbridge:ARG:68    NaN
saltbridge:ARG:68     -1
Name: 37, dtype: object

>  <hydroph_interaction:ARG:68>  (38) 
hydroph_interaction:ARG:68    NaN
hydroph_interaction:ARG:68     -1
Name: 37, dtype: object

>  <pication:ARG:68>  (38) 
pication:ARG:68    NaN
pication:ARG:68     -1
Name: 37, dtype: object

>  <hydroph_interaction:TYR:72>  (38) 
hydroph_interaction:TYR:72    NaN
hydroph_interaction:TYR:72     -1
Name: 37, dtype: object

>  <hydroph_interaction:VAL:74>  (38) 
hydroph_interaction:VAL:74    NaN
hydroph_interaction:VAL:74     -1
Name: 37, dtype: object

>  <hydroph_interaction:PHE:76>  (38) 
hydroph_interaction:PHE:76    NaN
hydroph_interaction:PHE:76     -1
Name: 37, dtype: object

>  <hbond:SER:77>  (38) 
hbond:SER:77    NaN
hbond:SER:77     -1
Name: 37, dtype: object

>  <hbond:SER:80>  (38) 
hbond:SER:80    NaN
hbond:SER:80     -1
Name: 37, dtype: object

>  <hbond:LEU:81>  (38) 
hbond:LEU:81    NaN
hbond:LEU:81     -1
Name: 37, dtype: object

>  <halogenbond:LEU:81>  (38) 
halogenbond:LEU:81    NaN
halogenbond:LEU:81     -1
Name: 37, dtype: object

>  <hydroph_interaction:LEU:81>  (38) 
hydroph_interaction:LEU:81    NaN
hydroph_interaction:LEU:81     -1
Name: 37, dtype: object

>  <hydroph_interaction:ILE:82>  (38) 
hydroph_interaction:ILE:82    NaN
hydroph_interaction:ILE:82     -1
Name: 37, dtype: object

>  <halogenbond:ILE:82>  (38) 
halogenbond:ILE:82    NaN
halogenbond:ILE:82     -1
Name: 37, dtype: object

>  <hbond:ILE:82>  (38) 
hbond:ILE:82    NaN
hbond:ILE:82     -1
Name: 37, dtype: object

>  <hbond:PHE:83>  (38) 
hbond:PHE:83    NaN
hbond:PHE:83     -1
Name: 37, dtype: object

>  <hydroph_interaction:PHE:83>  (38) 
hydroph_interaction:PHE:83    NaN
hydroph_interaction:PHE:83     -1
Name: 37, dtype: object

>  <halogenbond:PHE:83>  (38) 
halogenbond:PHE:83    NaN
halogenbond:PHE:83     -1
Name: 37, dtype: object

>  <pistack:PHE:83>  (38) 
pistack:PHE:83    NaN
pistack:PHE:83     -1
Name: 37, dtype: object

>  <pication:PHE:83>  (38) 
pication:PHE:83    NaN
pication:PHE:83     -1
Name: 37, dtype: object

>  <hydroph_interaction:VAL:84>  (38) 
hydroph_interaction:VAL:84    0.0
hydroph_interaction:VAL:84      0
Name: 37, dtype: object

>  <halogenbond:VAL:84>  (38) 
halogenbond:VAL:84    NaN
halogenbond:VAL:84     -1
Name: 37, dtype: object

>  <hbond:VAL:84>  (38) 
hbond:VAL:84    NaN
hbond:VAL:84     -1
Name: 37, dtype: object

>  <hydroph_interaction:GLU:85>  (38) 
hydroph_interaction:GLU:85    0.0
hydroph_interaction:GLU:85      0
Name: 37, dtype: object

>  <hbond:GLU:85>  (38) 
hbond:GLU:85    0.0
hbond:GLU:85      0
Name: 37, dtype: object

>  <halogenbond:GLU:85>  (38) 
halogenbond:GLU:85    NaN
halogenbond:GLU:85     -1
Name: 37, dtype: object

>  <saltbridge:GLU:85>  (38) 
saltbridge:GLU:85    NaN
saltbridge:GLU:85     -1
Name: 37, dtype: object

>  <halogenbond:ALA:86>  (38) 
halogenbond:ALA:86    NaN
halogenbond:ALA:86     -1
Name: 37, dtype: object

>  <hbond:ALA:86>  (38) 
hbond:ALA:86    NaN
hbond:ALA:86     -1
Name: 37, dtype: object

>  <hydroph_interaction:ALA:86>  (38) 
hydroph_interaction:ALA:86    NaN
hydroph_interaction:ALA:86     -1
Name: 37, dtype: object

>  <hbond:SER:87>  (38) 
hbond:SER:87    0
hbond:SER:87    0
Name: 37, dtype: object

>  <halogenbond:SER:87>  (38) 
halogenbond:SER:87    NaN
halogenbond:SER:87     -1
Name: 37, dtype: object

>  <hbond:GLU:88>  (38) 
hbond:GLU:88    0.0
hbond:GLU:88      0
Name: 37, dtype: object

>  <hydroph_interaction:GLU:88>  (38) 
hydroph_interaction:GLU:88    NaN
hydroph_interaction:GLU:88     -1
Name: 37, dtype: object

>  <halogenbond:GLU:88>  (38) 
halogenbond:GLU:88    NaN
halogenbond:GLU:88     -1
Name: 37, dtype: object

>  <saltbridge:GLU:88>  (38) 
saltbridge:GLU:88    NaN
saltbridge:GLU:88     -1
Name: 37, dtype: object

>  <hydroph_interaction:TYR:89>  (38) 
hydroph_interaction:TYR:89    0.0
hydroph_interaction:TYR:89      0
Name: 37, dtype: object

>  <pistack:TYR:89>  (38) 
pistack:TYR:89    NaN
pistack:TYR:89     -1
Name: 37, dtype: object

>  <hbond:TYR:89>  (38) 
hbond:TYR:89    NaN
hbond:TYR:89     -1
Name: 37, dtype: object

>  <halogenbond:TYR:89>  (38) 
halogenbond:TYR:89    NaN
halogenbond:TYR:89     -1
Name: 37, dtype: object

>  <hydroph_interaction:TYR:90>  (38) 
hydroph_interaction:TYR:90    1.0
hydroph_interaction:TYR:90      1
Name: 37, dtype: object

>  <hbond:TYR:90>  (38) 
hbond:TYR:90    0.0
hbond:TYR:90      0
Name: 37, dtype: object

>  <pistack:TYR:90>  (38) 
pistack:TYR:90    0.0
pistack:TYR:90      0
Name: 37, dtype: object

>  <halogenbond:TYR:90>  (38) 
halogenbond:TYR:90    NaN
halogenbond:TYR:90     -1
Name: 37, dtype: object

>  <pication:TYR:90>  (38) 
pication:TYR:90    NaN
pication:TYR:90     -1
Name: 37, dtype: object

>  <hbond:PRO:91>  (38) 
hbond:PRO:91    NaN
hbond:PRO:91     -1
Name: 37, dtype: object

>  <hydroph_interaction:PRO:91>  (38) 
hydroph_interaction:PRO:91    NaN
hydroph_interaction:PRO:91     -1
Name: 37, dtype: object

>  <halogenbond:PRO:91>  (38) 
halogenbond:PRO:91    NaN
halogenbond:PRO:91     -1
Name: 37, dtype: object

>  <hbond:ALA:92>  (38) 
hbond:ALA:92    NaN
hbond:ALA:92     -1
Name: 37, dtype: object

>  <hydroph_interaction:ALA:92>  (38) 
hydroph_interaction:ALA:92    NaN
hydroph_interaction:ALA:92     -1
Name: 37, dtype: object

>  <saltbridge:ARG:93>  (38) 
saltbridge:ARG:93    NaN
saltbridge:ARG:93     -1
Name: 37, dtype: object

>  <hbond:ARG:93>  (38) 
hbond:ARG:93    0.0
hbond:ARG:93      0
Name: 37, dtype: object

>  <hydroph_interaction:ARG:93>  (38) 
hydroph_interaction:ARG:93    NaN
hydroph_interaction:ARG:93     -1
Name: 37, dtype: object

>  <halogenbond:ARG:93>  (38) 
halogenbond:ARG:93    NaN
halogenbond:ARG:93     -1
Name: 37, dtype: object

>  <pication:ARG:93>  (38) 
pication:ARG:93    NaN
pication:ARG:93     -1
Name: 37, dtype: object

>  <hydroph_interaction:TYR:94>  (38) 
hydroph_interaction:TYR:94    NaN
hydroph_interaction:TYR:94     -1
Name: 37, dtype: object

>  <pistack:TYR:94>  (38) 
pistack:TYR:94    NaN
pistack:TYR:94     -1
Name: 37, dtype: object

>  <hbond:TYR:94>  (38) 
hbond:TYR:94    NaN
hbond:TYR:94     -1
Name: 37, dtype: object

>  <hbond:GLN:95>  (38) 
hbond:GLN:95    0.0
hbond:GLN:95      0
Name: 37, dtype: object

>  <hydroph_interaction:GLN:95>  (38) 
hydroph_interaction:GLN:95    0.0
hydroph_interaction:GLN:95      0
Name: 37, dtype: object

>  <halogenbond:GLN:95>  (38) 
halogenbond:GLN:95    0.0
halogenbond:GLN:95      0
Name: 37, dtype: object

>  <hbond:SER:96>  (38) 
hbond:SER:96    NaN
hbond:SER:96     -1
Name: 37, dtype: object

>  <halogenbond:HIS:97>  (38) 
halogenbond:HIS:97    NaN
halogenbond:HIS:97     -1
Name: 37, dtype: object

>  <hydroph_interaction:LEU:98>  (38) 
hydroph_interaction:LEU:98    NaN
hydroph_interaction:LEU:98     -1
Name: 37, dtype: object

>  <hbond:LEU:98>  (38) 
hbond:LEU:98    NaN
hbond:LEU:98     -1
Name: 37, dtype: object

>  <halogenbond:LEU:98>  (38) 
halogenbond:LEU:98    NaN
halogenbond:LEU:98     -1
Name: 37, dtype: object

>  <hbond:MET:99>  (38) 
hbond:MET:99    NaN
hbond:MET:99     -1
Name: 37, dtype: object

>  <hydroph_interaction:MET:99>  (38) 
hydroph_interaction:MET:99    NaN
hydroph_interaction:MET:99     -1
Name: 37, dtype: object

>  <halogenbond:MET:99>  (38) 
halogenbond:MET:99    NaN
halogenbond:MET:99     -1
Name: 37, dtype: object

>  <hydroph_interaction:LEU:100>  (38) 
hydroph_interaction:LEU:100    NaN
hydroph_interaction:LEU:100     -1
Name: 37, dtype: object

>  <hbond:LEU:100>  (38) 
hbond:LEU:100    NaN
hbond:LEU:100     -1
Name: 37, dtype: object

>  <hbond:ALA:101>  (38) 
hbond:ALA:101    NaN
hbond:ALA:101     -1
Name: 37, dtype: object

>  <hydroph_interaction:ALA:101>  (38) 
hydroph_interaction:ALA:101    NaN
hydroph_interaction:ALA:101     -1
Name: 37, dtype: object

>  <hydroph_interaction:VAL:102>  (38) 
hydroph_interaction:VAL:102    NaN
hydroph_interaction:VAL:102     -1
Name: 37, dtype: object

>  <hbond:VAL:102>  (38) 
hbond:VAL:102    NaN
hbond:VAL:102     -1
Name: 37, dtype: object

>  <hbond:GLY:103>  (38) 
hbond:GLY:103    NaN
hbond:GLY:103     -1
Name: 37, dtype: object

>  <halogenbond:GLY:103>  (38) 
halogenbond:GLY:103    NaN
halogenbond:GLY:103     -1
Name: 37, dtype: object

>  <hbond:HIS:104>  (38) 
hbond:HIS:104    NaN
hbond:HIS:104     -1
Name: 37, dtype: object

>  <saltbridge:HIS:104>  (38) 
saltbridge:HIS:104    NaN
saltbridge:HIS:104     -1
Name: 37, dtype: object

>  <pication:HIS:104>  (38) 
pication:HIS:104    NaN
pication:HIS:104     -1
Name: 37, dtype: object

>  <halogenbond:HIS:104>  (38) 
halogenbond:HIS:104    NaN
halogenbond:HIS:104     -1
Name: 37, dtype: object

>  <hydroph_interaction:HIS:104>  (38) 
hydroph_interaction:HIS:104    NaN
hydroph_interaction:HIS:104     -1
Name: 37, dtype: object

>  <pistack:HIS:104>  (38) 
pistack:HIS:104    NaN
pistack:HIS:104     -1
Name: 37, dtype: object

>  <halogenbond:SER:105>  (38) 
halogenbond:SER:105    0.0
halogenbond:SER:105      0
Name: 37, dtype: object

>  <hbond:SER:105>  (38) 
hbond:SER:105    1.0
hbond:SER:105      1
Name: 37, dtype: object

>  <hbond:GLU:106>  (38) 
hbond:GLU:106    0.0
hbond:GLU:106      0
Name: 37, dtype: object

>  <hydroph_interaction:GLU:106>  (38) 
hydroph_interaction:GLU:106    NaN
hydroph_interaction:GLU:106     -1
Name: 37, dtype: object

>  <saltbridge:GLU:106>  (38) 
saltbridge:GLU:106    NaN
saltbridge:GLU:106     -1
Name: 37, dtype: object

>  <halogenbond:GLU:106>  (38) 
halogenbond:GLU:106    NaN
halogenbond:GLU:106     -1
Name: 37, dtype: object

>  <hydroph_interaction:PRO:107>  (38) 
hydroph_interaction:PRO:107    2
hydroph_interaction:PRO:107    2
Name: 37, dtype: object

>  <hbond:PRO:107>  (38) 
hbond:PRO:107    0.0
hbond:PRO:107      0
Name: 37, dtype: object

>  <halogenbond:PRO:107>  (38) 
halogenbond:PRO:107    NaN
halogenbond:PRO:107     -1
Name: 37, dtype: object

>  <hbond:GLY:108>  (38) 
hbond:GLY:108    NaN
hbond:GLY:108     -1
Name: 37, dtype: object

>  <halogenbond:GLY:108>  (38) 
halogenbond:GLY:108    NaN
halogenbond:GLY:108     -1
Name: 37, dtype: object

>  <hbond:ASP:109>  (38) 
hbond:ASP:109    0.0
hbond:ASP:109      0
Name: 37, dtype: object

>  <hydroph_interaction:ASP:109>  (38) 
hydroph_interaction:ASP:109    0.0
hydroph_interaction:ASP:109      0
Name: 37, dtype: object

>  <saltbridge:ASP:109>  (38) 
saltbridge:ASP:109    NaN
saltbridge:ASP:109     -1
Name: 37, dtype: object

>  <halogenbond:CYS:110>  (38) 
halogenbond:CYS:110    0.0
halogenbond:CYS:110      0
Name: 37, dtype: object

>  <hbond:CYS:110>  (38) 
hbond:CYS:110    0.0
hbond:CYS:110      0
Name: 37, dtype: object

>  <hbond:GLY:111>  (38) 
hbond:GLY:111    NaN
hbond:GLY:111     -1
Name: 37, dtype: object

>  <hbond:GLY:112>  (38) 
hbond:GLY:112    NaN
hbond:GLY:112     -1
Name: 37, dtype: object

>  <hbond:ILE:113>  (38) 
hbond:ILE:113    NaN
hbond:ILE:113     -1
Name: 37, dtype: object

>  <hydroph_interaction:LEU:114>  (38) 
hydroph_interaction:LEU:114    NaN
hydroph_interaction:LEU:114     -1
Name: 37, dtype: object

>  <hbond:LEU:114>  (38) 
hbond:LEU:114    NaN
hbond:LEU:114     -1
Name: 37, dtype: object

>  <hydroph_interaction:ILE:123>  (38) 
hydroph_interaction:ILE:123    NaN
hydroph_interaction:ILE:123     -1
Name: 37, dtype: object

>  <hbond:ILE:123>  (38) 
hbond:ILE:123    NaN
hbond:ILE:123     -1
Name: 37, dtype: object

>  <hydroph_interaction:VAL:124>  (38) 
hydroph_interaction:VAL:124    0.0
hydroph_interaction:VAL:124      0
Name: 37, dtype: object

>  <hbond:VAL:124>  (38) 
hbond:VAL:124    NaN
hbond:VAL:124     -1
Name: 37, dtype: object

>  <halogenbond:VAL:124>  (38) 
halogenbond:VAL:124    NaN
halogenbond:VAL:124     -1
Name: 37, dtype: object

>  <hbond:SER:125>  (38) 
hbond:SER:125    0
hbond:SER:125    0
Name: 37, dtype: object

>  <halogenbond:SER:125>  (38) 
halogenbond:SER:125    0.0
halogenbond:SER:125      0
Name: 37, dtype: object

>  <hydroph_interaction:THR:126>  (38) 
hydroph_interaction:THR:126    1.0
hydroph_interaction:THR:126      1
Name: 37, dtype: object

>  <hbond:THR:126>  (38) 
hbond:THR:126    0.0
hbond:THR:126      0
Name: 37, dtype: object

>  <halogenbond:THR:126>  (38) 
halogenbond:THR:126    NaN
halogenbond:THR:126     -1
Name: 37, dtype: object

>  <hbond:GLY:127>  (38) 
hbond:GLY:127    0
hbond:GLY:127    0
Name: 37, dtype: object

>  <halogenbond:GLY:127>  (38) 
halogenbond:GLY:127    NaN
halogenbond:GLY:127     -1
Name: 37, dtype: object

>  <hydroph_interaction:GLY:127>  (38) 
hydroph_interaction:GLY:127    NaN
hydroph_interaction:GLY:127     -1
Name: 37, dtype: object

>  <hbond:GLY:128>  (38) 
hbond:GLY:128    NaN
hbond:GLY:128     -1
Name: 37, dtype: object

>  <halogenbond:GLY:128>  (38) 
halogenbond:GLY:128    NaN
halogenbond:GLY:128     -1
Name: 37, dtype: object

>  <hydroph_interaction:GLY:128>  (38) 
hydroph_interaction:GLY:128    NaN
hydroph_interaction:GLY:128     -1
Name: 37, dtype: object

>  <hbond:ASN:129>  (38) 
hbond:ASN:129    NaN
hbond:ASN:129     -1
Name: 37, dtype: object

>  <hydroph_interaction:ASN:129>  (38) 
hydroph_interaction:ASN:129    NaN
hydroph_interaction:ASN:129     -1
Name: 37, dtype: object

>  <halogenbond:ASN:129>  (38) 
halogenbond:ASN:129    NaN
halogenbond:ASN:129     -1
Name: 37, dtype: object

>  <hbond:GLY:130>  (38) 
hbond:GLY:130    NaN
hbond:GLY:130     -1
Name: 37, dtype: object

>  <hbond:LEU:131>  (38) 
hbond:LEU:131    NaN
hbond:LEU:131     -1
Name: 37, dtype: object

>  <hydroph_interaction:LEU:131>  (38) 
hydroph_interaction:LEU:131    NaN
hydroph_interaction:LEU:131     -1
Name: 37, dtype: object

>  <halogenbond:LEU:131>  (38) 
halogenbond:LEU:131    NaN
halogenbond:LEU:131     -1
Name: 37, dtype: object

>  <hydroph_interaction:VAL:132>  (38) 
hydroph_interaction:VAL:132    NaN
hydroph_interaction:VAL:132     -1
Name: 37, dtype: object

>  <hbond:VAL:132>  (38) 
hbond:VAL:132    NaN
hbond:VAL:132     -1
Name: 37, dtype: object

>  <hbond:GLY:133>  (38) 
hbond:GLY:133    NaN
hbond:GLY:133     -1
Name: 37, dtype: object

>  <halogenbond:GLY:133>  (38) 
halogenbond:GLY:133    0.0
halogenbond:GLY:133      0
Name: 37, dtype: object

>  <hydroph_interaction:PHE:134>  (38) 
hydroph_interaction:PHE:134    NaN
hydroph_interaction:PHE:134     -1
Name: 37, dtype: object

>  <hbond:PHE:134>  (38) 
hbond:PHE:134    NaN
hbond:PHE:134     -1
Name: 37, dtype: object

>  <pistack:PHE:134>  (38) 
pistack:PHE:134    NaN
pistack:PHE:134     -1
Name: 37, dtype: object

>  <pication:PHE:134>  (38) 
pication:PHE:134    NaN
pication:PHE:134     -1
Name: 37, dtype: object

>  <halogenbond:PHE:134>  (38) 
halogenbond:PHE:134    NaN
halogenbond:PHE:134     -1
Name: 37, dtype: object

>  <hydroph_interaction:ALA:135>  (38) 
hydroph_interaction:ALA:135    NaN
hydroph_interaction:ALA:135     -1
Name: 37, dtype: object

>  <hbond:ALA:135>  (38) 
hbond:ALA:135    NaN
hbond:ALA:135     -1
Name: 37, dtype: object

$$$$
PV_003424538380
     RDKit          3D

 26 27  0  0  0  0  0  0  0  0999 V2000
   11.2060   14.8610   24.5980 C   0  0  0  0  0  0  0  0  0  0  0  0
   10.6760   13.9770   23.4750 C   0  0  0  0  0  0  0  0  0  0  0  0
   11.0690   14.4160   22.1010 C   0  0  0  0  0  0  0  0  0  0  0  0
   12.4720   14.5880   22.0990 O   0  0  0  0  0  0  0  0  0  0  0  0
    9.9090   12.7660   23.7180 C   0  0  0  0  0  0  0  0  0  0  0  0
    8.6910   12.6620   24.6160 C   0  0  0  0  0  0  0  0  0  0  0  0
    8.1840   13.7090   25.2470 O   0  0  0  0  0  0  0  0  0  0  0  0
    7.1270   13.0790   25.9070 C   0  0  0  0  0  0  0  0  0  0  0  0
    6.8660   11.5600   25.7550 C   0  0  0  0  0  0  0  0  0  0  0  0
    8.0040   11.5010   24.8710 C   0  0  0  0  0  0  0  0  0  0  0  0
    8.4910   10.3600   24.2360 C   0  0  0  0  0  0  0  0  0  0  0  0
    9.5970   10.3530   23.3640 C   0  0  0  0  0  0  0  0  0  0  0  0
   10.0840    9.1050   22.6820 C   0  0  0  0  0  0  0  0  0  0  0  0
   10.2710   11.5540   23.1240 C   0  0  0  0  0  0  0  0  0  0  0  0
   11.8060   15.7500   24.3720 H   0  0  0  0  0  0  0  0  0  0  0  0
   11.0070   14.6350   25.6450 H   0  0  0  0  0  0  0  0  0  0  0  0
   10.5870   15.3420   21.7830 H   0  0  0  0  0  0  0  0  0  0  0  0
   10.7800   13.6270   21.4070 H   0  0  0  0  0  0  0  0  0  0  0  0
   12.6260   15.5500   22.0600 H   0  0  0  0  0  0  0  0  0  0  0  0
    6.4970   13.6970   26.5320 H   0  0  0  0  0  0  0  0  0  0  0  0
    6.0480   11.7710   26.4290 H   0  0  0  0  0  0  0  0  0  0  0  0
    7.9700    9.4200   24.4320 H   0  0  0  0  0  0  0  0  0  0  0  0
   10.7370    8.5160   23.3280 H   0  0  0  0  0  0  0  0  0  0  0  0
    9.2380    8.4940   22.3720 H   0  0  0  0  0  0  0  0  0  0  0  0
   10.6660    9.3630   21.7930 H   0  0  0  0  0  0  0  0  0  0  0  0
   11.1210   11.5490   22.4570 H   0  0  0  0  0  0  0  0  0  0  0  0
  1  2  2  0
  2  3  1  0
  3  4  1  0
  2  5  1  0
  5  6  2  0
  6  7  1  0
  7  8  1  0
  8  9  2  0
  9 10  1  0
 10 11  2  0
 11 12  1  0
 12 13  1  0
 12 14  2  0
 14  5  1  0
 10  6  1  0
  1 15  1  0
  1 16  1  0
  3 17  1  0
  3 18  1  0
  4 19  1  0
  8 20  1  0
  9 21  1  0
 11 22  1  0
 13 23  1  0
 13 24  1  0
 13 25  1  0
 14 26  1  0
A    1
 C1 
A    2
 C2 
A    3
 C3 
A    4
 O1 
A    5
 C4 
A    6
 C5 
A    7
 O2 
A    8
 C6 
A    9
 C7 
A   10
 C8 
A   11
 C9 
A   12
 C10
A   13
 C11
A   14
 C12
A   15
 H1 
A   16
 H2 
A   17
 H3 
A   18
 H4 
A   19
 H5 
A   20
 H6 
A   21
 H7 
A   22
 H8 
A   23
 H9 
A   24
 H10
A   25
 H11
A   26
 H12
M  END
>  <ref_pdb>  (39) 
x0310_0A

>  <ref_mols>  (39) 
x0554_0A,x0528_0A

>  <original SMILES>  (39) 
C=C(CO)c1cc(C)cc2ccoc12

>  <rationale>  (39) 
info halogenbond:C110+G127+D39+A86+S125+E85+Q95+E106+E88+T126+H104+Y64+C65+S87+N129+F83+L131+I82+G128+P91+H21+V84+G133+Y90+Y89+H97+L81+F134+L98+R20+G103+S66+S67+S7+G108+R38+V124+M99+S36; hbond:H21+T126+D109+G108+G103+G128+G130+L131+N129+H104+R68+V124+P91+F83+S67+S66+G112+G133+V132+S77+A135+Y63+A92+A101+M99+F134+L100+I82+Y64+L98+V84+L81+Y94+S80+R38+S37+V102+G8+I123+G111+I113+L114+C65+L22+S96; hydroph_interaction:V124+P107+N129+L40+I123+A135+I82+L100+L98+L131+F83+V132+Y63+F134+H104+A86+V74+P91+A101+F76+M99+L114+A92+Y94+R68+Y72+Y64+V18+V102+W28+G127+G128+L81; pication:H104+Y63+F134+Y90+R68+F83+R20; pistack:H104+F134+Y63+F83+Y94; saltbridge:H104+E106+D109+E85+E88+R68; 

>  <intxn_cluster>  (39) 
-1

>  <intxn_cluster_rank>  (39) 
-1

>  <N_interactions>  (39) 
4

>  <∆∆G>  (39) 
-9.577371

>  <$/mg>  (39) 
0.0

>  <comRMSD>  (39) 
0.620547

>  <N_rotatable_bonds>  (39) 
4

>  <deep_P1_sidechain>  (39) 
nan

>  <farthest_distance_to_substrate>  (39) 
2.277317

>  <hbond:SER:7>  (39) 
hbond:SER:7    0.0
hbond:SER:7      0
Name: 38, dtype: object

>  <halogenbond:SER:7>  (39) 
halogenbond:SER:7    NaN
halogenbond:SER:7     -1
Name: 38, dtype: object

>  <hbond:GLY:8>  (39) 
hbond:GLY:8    NaN
hbond:GLY:8     -1
Name: 38, dtype: object

>  <hydroph_interaction:VAL:18>  (39) 
hydroph_interaction:VAL:18    NaN
hydroph_interaction:VAL:18     -1
Name: 38, dtype: object

>  <hbond:ASN:19>  (39) 
hbond:ASN:19    0.0
hbond:ASN:19      0
Name: 38, dtype: object

>  <hydroph_interaction:ASN:19>  (39) 
hydroph_interaction:ASN:19    0.0
hydroph_interaction:ASN:19      0
Name: 38, dtype: object

>  <halogenbond:ASN:19>  (39) 
halogenbond:ASN:19    0.0
halogenbond:ASN:19      0
Name: 38, dtype: object

>  <hbond:ARG:20>  (39) 
hbond:ARG:20    0.0
hbond:ARG:20      0
Name: 38, dtype: object

>  <hydroph_interaction:ARG:20>  (39) 
hydroph_interaction:ARG:20    0.0
hydroph_interaction:ARG:20      0
Name: 38, dtype: object

>  <saltbridge:ARG:20>  (39) 
saltbridge:ARG:20    0.0
saltbridge:ARG:20      0
Name: 38, dtype: object

>  <halogenbond:ARG:20>  (39) 
halogenbond:ARG:20    NaN
halogenbond:ARG:20     -1
Name: 38, dtype: object

>  <pication:ARG:20>  (39) 
pication:ARG:20    NaN
pication:ARG:20     -1
Name: 38, dtype: object

>  <hbond:HIS:21>  (39) 
hbond:HIS:21    1.0
hbond:HIS:21      1
Name: 38, dtype: object

>  <hydroph_interaction:HIS:21>  (39) 
hydroph_interaction:HIS:21    0.0
hydroph_interaction:HIS:21      0
Name: 38, dtype: object

>  <pistack:HIS:21>  (39) 
pistack:HIS:21    0.0
pistack:HIS:21      0
Name: 38, dtype: object

>  <pication:HIS:21>  (39) 
pication:HIS:21    0.0
pication:HIS:21      0
Name: 38, dtype: object

>  <saltbridge:HIS:21>  (39) 
saltbridge:HIS:21    0.0
saltbridge:HIS:21      0
Name: 38, dtype: object

>  <halogenbond:HIS:21>  (39) 
halogenbond:HIS:21    NaN
halogenbond:HIS:21     -1
Name: 38, dtype: object

>  <hydroph_interaction:LEU:22>  (39) 
hydroph_interaction:LEU:22    0.0
hydroph_interaction:LEU:22      0
Name: 38, dtype: object

>  <hbond:LEU:22>  (39) 
hbond:LEU:22    NaN
hbond:LEU:22     -1
Name: 38, dtype: object

>  <hydroph_interaction:TRP:28>  (39) 
hydroph_interaction:TRP:28    NaN
hydroph_interaction:TRP:28     -1
Name: 38, dtype: object

>  <hbond:SER:36>  (39) 
hbond:SER:36    0.0
hbond:SER:36      0
Name: 38, dtype: object

>  <halogenbond:SER:36>  (39) 
halogenbond:SER:36    NaN
halogenbond:SER:36     -1
Name: 38, dtype: object

>  <hbond:SER:37>  (39) 
hbond:SER:37    NaN
hbond:SER:37     -1
Name: 38, dtype: object

>  <hbond:ARG:38>  (39) 
hbond:ARG:38    NaN
hbond:ARG:38     -1
Name: 38, dtype: object

>  <halogenbond:ARG:38>  (39) 
halogenbond:ARG:38    NaN
halogenbond:ARG:38     -1
Name: 38, dtype: object

>  <saltbridge:ASP:39>  (39) 
saltbridge:ASP:39    0.0
saltbridge:ASP:39      0
Name: 38, dtype: object

>  <halogenbond:ASP:39>  (39) 
halogenbond:ASP:39    NaN
halogenbond:ASP:39     -1
Name: 38, dtype: object

>  <hbond:ASP:39>  (39) 
hbond:ASP:39    0.0
hbond:ASP:39      0
Name: 38, dtype: object

>  <hydroph_interaction:ASP:39>  (39) 
hydroph_interaction:ASP:39    0.0
hydroph_interaction:ASP:39      0
Name: 38, dtype: object

>  <hydroph_interaction:LEU:40>  (39) 
hydroph_interaction:LEU:40    NaN
hydroph_interaction:LEU:40     -1
Name: 38, dtype: object

>  <hydroph_interaction:TYR:63>  (39) 
hydroph_interaction:TYR:63    NaN
hydroph_interaction:TYR:63     -1
Name: 38, dtype: object

>  <hbond:TYR:63>  (39) 
hbond:TYR:63    NaN
hbond:TYR:63     -1
Name: 38, dtype: object

>  <pistack:TYR:63>  (39) 
pistack:TYR:63    NaN
pistack:TYR:63     -1
Name: 38, dtype: object

>  <pication:TYR:63>  (39) 
pication:TYR:63    NaN
pication:TYR:63     -1
Name: 38, dtype: object

>  <halogenbond:TYR:64>  (39) 
halogenbond:TYR:64    NaN
halogenbond:TYR:64     -1
Name: 38, dtype: object

>  <hbond:TYR:64>  (39) 
hbond:TYR:64    NaN
hbond:TYR:64     -1
Name: 38, dtype: object

>  <hydroph_interaction:TYR:64>  (39) 
hydroph_interaction:TYR:64    NaN
hydroph_interaction:TYR:64     -1
Name: 38, dtype: object

>  <halogenbond:CYS:65>  (39) 
halogenbond:CYS:65    NaN
halogenbond:CYS:65     -1
Name: 38, dtype: object

>  <hbond:CYS:65>  (39) 
hbond:CYS:65    NaN
hbond:CYS:65     -1
Name: 38, dtype: object

>  <hbond:SER:66>  (39) 
hbond:SER:66    NaN
hbond:SER:66     -1
Name: 38, dtype: object

>  <halogenbond:SER:66>  (39) 
halogenbond:SER:66    NaN
halogenbond:SER:66     -1
Name: 38, dtype: object

>  <hbond:SER:67>  (39) 
hbond:SER:67    NaN
hbond:SER:67     -1
Name: 38, dtype: object

>  <halogenbond:SER:67>  (39) 
halogenbond:SER:67    NaN
halogenbond:SER:67     -1
Name: 38, dtype: object

>  <hbond:ARG:68>  (39) 
hbond:ARG:68    NaN
hbond:ARG:68     -1
Name: 38, dtype: object

>  <saltbridge:ARG:68>  (39) 
saltbridge:ARG:68    NaN
saltbridge:ARG:68     -1
Name: 38, dtype: object

>  <hydroph_interaction:ARG:68>  (39) 
hydroph_interaction:ARG:68    NaN
hydroph_interaction:ARG:68     -1
Name: 38, dtype: object

>  <pication:ARG:68>  (39) 
pication:ARG:68    NaN
pication:ARG:68     -1
Name: 38, dtype: object

>  <hydroph_interaction:TYR:72>  (39) 
hydroph_interaction:TYR:72    NaN
hydroph_interaction:TYR:72     -1
Name: 38, dtype: object

>  <hydroph_interaction:VAL:74>  (39) 
hydroph_interaction:VAL:74    NaN
hydroph_interaction:VAL:74     -1
Name: 38, dtype: object

>  <hydroph_interaction:PHE:76>  (39) 
hydroph_interaction:PHE:76    NaN
hydroph_interaction:PHE:76     -1
Name: 38, dtype: object

>  <hbond:SER:77>  (39) 
hbond:SER:77    NaN
hbond:SER:77     -1
Name: 38, dtype: object

>  <hbond:SER:80>  (39) 
hbond:SER:80    NaN
hbond:SER:80     -1
Name: 38, dtype: object

>  <hbond:LEU:81>  (39) 
hbond:LEU:81    NaN
hbond:LEU:81     -1
Name: 38, dtype: object

>  <halogenbond:LEU:81>  (39) 
halogenbond:LEU:81    NaN
halogenbond:LEU:81     -1
Name: 38, dtype: object

>  <hydroph_interaction:LEU:81>  (39) 
hydroph_interaction:LEU:81    NaN
hydroph_interaction:LEU:81     -1
Name: 38, dtype: object

>  <hydroph_interaction:ILE:82>  (39) 
hydroph_interaction:ILE:82    NaN
hydroph_interaction:ILE:82     -1
Name: 38, dtype: object

>  <halogenbond:ILE:82>  (39) 
halogenbond:ILE:82    NaN
halogenbond:ILE:82     -1
Name: 38, dtype: object

>  <hbond:ILE:82>  (39) 
hbond:ILE:82    NaN
hbond:ILE:82     -1
Name: 38, dtype: object

>  <hbond:PHE:83>  (39) 
hbond:PHE:83    NaN
hbond:PHE:83     -1
Name: 38, dtype: object

>  <hydroph_interaction:PHE:83>  (39) 
hydroph_interaction:PHE:83    NaN
hydroph_interaction:PHE:83     -1
Name: 38, dtype: object

>  <halogenbond:PHE:83>  (39) 
halogenbond:PHE:83    NaN
halogenbond:PHE:83     -1
Name: 38, dtype: object

>  <pistack:PHE:83>  (39) 
pistack:PHE:83    NaN
pistack:PHE:83     -1
Name: 38, dtype: object

>  <pication:PHE:83>  (39) 
pication:PHE:83    NaN
pication:PHE:83     -1
Name: 38, dtype: object

>  <hydroph_interaction:VAL:84>  (39) 
hydroph_interaction:VAL:84    0.0
hydroph_interaction:VAL:84      0
Name: 38, dtype: object

>  <halogenbond:VAL:84>  (39) 
halogenbond:VAL:84    NaN
halogenbond:VAL:84     -1
Name: 38, dtype: object

>  <hbond:VAL:84>  (39) 
hbond:VAL:84    NaN
hbond:VAL:84     -1
Name: 38, dtype: object

>  <hydroph_interaction:GLU:85>  (39) 
hydroph_interaction:GLU:85    0.0
hydroph_interaction:GLU:85      0
Name: 38, dtype: object

>  <hbond:GLU:85>  (39) 
hbond:GLU:85    0.0
hbond:GLU:85      0
Name: 38, dtype: object

>  <halogenbond:GLU:85>  (39) 
halogenbond:GLU:85    NaN
halogenbond:GLU:85     -1
Name: 38, dtype: object

>  <saltbridge:GLU:85>  (39) 
saltbridge:GLU:85    NaN
saltbridge:GLU:85     -1
Name: 38, dtype: object

>  <halogenbond:ALA:86>  (39) 
halogenbond:ALA:86    NaN
halogenbond:ALA:86     -1
Name: 38, dtype: object

>  <hbond:ALA:86>  (39) 
hbond:ALA:86    0.0
hbond:ALA:86      0
Name: 38, dtype: object

>  <hydroph_interaction:ALA:86>  (39) 
hydroph_interaction:ALA:86    NaN
hydroph_interaction:ALA:86     -1
Name: 38, dtype: object

>  <hbond:SER:87>  (39) 
hbond:SER:87    0
hbond:SER:87    0
Name: 38, dtype: object

>  <halogenbond:SER:87>  (39) 
halogenbond:SER:87    NaN
halogenbond:SER:87     -1
Name: 38, dtype: object

>  <hbond:GLU:88>  (39) 
hbond:GLU:88    0.0
hbond:GLU:88      0
Name: 38, dtype: object

>  <hydroph_interaction:GLU:88>  (39) 
hydroph_interaction:GLU:88    0.0
hydroph_interaction:GLU:88      0
Name: 38, dtype: object

>  <halogenbond:GLU:88>  (39) 
halogenbond:GLU:88    NaN
halogenbond:GLU:88     -1
Name: 38, dtype: object

>  <saltbridge:GLU:88>  (39) 
saltbridge:GLU:88    NaN
saltbridge:GLU:88     -1
Name: 38, dtype: object

>  <hydroph_interaction:TYR:89>  (39) 
hydroph_interaction:TYR:89    0.0
hydroph_interaction:TYR:89      0
Name: 38, dtype: object

>  <pistack:TYR:89>  (39) 
pistack:TYR:89    0.0
pistack:TYR:89      0
Name: 38, dtype: object

>  <hbond:TYR:89>  (39) 
hbond:TYR:89    0.0
hbond:TYR:89      0
Name: 38, dtype: object

>  <halogenbond:TYR:89>  (39) 
halogenbond:TYR:89    NaN
halogenbond:TYR:89     -1
Name: 38, dtype: object

>  <hydroph_interaction:TYR:90>  (39) 
hydroph_interaction:TYR:90    0.0
hydroph_interaction:TYR:90      0
Name: 38, dtype: object

>  <hbond:TYR:90>  (39) 
hbond:TYR:90    0.0
hbond:TYR:90      0
Name: 38, dtype: object

>  <pistack:TYR:90>  (39) 
pistack:TYR:90    0.0
pistack:TYR:90      0
Name: 38, dtype: object

>  <halogenbond:TYR:90>  (39) 
halogenbond:TYR:90    NaN
halogenbond:TYR:90     -1
Name: 38, dtype: object

>  <pication:TYR:90>  (39) 
pication:TYR:90    NaN
pication:TYR:90     -1
Name: 38, dtype: object

>  <hbond:PRO:91>  (39) 
hbond:PRO:91    NaN
hbond:PRO:91     -1
Name: 38, dtype: object

>  <hydroph_interaction:PRO:91>  (39) 
hydroph_interaction:PRO:91    NaN
hydroph_interaction:PRO:91     -1
Name: 38, dtype: object

>  <halogenbond:PRO:91>  (39) 
halogenbond:PRO:91    NaN
halogenbond:PRO:91     -1
Name: 38, dtype: object

>  <hbond:ALA:92>  (39) 
hbond:ALA:92    NaN
hbond:ALA:92     -1
Name: 38, dtype: object

>  <hydroph_interaction:ALA:92>  (39) 
hydroph_interaction:ALA:92    NaN
hydroph_interaction:ALA:92     -1
Name: 38, dtype: object

>  <saltbridge:ARG:93>  (39) 
saltbridge:ARG:93    0.0
saltbridge:ARG:93      0
Name: 38, dtype: object

>  <hbond:ARG:93>  (39) 
hbond:ARG:93    0.0
hbond:ARG:93      0
Name: 38, dtype: object

>  <hydroph_interaction:ARG:93>  (39) 
hydroph_interaction:ARG:93    0.0
hydroph_interaction:ARG:93      0
Name: 38, dtype: object

>  <halogenbond:ARG:93>  (39) 
halogenbond:ARG:93    0.0
halogenbond:ARG:93      0
Name: 38, dtype: object

>  <pication:ARG:93>  (39) 
pication:ARG:93    0.0
pication:ARG:93      0
Name: 38, dtype: object

>  <hydroph_interaction:TYR:94>  (39) 
hydroph_interaction:TYR:94    NaN
hydroph_interaction:TYR:94     -1
Name: 38, dtype: object

>  <pistack:TYR:94>  (39) 
pistack:TYR:94    NaN
pistack:TYR:94     -1
Name: 38, dtype: object

>  <hbond:TYR:94>  (39) 
hbond:TYR:94    NaN
hbond:TYR:94     -1
Name: 38, dtype: object

>  <hbond:GLN:95>  (39) 
hbond:GLN:95    0.0
hbond:GLN:95      0
Name: 38, dtype: object

>  <hydroph_interaction:GLN:95>  (39) 
hydroph_interaction:GLN:95    0.0
hydroph_interaction:GLN:95      0
Name: 38, dtype: object

>  <halogenbond:GLN:95>  (39) 
halogenbond:GLN:95    NaN
halogenbond:GLN:95     -1
Name: 38, dtype: object

>  <hbond:SER:96>  (39) 
hbond:SER:96    NaN
hbond:SER:96     -1
Name: 38, dtype: object

>  <halogenbond:HIS:97>  (39) 
halogenbond:HIS:97    NaN
halogenbond:HIS:97     -1
Name: 38, dtype: object

>  <hydroph_interaction:LEU:98>  (39) 
hydroph_interaction:LEU:98    NaN
hydroph_interaction:LEU:98     -1
Name: 38, dtype: object

>  <hbond:LEU:98>  (39) 
hbond:LEU:98    NaN
hbond:LEU:98     -1
Name: 38, dtype: object

>  <halogenbond:LEU:98>  (39) 
halogenbond:LEU:98    NaN
halogenbond:LEU:98     -1
Name: 38, dtype: object

>  <hbond:MET:99>  (39) 
hbond:MET:99    NaN
hbond:MET:99     -1
Name: 38, dtype: object

>  <hydroph_interaction:MET:99>  (39) 
hydroph_interaction:MET:99    NaN
hydroph_interaction:MET:99     -1
Name: 38, dtype: object

>  <halogenbond:MET:99>  (39) 
halogenbond:MET:99    NaN
halogenbond:MET:99     -1
Name: 38, dtype: object

>  <hydroph_interaction:LEU:100>  (39) 
hydroph_interaction:LEU:100    NaN
hydroph_interaction:LEU:100     -1
Name: 38, dtype: object

>  <hbond:LEU:100>  (39) 
hbond:LEU:100    NaN
hbond:LEU:100     -1
Name: 38, dtype: object

>  <hbond:ALA:101>  (39) 
hbond:ALA:101    NaN
hbond:ALA:101     -1
Name: 38, dtype: object

>  <hydroph_interaction:ALA:101>  (39) 
hydroph_interaction:ALA:101    NaN
hydroph_interaction:ALA:101     -1
Name: 38, dtype: object

>  <hydroph_interaction:VAL:102>  (39) 
hydroph_interaction:VAL:102    NaN
hydroph_interaction:VAL:102     -1
Name: 38, dtype: object

>  <hbond:VAL:102>  (39) 
hbond:VAL:102    NaN
hbond:VAL:102     -1
Name: 38, dtype: object

>  <hbond:GLY:103>  (39) 
hbond:GLY:103    NaN
hbond:GLY:103     -1
Name: 38, dtype: object

>  <halogenbond:GLY:103>  (39) 
halogenbond:GLY:103    NaN
halogenbond:GLY:103     -1
Name: 38, dtype: object

>  <hbond:HIS:104>  (39) 
hbond:HIS:104    NaN
hbond:HIS:104     -1
Name: 38, dtype: object

>  <saltbridge:HIS:104>  (39) 
saltbridge:HIS:104    NaN
saltbridge:HIS:104     -1
Name: 38, dtype: object

>  <pication:HIS:104>  (39) 
pication:HIS:104    NaN
pication:HIS:104     -1
Name: 38, dtype: object

>  <halogenbond:HIS:104>  (39) 
halogenbond:HIS:104    NaN
halogenbond:HIS:104     -1
Name: 38, dtype: object

>  <hydroph_interaction:HIS:104>  (39) 
hydroph_interaction:HIS:104    NaN
hydroph_interaction:HIS:104     -1
Name: 38, dtype: object

>  <pistack:HIS:104>  (39) 
pistack:HIS:104    NaN
pistack:HIS:104     -1
Name: 38, dtype: object

>  <halogenbond:SER:105>  (39) 
halogenbond:SER:105    0.0
halogenbond:SER:105      0
Name: 38, dtype: object

>  <hbond:SER:105>  (39) 
hbond:SER:105    0.0
hbond:SER:105      0
Name: 38, dtype: object

>  <hbond:GLU:106>  (39) 
hbond:GLU:106    0.0
hbond:GLU:106      0
Name: 38, dtype: object

>  <hydroph_interaction:GLU:106>  (39) 
hydroph_interaction:GLU:106    0.0
hydroph_interaction:GLU:106      0
Name: 38, dtype: object

>  <saltbridge:GLU:106>  (39) 
saltbridge:GLU:106    NaN
saltbridge:GLU:106     -1
Name: 38, dtype: object

>  <halogenbond:GLU:106>  (39) 
halogenbond:GLU:106    NaN
halogenbond:GLU:106     -1
Name: 38, dtype: object

>  <hydroph_interaction:PRO:107>  (39) 
hydroph_interaction:PRO:107    2
hydroph_interaction:PRO:107    2
Name: 38, dtype: object

>  <hbond:PRO:107>  (39) 
hbond:PRO:107    0.0
hbond:PRO:107      0
Name: 38, dtype: object

>  <halogenbond:PRO:107>  (39) 
halogenbond:PRO:107    0.0
halogenbond:PRO:107      0
Name: 38, dtype: object

>  <hbond:GLY:108>  (39) 
hbond:GLY:108    NaN
hbond:GLY:108     -1
Name: 38, dtype: object

>  <halogenbond:GLY:108>  (39) 
halogenbond:GLY:108    NaN
halogenbond:GLY:108     -1
Name: 38, dtype: object

>  <hbond:ASP:109>  (39) 
hbond:ASP:109    NaN
hbond:ASP:109     -1
Name: 38, dtype: object

>  <hydroph_interaction:ASP:109>  (39) 
hydroph_interaction:ASP:109    0.0
hydroph_interaction:ASP:109      0
Name: 38, dtype: object

>  <saltbridge:ASP:109>  (39) 
saltbridge:ASP:109    NaN
saltbridge:ASP:109     -1
Name: 38, dtype: object

>  <halogenbond:CYS:110>  (39) 
halogenbond:CYS:110    NaN
halogenbond:CYS:110     -1
Name: 38, dtype: object

>  <hbond:CYS:110>  (39) 
hbond:CYS:110    0.0
hbond:CYS:110      0
Name: 38, dtype: object

>  <hbond:GLY:111>  (39) 
hbond:GLY:111    NaN
hbond:GLY:111     -1
Name: 38, dtype: object

>  <hbond:GLY:112>  (39) 
hbond:GLY:112    NaN
hbond:GLY:112     -1
Name: 38, dtype: object

>  <hbond:ILE:113>  (39) 
hbond:ILE:113    NaN
hbond:ILE:113     -1
Name: 38, dtype: object

>  <hydroph_interaction:LEU:114>  (39) 
hydroph_interaction:LEU:114    NaN
hydroph_interaction:LEU:114     -1
Name: 38, dtype: object

>  <hbond:LEU:114>  (39) 
hbond:LEU:114    NaN
hbond:LEU:114     -1
Name: 38, dtype: object

>  <hydroph_interaction:ILE:123>  (39) 
hydroph_interaction:ILE:123    NaN
hydroph_interaction:ILE:123     -1
Name: 38, dtype: object

>  <hbond:ILE:123>  (39) 
hbond:ILE:123    NaN
hbond:ILE:123     -1
Name: 38, dtype: object

>  <hydroph_interaction:VAL:124>  (39) 
hydroph_interaction:VAL:124    1.0
hydroph_interaction:VAL:124      1
Name: 38, dtype: object

>  <hbond:VAL:124>  (39) 
hbond:VAL:124    NaN
hbond:VAL:124     -1
Name: 38, dtype: object

>  <halogenbond:VAL:124>  (39) 
halogenbond:VAL:124    NaN
halogenbond:VAL:124     -1
Name: 38, dtype: object

>  <hbond:SER:125>  (39) 
hbond:SER:125    0
hbond:SER:125    0
Name: 38, dtype: object

>  <halogenbond:SER:125>  (39) 
halogenbond:SER:125    NaN
halogenbond:SER:125     -1
Name: 38, dtype: object

>  <hydroph_interaction:THR:126>  (39) 
hydroph_interaction:THR:126    0.0
hydroph_interaction:THR:126      0
Name: 38, dtype: object

>  <hbond:THR:126>  (39) 
hbond:THR:126    NaN
hbond:THR:126     -1
Name: 38, dtype: object

>  <halogenbond:THR:126>  (39) 
halogenbond:THR:126    NaN
halogenbond:THR:126     -1
Name: 38, dtype: object

>  <hbond:GLY:127>  (39) 
hbond:GLY:127    0
hbond:GLY:127    0
Name: 38, dtype: object

>  <halogenbond:GLY:127>  (39) 
halogenbond:GLY:127    NaN
halogenbond:GLY:127     -1
Name: 38, dtype: object

>  <hydroph_interaction:GLY:127>  (39) 
hydroph_interaction:GLY:127    NaN
hydroph_interaction:GLY:127     -1
Name: 38, dtype: object

>  <hbond:GLY:128>  (39) 
hbond:GLY:128    NaN
hbond:GLY:128     -1
Name: 38, dtype: object

>  <halogenbond:GLY:128>  (39) 
halogenbond:GLY:128    NaN
halogenbond:GLY:128     -1
Name: 38, dtype: object

>  <hydroph_interaction:GLY:128>  (39) 
hydroph_interaction:GLY:128    NaN
hydroph_interaction:GLY:128     -1
Name: 38, dtype: object

>  <hbond:ASN:129>  (39) 
hbond:ASN:129    NaN
hbond:ASN:129     -1
Name: 38, dtype: object

>  <hydroph_interaction:ASN:129>  (39) 
hydroph_interaction:ASN:129    NaN
hydroph_interaction:ASN:129     -1
Name: 38, dtype: object

>  <halogenbond:ASN:129>  (39) 
halogenbond:ASN:129    NaN
halogenbond:ASN:129     -1
Name: 38, dtype: object

>  <hbond:GLY:130>  (39) 
hbond:GLY:130    NaN
hbond:GLY:130     -1
Name: 38, dtype: object

>  <hbond:LEU:131>  (39) 
hbond:LEU:131    NaN
hbond:LEU:131     -1
Name: 38, dtype: object

>  <hydroph_interaction:LEU:131>  (39) 
hydroph_interaction:LEU:131    NaN
hydroph_interaction:LEU:131     -1
Name: 38, dtype: object

>  <halogenbond:LEU:131>  (39) 
halogenbond:LEU:131    NaN
halogenbond:LEU:131     -1
Name: 38, dtype: object

>  <hydroph_interaction:VAL:132>  (39) 
hydroph_interaction:VAL:132    NaN
hydroph_interaction:VAL:132     -1
Name: 38, dtype: object

>  <hbond:VAL:132>  (39) 
hbond:VAL:132    NaN
hbond:VAL:132     -1
Name: 38, dtype: object

>  <hbond:GLY:133>  (39) 
hbond:GLY:133    NaN
hbond:GLY:133     -1
Name: 38, dtype: object

>  <halogenbond:GLY:133>  (39) 
halogenbond:GLY:133    NaN
halogenbond:GLY:133     -1
Name: 38, dtype: object

>  <hydroph_interaction:PHE:134>  (39) 
hydroph_interaction:PHE:134    NaN
hydroph_interaction:PHE:134     -1
Name: 38, dtype: object

>  <hbond:PHE:134>  (39) 
hbond:PHE:134    NaN
hbond:PHE:134     -1
Name: 38, dtype: object

>  <pistack:PHE:134>  (39) 
pistack:PHE:134    NaN
pistack:PHE:134     -1
Name: 38, dtype: object

>  <pication:PHE:134>  (39) 
pication:PHE:134    NaN
pication:PHE:134     -1
Name: 38, dtype: object

>  <halogenbond:PHE:134>  (39) 
halogenbond:PHE:134    NaN
halogenbond:PHE:134     -1
Name: 38, dtype: object

>  <hydroph_interaction:ALA:135>  (39) 
hydroph_interaction:ALA:135    NaN
hydroph_interaction:ALA:135     -1
Name: 38, dtype: object

>  <hbond:ALA:135>  (39) 
hbond:ALA:135    NaN
hbond:ALA:135     -1
Name: 38, dtype: object

$$$$
PV_002932104261
     RDKit          3D

 29 29  0  0  0  0  0  0  0  0999 V2000
   12.1580   15.4120   21.9220 C   0  0  0  0  0  0  0  0  0  0  0  0
   11.5310   14.3400   22.7680 C   0  0  0  0  0  0  0  0  0  0  0  0
   12.0300   14.0240   24.0950 C   0  0  0  0  0  0  0  0  0  0  0  0
   10.4850   13.6130   22.3490 C   0  0  0  0  0  0  0  0  0  0  0  0
    9.7840   12.4960   23.0650 C   0  0  0  0  0  0  0  0  0  0  0  0
   10.2080   11.2410   22.7320 C   0  0  0  0  0  0  0  0  0  0  0  0
    9.6170   10.0560   23.3410 C   0  0  0  0  0  0  0  0  0  0  0  0
   10.0560    8.8270   22.9860 C   0  0  0  0  0  0  0  0  0  0  0  0
    8.6070   10.2440   24.2810 C   0  0  0  0  0  0  0  0  0  0  0  0
    8.1810   11.5360   24.6160 C   0  0  0  0  0  0  0  0  0  0  0  0
    7.0710   11.5930   25.6520 C   0  0  0  0  0  0  0  0  0  0  0  0
    8.7640   12.6560   24.0120 C   0  0  0  0  0  0  0  0  0  0  0  0
    8.3480   13.9210   24.3310 O   0  0  0  0  0  0  0  0  0  0  0  0
   11.5190   15.6900   21.0800 H   0  0  0  0  0  0  0  0  0  0  0  0
   13.1080   15.0460   21.5190 H   0  0  0  0  0  0  0  0  0  0  0  0
   12.3420   16.2980   22.5390 H   0  0  0  0  0  0  0  0  0  0  0  0
   12.8140   13.2920   24.2300 H   0  0  0  0  0  0  0  0  0  0  0  0
   12.4040   14.9380   24.5790 H   0  0  0  0  0  0  0  0  0  0  0  0
   11.1840   13.6880   24.6960 H   0  0  0  0  0  0  0  0  0  0  0  0
   10.0310   13.7780   21.3640 H   0  0  0  0  0  0  0  0  0  0  0  0
   10.9840   11.1520   22.0100 H   0  0  0  0  0  0  0  0  0  0  0  0
    9.8760    8.1850   23.8240 H   0  0  0  0  0  0  0  0  0  0  0  0
   11.1450    8.8590   22.8860 H   0  0  0  0  0  0  0  0  0  0  0  0
    9.6780    8.3180   22.1090 H   0  0  0  0  0  0  0  0  0  0  0  0
    8.1530    9.3860   24.7480 H   0  0  0  0  0  0  0  0  0  0  0  0
    7.3770   12.1710   26.5280 H   0  0  0  0  0  0  0  0  0  0  0  0
    6.1720   12.0700   25.2540 H   0  0  0  0  0  0  0  0  0  0  0  0
    6.8000   10.5790   25.9600 H   0  0  0  0  0  0  0  0  0  0  0  0
    7.4670   13.8720   24.7320 H   0  0  0  0  0  0  0  0  0  0  0  0
  1  2  1  0
  2  3  1  0
  2  4  2  3
  4  5  1  0
  5  6  2  0
  6  7  1  0
  7  8  1  0
  7  9  2  0
  9 10  1  0
 10 11  1  0
 10 12  2  0
 12 13  1  0
 12  5  1  0
  1 14  1  0
  1 15  1  0
  1 16  1  0
  3 17  1  0
  3 18  1  0
  3 19  1  0
  4 20  1  0
  6 21  1  0
  8 22  1  0
  8 23  1  0
  8 24  1  0
  9 25  1  0
 11 26  1  0
 11 27  1  0
 11 28  1  0
 13 29  1  0
A    1
 C1 
A    2
 C2 
A    3
 C3 
A    4
 C4 
A    5
 C5 
A    6
 C6 
A    7
 C7 
A    8
 C8 
A    9
 C9 
A   10
 C10
A   11
 C11
A   12
 C12
A   13
 O1 
A   14
 H1 
A   15
 H2 
A   16
 H3 
A   17
 H4 
A   18
 H5 
A   19
 H6 
A   20
 H7 
A   21
 H8 
A   22
 H9 
A   23
 H10
A   24
 H11
A   25
 H12
A   26
 H13
A   27
 H14
A   28
 H15
A   29
 H16
M  END
>  <ref_pdb>  (40) 
x0310_0A

>  <ref_mols>  (40) 
x0554_0A,x0739_0A

>  <original SMILES>  (40) 
CC(C)=Cc1cc(C)cc(C)c1O

>  <rationale>  (40) 
info halogenbond:C110+G127+A86+S125+E85+Q95+E106+E88+T126+P107+H104+Y64+C65+S87+N129+F83+R93+L131+I82+G128+P91+N19+H21+V84+G133+Y90+Y89+H97+L81+F134+L98+R20+G103+S66+S67+S7+G108+R38+V124+M99+S36; hbond:Q95+D39+A86+C110+D109+E85+G108+G103+G128+G130+L131+N129+N19+H104+R68+V124+P91+F83+S67+S7+S66+G112+G133+V132+R20+Y89+S77+A135+Y63+A92+A101+M99+F134+L100+I82+Y64+S36+L98+V84+L81+Y94+S80+R38+S37+V102+G8+I123+G111+I113+L114+C65+L22+S96; hydroph_interaction:V84+V124+P107+E85+E88+D109+N129+L40+I123+A135+Q95+I82+L100+L98+L131+F83+R93+V132+Y63+F134+H104+R20+A86+V74+P91+A101+F76+M99+L114+A92+Y94+R68+Y72+Y64+V18+V102+W28+G127+G128+L81; pication:H104+R93+Y63+F134+Y90+R68+F83+R20; pistack:H21+Y89+Y90+H104+F134+Y63+F83+Y94; saltbridge:D39+R93+H104+E106+D109+E85+E88+R68+R20; 

>  <intxn_cluster>  (40) 
-1

>  <intxn_cluster_rank>  (40) 
-1

>  <N_interactions>  (40) 
2

>  <∆∆G>  (40) 
-12.561478

>  <$/mg>  (40) 
163.0

>  <comRMSD>  (40) 
0.86531

>  <N_rotatable_bonds>  (40) 
6

>  <deep_P1_sidechain>  (40) 
nan

>  <farthest_distance_to_substrate>  (40) 
2.227511

>  <hbond:SER:7>  (40) 
hbond:SER:7    NaN
hbond:SER:7     -1
Name: 39, dtype: object

>  <halogenbond:SER:7>  (40) 
halogenbond:SER:7    NaN
halogenbond:SER:7     -1
Name: 39, dtype: object

>  <hbond:GLY:8>  (40) 
hbond:GLY:8    NaN
hbond:GLY:8     -1
Name: 39, dtype: object

>  <hydroph_interaction:VAL:18>  (40) 
hydroph_interaction:VAL:18    NaN
hydroph_interaction:VAL:18     -1
Name: 39, dtype: object

>  <hbond:ASN:19>  (40) 
hbond:ASN:19    NaN
hbond:ASN:19     -1
Name: 39, dtype: object

>  <hydroph_interaction:ASN:19>  (40) 
hydroph_interaction:ASN:19    0.0
hydroph_interaction:ASN:19      0
Name: 39, dtype: object

>  <halogenbond:ASN:19>  (40) 
halogenbond:ASN:19    NaN
halogenbond:ASN:19     -1
Name: 39, dtype: object

>  <hbond:ARG:20>  (40) 
hbond:ARG:20    NaN
hbond:ARG:20     -1
Name: 39, dtype: object

>  <hydroph_interaction:ARG:20>  (40) 
hydroph_interaction:ARG:20    NaN
hydroph_interaction:ARG:20     -1
Name: 39, dtype: object

>  <saltbridge:ARG:20>  (40) 
saltbridge:ARG:20    NaN
saltbridge:ARG:20     -1
Name: 39, dtype: object

>  <halogenbond:ARG:20>  (40) 
halogenbond:ARG:20    NaN
halogenbond:ARG:20     -1
Name: 39, dtype: object

>  <pication:ARG:20>  (40) 
pication:ARG:20    NaN
pication:ARG:20     -1
Name: 39, dtype: object

>  <hbond:HIS:21>  (40) 
hbond:HIS:21    0.0
hbond:HIS:21      0
Name: 39, dtype: object

>  <hydroph_interaction:HIS:21>  (40) 
hydroph_interaction:HIS:21    0.0
hydroph_interaction:HIS:21      0
Name: 39, dtype: object

>  <pistack:HIS:21>  (40) 
pistack:HIS:21    NaN
pistack:HIS:21     -1
Name: 39, dtype: object

>  <pication:HIS:21>  (40) 
pication:HIS:21    0.0
pication:HIS:21      0
Name: 39, dtype: object

>  <saltbridge:HIS:21>  (40) 
saltbridge:HIS:21    0.0
saltbridge:HIS:21      0
Name: 39, dtype: object

>  <halogenbond:HIS:21>  (40) 
halogenbond:HIS:21    NaN
halogenbond:HIS:21     -1
Name: 39, dtype: object

>  <hydroph_interaction:LEU:22>  (40) 
hydroph_interaction:LEU:22    0.0
hydroph_interaction:LEU:22      0
Name: 39, dtype: object

>  <hbond:LEU:22>  (40) 
hbond:LEU:22    NaN
hbond:LEU:22     -1
Name: 39, dtype: object

>  <hydroph_interaction:TRP:28>  (40) 
hydroph_interaction:TRP:28    NaN
hydroph_interaction:TRP:28     -1
Name: 39, dtype: object

>  <hbond:SER:36>  (40) 
hbond:SER:36    NaN
hbond:SER:36     -1
Name: 39, dtype: object

>  <halogenbond:SER:36>  (40) 
halogenbond:SER:36    NaN
halogenbond:SER:36     -1
Name: 39, dtype: object

>  <hbond:SER:37>  (40) 
hbond:SER:37    NaN
hbond:SER:37     -1
Name: 39, dtype: object

>  <hbond:ARG:38>  (40) 
hbond:ARG:38    NaN
hbond:ARG:38     -1
Name: 39, dtype: object

>  <halogenbond:ARG:38>  (40) 
halogenbond:ARG:38    NaN
halogenbond:ARG:38     -1
Name: 39, dtype: object

>  <saltbridge:ASP:39>  (40) 
saltbridge:ASP:39    NaN
saltbridge:ASP:39     -1
Name: 39, dtype: object

>  <halogenbond:ASP:39>  (40) 
halogenbond:ASP:39    0.0
halogenbond:ASP:39      0
Name: 39, dtype: object

>  <hbond:ASP:39>  (40) 
hbond:ASP:39    NaN
hbond:ASP:39     -1
Name: 39, dtype: object

>  <hydroph_interaction:ASP:39>  (40) 
hydroph_interaction:ASP:39    0.0
hydroph_interaction:ASP:39      0
Name: 39, dtype: object

>  <hydroph_interaction:LEU:40>  (40) 
hydroph_interaction:LEU:40    NaN
hydroph_interaction:LEU:40     -1
Name: 39, dtype: object

>  <hydroph_interaction:TYR:63>  (40) 
hydroph_interaction:TYR:63    NaN
hydroph_interaction:TYR:63     -1
Name: 39, dtype: object

>  <hbond:TYR:63>  (40) 
hbond:TYR:63    NaN
hbond:TYR:63     -1
Name: 39, dtype: object

>  <pistack:TYR:63>  (40) 
pistack:TYR:63    NaN
pistack:TYR:63     -1
Name: 39, dtype: object

>  <pication:TYR:63>  (40) 
pication:TYR:63    NaN
pication:TYR:63     -1
Name: 39, dtype: object

>  <halogenbond:TYR:64>  (40) 
halogenbond:TYR:64    NaN
halogenbond:TYR:64     -1
Name: 39, dtype: object

>  <hbond:TYR:64>  (40) 
hbond:TYR:64    NaN
hbond:TYR:64     -1
Name: 39, dtype: object

>  <hydroph_interaction:TYR:64>  (40) 
hydroph_interaction:TYR:64    NaN
hydroph_interaction:TYR:64     -1
Name: 39, dtype: object

>  <halogenbond:CYS:65>  (40) 
halogenbond:CYS:65    NaN
halogenbond:CYS:65     -1
Name: 39, dtype: object

>  <hbond:CYS:65>  (40) 
hbond:CYS:65    NaN
hbond:CYS:65     -1
Name: 39, dtype: object

>  <hbond:SER:66>  (40) 
hbond:SER:66    NaN
hbond:SER:66     -1
Name: 39, dtype: object

>  <halogenbond:SER:66>  (40) 
halogenbond:SER:66    NaN
halogenbond:SER:66     -1
Name: 39, dtype: object

>  <hbond:SER:67>  (40) 
hbond:SER:67    NaN
hbond:SER:67     -1
Name: 39, dtype: object

>  <halogenbond:SER:67>  (40) 
halogenbond:SER:67    NaN
halogenbond:SER:67     -1
Name: 39, dtype: object

>  <hbond:ARG:68>  (40) 
hbond:ARG:68    NaN
hbond:ARG:68     -1
Name: 39, dtype: object

>  <saltbridge:ARG:68>  (40) 
saltbridge:ARG:68    NaN
saltbridge:ARG:68     -1
Name: 39, dtype: object

>  <hydroph_interaction:ARG:68>  (40) 
hydroph_interaction:ARG:68    NaN
hydroph_interaction:ARG:68     -1
Name: 39, dtype: object

>  <pication:ARG:68>  (40) 
pication:ARG:68    NaN
pication:ARG:68     -1
Name: 39, dtype: object

>  <hydroph_interaction:TYR:72>  (40) 
hydroph_interaction:TYR:72    NaN
hydroph_interaction:TYR:72     -1
Name: 39, dtype: object

>  <hydroph_interaction:VAL:74>  (40) 
hydroph_interaction:VAL:74    NaN
hydroph_interaction:VAL:74     -1
Name: 39, dtype: object

>  <hydroph_interaction:PHE:76>  (40) 
hydroph_interaction:PHE:76    NaN
hydroph_interaction:PHE:76     -1
Name: 39, dtype: object

>  <hbond:SER:77>  (40) 
hbond:SER:77    NaN
hbond:SER:77     -1
Name: 39, dtype: object

>  <hbond:SER:80>  (40) 
hbond:SER:80    NaN
hbond:SER:80     -1
Name: 39, dtype: object

>  <hbond:LEU:81>  (40) 
hbond:LEU:81    NaN
hbond:LEU:81     -1
Name: 39, dtype: object

>  <halogenbond:LEU:81>  (40) 
halogenbond:LEU:81    NaN
halogenbond:LEU:81     -1
Name: 39, dtype: object

>  <hydroph_interaction:LEU:81>  (40) 
hydroph_interaction:LEU:81    NaN
hydroph_interaction:LEU:81     -1
Name: 39, dtype: object

>  <hydroph_interaction:ILE:82>  (40) 
hydroph_interaction:ILE:82    NaN
hydroph_interaction:ILE:82     -1
Name: 39, dtype: object

>  <halogenbond:ILE:82>  (40) 
halogenbond:ILE:82    NaN
halogenbond:ILE:82     -1
Name: 39, dtype: object

>  <hbond:ILE:82>  (40) 
hbond:ILE:82    NaN
hbond:ILE:82     -1
Name: 39, dtype: object

>  <hbond:PHE:83>  (40) 
hbond:PHE:83    NaN
hbond:PHE:83     -1
Name: 39, dtype: object

>  <hydroph_interaction:PHE:83>  (40) 
hydroph_interaction:PHE:83    NaN
hydroph_interaction:PHE:83     -1
Name: 39, dtype: object

>  <halogenbond:PHE:83>  (40) 
halogenbond:PHE:83    NaN
halogenbond:PHE:83     -1
Name: 39, dtype: object

>  <pistack:PHE:83>  (40) 
pistack:PHE:83    NaN
pistack:PHE:83     -1
Name: 39, dtype: object

>  <pication:PHE:83>  (40) 
pication:PHE:83    NaN
pication:PHE:83     -1
Name: 39, dtype: object

>  <hydroph_interaction:VAL:84>  (40) 
hydroph_interaction:VAL:84    NaN
hydroph_interaction:VAL:84     -1
Name: 39, dtype: object

>  <halogenbond:VAL:84>  (40) 
halogenbond:VAL:84    NaN
halogenbond:VAL:84     -1
Name: 39, dtype: object

>  <hbond:VAL:84>  (40) 
hbond:VAL:84    NaN
hbond:VAL:84     -1
Name: 39, dtype: object

>  <hydroph_interaction:GLU:85>  (40) 
hydroph_interaction:GLU:85    NaN
hydroph_interaction:GLU:85     -1
Name: 39, dtype: object

>  <hbond:GLU:85>  (40) 
hbond:GLU:85    NaN
hbond:GLU:85     -1
Name: 39, dtype: object

>  <halogenbond:GLU:85>  (40) 
halogenbond:GLU:85    NaN
halogenbond:GLU:85     -1
Name: 39, dtype: object

>  <saltbridge:GLU:85>  (40) 
saltbridge:GLU:85    NaN
saltbridge:GLU:85     -1
Name: 39, dtype: object

>  <halogenbond:ALA:86>  (40) 
halogenbond:ALA:86    NaN
halogenbond:ALA:86     -1
Name: 39, dtype: object

>  <hbond:ALA:86>  (40) 
hbond:ALA:86    NaN
hbond:ALA:86     -1
Name: 39, dtype: object

>  <hydroph_interaction:ALA:86>  (40) 
hydroph_interaction:ALA:86    NaN
hydroph_interaction:ALA:86     -1
Name: 39, dtype: object

>  <hbond:SER:87>  (40) 
hbond:SER:87    0
hbond:SER:87    0
Name: 39, dtype: object

>  <halogenbond:SER:87>  (40) 
halogenbond:SER:87    NaN
halogenbond:SER:87     -1
Name: 39, dtype: object

>  <hbond:GLU:88>  (40) 
hbond:GLU:88    0.0
hbond:GLU:88      0
Name: 39, dtype: object

>  <hydroph_interaction:GLU:88>  (40) 
hydroph_interaction:GLU:88    NaN
hydroph_interaction:GLU:88     -1
Name: 39, dtype: object

>  <halogenbond:GLU:88>  (40) 
halogenbond:GLU:88    NaN
halogenbond:GLU:88     -1
Name: 39, dtype: object

>  <saltbridge:GLU:88>  (40) 
saltbridge:GLU:88    NaN
saltbridge:GLU:88     -1
Name: 39, dtype: object

>  <hydroph_interaction:TYR:89>  (40) 
hydroph_interaction:TYR:89    0.0
hydroph_interaction:TYR:89      0
Name: 39, dtype: object

>  <pistack:TYR:89>  (40) 
pistack:TYR:89    NaN
pistack:TYR:89     -1
Name: 39, dtype: object

>  <hbond:TYR:89>  (40) 
hbond:TYR:89    NaN
hbond:TYR:89     -1
Name: 39, dtype: object

>  <halogenbond:TYR:89>  (40) 
halogenbond:TYR:89    NaN
halogenbond:TYR:89     -1
Name: 39, dtype: object

>  <hydroph_interaction:TYR:90>  (40) 
hydroph_interaction:TYR:90    0.0
hydroph_interaction:TYR:90      0
Name: 39, dtype: object

>  <hbond:TYR:90>  (40) 
hbond:TYR:90    0.0
hbond:TYR:90      0
Name: 39, dtype: object

>  <pistack:TYR:90>  (40) 
pistack:TYR:90    NaN
pistack:TYR:90     -1
Name: 39, dtype: object

>  <halogenbond:TYR:90>  (40) 
halogenbond:TYR:90    NaN
halogenbond:TYR:90     -1
Name: 39, dtype: object

>  <pication:TYR:90>  (40) 
pication:TYR:90    NaN
pication:TYR:90     -1
Name: 39, dtype: object

>  <hbond:PRO:91>  (40) 
hbond:PRO:91    NaN
hbond:PRO:91     -1
Name: 39, dtype: object

>  <hydroph_interaction:PRO:91>  (40) 
hydroph_interaction:PRO:91    NaN
hydroph_interaction:PRO:91     -1
Name: 39, dtype: object

>  <halogenbond:PRO:91>  (40) 
halogenbond:PRO:91    NaN
halogenbond:PRO:91     -1
Name: 39, dtype: object

>  <hbond:ALA:92>  (40) 
hbond:ALA:92    NaN
hbond:ALA:92     -1
Name: 39, dtype: object

>  <hydroph_interaction:ALA:92>  (40) 
hydroph_interaction:ALA:92    NaN
hydroph_interaction:ALA:92     -1
Name: 39, dtype: object

>  <saltbridge:ARG:93>  (40) 
saltbridge:ARG:93    NaN
saltbridge:ARG:93     -1
Name: 39, dtype: object

>  <hbond:ARG:93>  (40) 
hbond:ARG:93    0.0
hbond:ARG:93      0
Name: 39, dtype: object

>  <hydroph_interaction:ARG:93>  (40) 
hydroph_interaction:ARG:93    NaN
hydroph_interaction:ARG:93     -1
Name: 39, dtype: object

>  <halogenbond:ARG:93>  (40) 
halogenbond:ARG:93    NaN
halogenbond:ARG:93     -1
Name: 39, dtype: object

>  <pication:ARG:93>  (40) 
pication:ARG:93    NaN
pication:ARG:93     -1
Name: 39, dtype: object

>  <hydroph_interaction:TYR:94>  (40) 
hydroph_interaction:TYR:94    NaN
hydroph_interaction:TYR:94     -1
Name: 39, dtype: object

>  <pistack:TYR:94>  (40) 
pistack:TYR:94    NaN
pistack:TYR:94     -1
Name: 39, dtype: object

>  <hbond:TYR:94>  (40) 
hbond:TYR:94    NaN
hbond:TYR:94     -1
Name: 39, dtype: object

>  <hbond:GLN:95>  (40) 
hbond:GLN:95    NaN
hbond:GLN:95     -1
Name: 39, dtype: object

>  <hydroph_interaction:GLN:95>  (40) 
hydroph_interaction:GLN:95    NaN
hydroph_interaction:GLN:95     -1
Name: 39, dtype: object

>  <halogenbond:GLN:95>  (40) 
halogenbond:GLN:95    NaN
halogenbond:GLN:95     -1
Name: 39, dtype: object

>  <hbond:SER:96>  (40) 
hbond:SER:96    NaN
hbond:SER:96     -1
Name: 39, dtype: object

>  <halogenbond:HIS:97>  (40) 
halogenbond:HIS:97    NaN
halogenbond:HIS:97     -1
Name: 39, dtype: object

>  <hydroph_interaction:LEU:98>  (40) 
hydroph_interaction:LEU:98    NaN
hydroph_interaction:LEU:98     -1
Name: 39, dtype: object

>  <hbond:LEU:98>  (40) 
hbond:LEU:98    NaN
hbond:LEU:98     -1
Name: 39, dtype: object

>  <halogenbond:LEU:98>  (40) 
halogenbond:LEU:98    NaN
halogenbond:LEU:98     -1
Name: 39, dtype: object

>  <hbond:MET:99>  (40) 
hbond:MET:99    NaN
hbond:MET:99     -1
Name: 39, dtype: object

>  <hydroph_interaction:MET:99>  (40) 
hydroph_interaction:MET:99    NaN
hydroph_interaction:MET:99     -1
Name: 39, dtype: object

>  <halogenbond:MET:99>  (40) 
halogenbond:MET:99    NaN
halogenbond:MET:99     -1
Name: 39, dtype: object

>  <hydroph_interaction:LEU:100>  (40) 
hydroph_interaction:LEU:100    NaN
hydroph_interaction:LEU:100     -1
Name: 39, dtype: object

>  <hbond:LEU:100>  (40) 
hbond:LEU:100    NaN
hbond:LEU:100     -1
Name: 39, dtype: object

>  <hbond:ALA:101>  (40) 
hbond:ALA:101    NaN
hbond:ALA:101     -1
Name: 39, dtype: object

>  <hydroph_interaction:ALA:101>  (40) 
hydroph_interaction:ALA:101    NaN
hydroph_interaction:ALA:101     -1
Name: 39, dtype: object

>  <hydroph_interaction:VAL:102>  (40) 
hydroph_interaction:VAL:102    NaN
hydroph_interaction:VAL:102     -1
Name: 39, dtype: object

>  <hbond:VAL:102>  (40) 
hbond:VAL:102    NaN
hbond:VAL:102     -1
Name: 39, dtype: object

>  <hbond:GLY:103>  (40) 
hbond:GLY:103    NaN
hbond:GLY:103     -1
Name: 39, dtype: object

>  <halogenbond:GLY:103>  (40) 
halogenbond:GLY:103    NaN
halogenbond:GLY:103     -1
Name: 39, dtype: object

>  <hbond:HIS:104>  (40) 
hbond:HIS:104    NaN
hbond:HIS:104     -1
Name: 39, dtype: object

>  <saltbridge:HIS:104>  (40) 
saltbridge:HIS:104    NaN
saltbridge:HIS:104     -1
Name: 39, dtype: object

>  <pication:HIS:104>  (40) 
pication:HIS:104    NaN
pication:HIS:104     -1
Name: 39, dtype: object

>  <halogenbond:HIS:104>  (40) 
halogenbond:HIS:104    NaN
halogenbond:HIS:104     -1
Name: 39, dtype: object

>  <hydroph_interaction:HIS:104>  (40) 
hydroph_interaction:HIS:104    NaN
hydroph_interaction:HIS:104     -1
Name: 39, dtype: object

>  <pistack:HIS:104>  (40) 
pistack:HIS:104    NaN
pistack:HIS:104     -1
Name: 39, dtype: object

>  <halogenbond:SER:105>  (40) 
halogenbond:SER:105    0.0
halogenbond:SER:105      0
Name: 39, dtype: object

>  <hbond:SER:105>  (40) 
hbond:SER:105    0.0
hbond:SER:105      0
Name: 39, dtype: object

>  <hbond:GLU:106>  (40) 
hbond:GLU:106    0.0
hbond:GLU:106      0
Name: 39, dtype: object

>  <hydroph_interaction:GLU:106>  (40) 
hydroph_interaction:GLU:106    0.0
hydroph_interaction:GLU:106      0
Name: 39, dtype: object

>  <saltbridge:GLU:106>  (40) 
saltbridge:GLU:106    NaN
saltbridge:GLU:106     -1
Name: 39, dtype: object

>  <halogenbond:GLU:106>  (40) 
halogenbond:GLU:106    NaN
halogenbond:GLU:106     -1
Name: 39, dtype: object

>  <hydroph_interaction:PRO:107>  (40) 
hydroph_interaction:PRO:107    1
hydroph_interaction:PRO:107    1
Name: 39, dtype: object

>  <hbond:PRO:107>  (40) 
hbond:PRO:107    0.0
hbond:PRO:107      0
Name: 39, dtype: object

>  <halogenbond:PRO:107>  (40) 
halogenbond:PRO:107    NaN
halogenbond:PRO:107     -1
Name: 39, dtype: object

>  <hbond:GLY:108>  (40) 
hbond:GLY:108    NaN
hbond:GLY:108     -1
Name: 39, dtype: object

>  <halogenbond:GLY:108>  (40) 
halogenbond:GLY:108    NaN
halogenbond:GLY:108     -1
Name: 39, dtype: object

>  <hbond:ASP:109>  (40) 
hbond:ASP:109    NaN
hbond:ASP:109     -1
Name: 39, dtype: object

>  <hydroph_interaction:ASP:109>  (40) 
hydroph_interaction:ASP:109    NaN
hydroph_interaction:ASP:109     -1
Name: 39, dtype: object

>  <saltbridge:ASP:109>  (40) 
saltbridge:ASP:109    NaN
saltbridge:ASP:109     -1
Name: 39, dtype: object

>  <halogenbond:CYS:110>  (40) 
halogenbond:CYS:110    NaN
halogenbond:CYS:110     -1
Name: 39, dtype: object

>  <hbond:CYS:110>  (40) 
hbond:CYS:110    NaN
hbond:CYS:110     -1
Name: 39, dtype: object

>  <hbond:GLY:111>  (40) 
hbond:GLY:111    NaN
hbond:GLY:111     -1
Name: 39, dtype: object

>  <hbond:GLY:112>  (40) 
hbond:GLY:112    NaN
hbond:GLY:112     -1
Name: 39, dtype: object

>  <hbond:ILE:113>  (40) 
hbond:ILE:113    NaN
hbond:ILE:113     -1
Name: 39, dtype: object

>  <hydroph_interaction:LEU:114>  (40) 
hydroph_interaction:LEU:114    NaN
hydroph_interaction:LEU:114     -1
Name: 39, dtype: object

>  <hbond:LEU:114>  (40) 
hbond:LEU:114    NaN
hbond:LEU:114     -1
Name: 39, dtype: object

>  <hydroph_interaction:ILE:123>  (40) 
hydroph_interaction:ILE:123    NaN
hydroph_interaction:ILE:123     -1
Name: 39, dtype: object

>  <hbond:ILE:123>  (40) 
hbond:ILE:123    NaN
hbond:ILE:123     -1
Name: 39, dtype: object

>  <hydroph_interaction:VAL:124>  (40) 
hydroph_interaction:VAL:124    1.0
hydroph_interaction:VAL:124      1
Name: 39, dtype: object

>  <hbond:VAL:124>  (40) 
hbond:VAL:124    NaN
hbond:VAL:124     -1
Name: 39, dtype: object

>  <halogenbond:VAL:124>  (40) 
halogenbond:VAL:124    NaN
halogenbond:VAL:124     -1
Name: 39, dtype: object

>  <hbond:SER:125>  (40) 
hbond:SER:125    0
hbond:SER:125    0
Name: 39, dtype: object

>  <halogenbond:SER:125>  (40) 
halogenbond:SER:125    NaN
halogenbond:SER:125     -1
Name: 39, dtype: object

>  <hydroph_interaction:THR:126>  (40) 
hydroph_interaction:THR:126    0.0
hydroph_interaction:THR:126      0
Name: 39, dtype: object

>  <hbond:THR:126>  (40) 
hbond:THR:126    0.0
hbond:THR:126      0
Name: 39, dtype: object

>  <halogenbond:THR:126>  (40) 
halogenbond:THR:126    NaN
halogenbond:THR:126     -1
Name: 39, dtype: object

>  <hbond:GLY:127>  (40) 
hbond:GLY:127    0
hbond:GLY:127    0
Name: 39, dtype: object

>  <halogenbond:GLY:127>  (40) 
halogenbond:GLY:127    NaN
halogenbond:GLY:127     -1
Name: 39, dtype: object

>  <hydroph_interaction:GLY:127>  (40) 
hydroph_interaction:GLY:127    NaN
hydroph_interaction:GLY:127     -1
Name: 39, dtype: object

>  <hbond:GLY:128>  (40) 
hbond:GLY:128    NaN
hbond:GLY:128     -1
Name: 39, dtype: object

>  <halogenbond:GLY:128>  (40) 
halogenbond:GLY:128    NaN
halogenbond:GLY:128     -1
Name: 39, dtype: object

>  <hydroph_interaction:GLY:128>  (40) 
hydroph_interaction:GLY:128    NaN
hydroph_interaction:GLY:128     -1
Name: 39, dtype: object

>  <hbond:ASN:129>  (40) 
hbond:ASN:129    NaN
hbond:ASN:129     -1
Name: 39, dtype: object

>  <hydroph_interaction:ASN:129>  (40) 
hydroph_interaction:ASN:129    NaN
hydroph_interaction:ASN:129     -1
Name: 39, dtype: object

>  <halogenbond:ASN:129>  (40) 
halogenbond:ASN:129    NaN
halogenbond:ASN:129     -1
Name: 39, dtype: object

>  <hbond:GLY:130>  (40) 
hbond:GLY:130    NaN
hbond:GLY:130     -1
Name: 39, dtype: object

>  <hbond:LEU:131>  (40) 
hbond:LEU:131    NaN
hbond:LEU:131     -1
Name: 39, dtype: object

>  <hydroph_interaction:LEU:131>  (40) 
hydroph_interaction:LEU:131    NaN
hydroph_interaction:LEU:131     -1
Name: 39, dtype: object

>  <halogenbond:LEU:131>  (40) 
halogenbond:LEU:131    NaN
halogenbond:LEU:131     -1
Name: 39, dtype: object

>  <hydroph_interaction:VAL:132>  (40) 
hydroph_interaction:VAL:132    NaN
hydroph_interaction:VAL:132     -1
Name: 39, dtype: object

>  <hbond:VAL:132>  (40) 
hbond:VAL:132    NaN
hbond:VAL:132     -1
Name: 39, dtype: object

>  <hbond:GLY:133>  (40) 
hbond:GLY:133    NaN
hbond:GLY:133     -1
Name: 39, dtype: object

>  <halogenbond:GLY:133>  (40) 
halogenbond:GLY:133    NaN
halogenbond:GLY:133     -1
Name: 39, dtype: object

>  <hydroph_interaction:PHE:134>  (40) 
hydroph_interaction:PHE:134    NaN
hydroph_interaction:PHE:134     -1
Name: 39, dtype: object

>  <hbond:PHE:134>  (40) 
hbond:PHE:134    NaN
hbond:PHE:134     -1
Name: 39, dtype: object

>  <pistack:PHE:134>  (40) 
pistack:PHE:134    NaN
pistack:PHE:134     -1
Name: 39, dtype: object

>  <pication:PHE:134>  (40) 
pication:PHE:134    NaN
pication:PHE:134     -1
Name: 39, dtype: object

>  <halogenbond:PHE:134>  (40) 
halogenbond:PHE:134    NaN
halogenbond:PHE:134     -1
Name: 39, dtype: object

>  <hydroph_interaction:ALA:135>  (40) 
hydroph_interaction:ALA:135    NaN
hydroph_interaction:ALA:135     -1
Name: 39, dtype: object

>  <hbond:ALA:135>  (40) 
hbond:ALA:135    NaN
hbond:ALA:135     -1
Name: 39, dtype: object

$$$$
Z761617208
     RDKit          3D

 32 32  0  0  0  0  0  0  0  0999 V2000
   10.2670    9.1740   22.7150 C   0  0  0  0  0  0  0  0  0  0  0  0
    9.4880   10.3060   23.3520 C   0  0  0  0  0  0  0  0  0  0  0  0
    8.4910    9.9880   24.4250 C   0  0  0  0  0  0  0  0  0  0  0  0
    7.7170   11.1690   25.0380 C   0  0  0  0  0  0  0  0  0  0  0  0
    8.0730   12.5310   24.4470 C   0  0  0  0  0  0  0  0  0  0  0  0
    7.3660   13.7440   24.9730 C   0  0  0  0  0  0  0  0  0  0  0  0
    9.0320   12.6660   23.4340 C   0  0  0  0  0  0  0  0  0  0  0  0
    9.3300   13.9030   22.9120 N   0  0  0  0  0  0  0  0  0  0  0  0
   10.6900   14.3350   22.7280 C   0  0  0  0  0  0  0  0  0  0  0  0
   11.5890   14.0910   23.4840 O   0  0  0  0  0  0  0  0  0  0  0  0
   10.9000   15.1010   21.5950 C   0  0  0  0  0  0  0  0  0  0  0  0
    9.9600   15.2380   20.8140 O   0  0  0  0  0  0  0  0  0  0  0  0
   12.1250   15.6990   21.4420 N   0  0  0  0  0  0  0  0  0  0  0  0
   12.1660   17.1020   21.2210 C   0  0  0  0  0  0  0  0  0  0  0  0
   13.2150   15.1800   22.2300 C   0  0  0  0  0  0  0  0  0  0  0  0
    9.7090   11.5850   22.9250 C   0  0  0  0  0  0  0  0  0  0  0  0
    9.5910    8.3710   22.4340 H   0  0  0  0  0  0  0  0  0  0  0  0
   11.0400    8.7930   23.3800 H   0  0  0  0  0  0  0  0  0  0  0  0
   10.7420    9.5370   21.8020 H   0  0  0  0  0  0  0  0  0  0  0  0
    8.3230    8.9910   24.7460 H   0  0  0  0  0  0  0  0  0  0  0  0
    6.9770   11.0470   25.8210 H   0  0  0  0  0  0  0  0  0  0  0  0
    7.1020   13.7050   26.0210 H   0  0  0  0  0  0  0  0  0  0  0  0
    6.4300   13.9130   24.4270 H   0  0  0  0  0  0  0  0  0  0  0  0
    7.9850   14.6310   24.8000 H   0  0  0  0  0  0  0  0  0  0  0  0
    8.6520   14.6710   22.9330 H   0  0  0  0  0  0  0  0  0  0  0  0
   12.1230   17.6230   22.1730 H   0  0  0  0  0  0  0  0  0  0  0  0
   13.0850   17.3290   20.6830 H   0  0  0  0  0  0  0  0  0  0  0  0
   11.3030   17.3790   20.6320 H   0  0  0  0  0  0  0  0  0  0  0  0
   13.1060   15.5190   23.2660 H   0  0  0  0  0  0  0  0  0  0  0  0
   14.1510   15.5800   21.8430 H   0  0  0  0  0  0  0  0  0  0  0  0
   13.2720   14.0860   22.2050 H   0  0  0  0  0  0  0  0  0  0  0  0
   10.4490   11.7210   22.1470 H   0  0  0  0  0  0  0  0  0  0  0  0
  1  2  1  0
  2  3  2  0
  3  4  1  0
  4  5  2  0
  5  6  1  0
  5  7  1  0
  7  8  1  0
  8  9  1  0
  9 10  2  0
  9 11  1  0
 11 12  2  0
 11 13  1  0
 13 14  1  0
 13 15  1  0
  7 16  2  0
 16  2  1  0
  1 17  1  0
  1 18  1  0
  1 19  1  0
  3 20  1  0
  4 21  1  0
  6 22  1  0
  6 23  1  0
  6 24  1  0
  8 25  1  0
 14 26  1  0
 14 27  1  0
 14 28  1  0
 15 29  1  0
 15 30  1  0
 15 31  1  0
 16 32  1  0
A    1
 C1 
A    2
 C2 
A    3
 C3 
A    4
 C4 
A    5
 C5 
A    6
 C6 
A    7
 C7 
A    8
 N1 
A    9
 C8 
A   10
 O1 
A   11
 C9 
A   12
 O2 
A   13
 N2 
A   14
 C10
A   15
 C11
A   16
 C12
A   17
 H1 
A   18
 H2 
A   19
 H3 
A   20
 H4 
A   21
 H5 
A   22
 H6 
A   23
 H7 
A   24
 H8 
A   25
 H9 
A   26
 H10
A   27
 H11
A   28
 H12
A   29
 H13
A   30
 H14
A   31
 H15
A   32
 H16
M  END
>  <ref_pdb>  (41) 
x0310_0A

>  <ref_mols>  (41) 
x0416_0A,x0528_0A

>  <original SMILES>  (41) 
Cc1ccc(C)c(NC(=O)C(=O)N(C)C)c1

>  <rationale>  (41) 
info halogenbond:G127+D39+A86+E85+E106+E88+T126+P107+Y64+C65+N129+F83+R93+L131+I82+G128+P91+N19+H21+V84+G133+Y90+Y89+H97+L81+F134+L98+R20+G103+S66+S67+S7+G108+R38+V124+M99+S36; hbond:S87+T126+A86+E85+G103+G128+G130+L131+N129+H104+R68+V124+R93+P91+F83+S7+S66+G112+G133+V132+R20+Y89+S77+A135+Y63+A92+A101+M99+F134+L100+I82+Y64+S36+L98+V84+L81+Y94+S80+R38+S37+V102+G8+I123+G111+I113+L114+C65+L22+S96; hydroph_interaction:V124+L22+E106+E88+N129+N19+L40+I123+A135+I82+L100+L98+L131+F83+R93+V132+Y63+F134+H104+R20+A86+V74+P91+A101+F76+M99+L114+A92+Y94+R68+Y72+Y64+V18+V102+W28+G127+G128+L81; pication:H104+Y63+F134+Y90+R68+F83+R20; pistack:H21+Y89+H104+F134+Y63+F83+Y94; saltbridge:R93+H104+E106+D109+E85+E88+R68+R20; 

>  <intxn_cluster>  (41) 
-1

>  <intxn_cluster_rank>  (41) 
-1

>  <N_interactions>  (41) 
3

>  <∆∆G>  (41) 
-12.820734

>  <$/mg>  (41) 
0.0

>  <comRMSD>  (41) 
0.771934

>  <N_rotatable_bonds>  (41) 
5

>  <deep_P1_sidechain>  (41) 
nan

>  <farthest_distance_to_substrate>  (41) 
2.331924

>  <hbond:SER:7>  (41) 
hbond:SER:7    NaN
hbond:SER:7     -1
Name: 40, dtype: object

>  <halogenbond:SER:7>  (41) 
halogenbond:SER:7    NaN
halogenbond:SER:7     -1
Name: 40, dtype: object

>  <hbond:GLY:8>  (41) 
hbond:GLY:8    NaN
hbond:GLY:8     -1
Name: 40, dtype: object

>  <hydroph_interaction:VAL:18>  (41) 
hydroph_interaction:VAL:18    NaN
hydroph_interaction:VAL:18     -1
Name: 40, dtype: object

>  <hbond:ASN:19>  (41) 
hbond:ASN:19    0.0
hbond:ASN:19      0
Name: 40, dtype: object

>  <hydroph_interaction:ASN:19>  (41) 
hydroph_interaction:ASN:19    NaN
hydroph_interaction:ASN:19     -1
Name: 40, dtype: object

>  <halogenbond:ASN:19>  (41) 
halogenbond:ASN:19    NaN
halogenbond:ASN:19     -1
Name: 40, dtype: object

>  <hbond:ARG:20>  (41) 
hbond:ARG:20    NaN
hbond:ARG:20     -1
Name: 40, dtype: object

>  <hydroph_interaction:ARG:20>  (41) 
hydroph_interaction:ARG:20    NaN
hydroph_interaction:ARG:20     -1
Name: 40, dtype: object

>  <saltbridge:ARG:20>  (41) 
saltbridge:ARG:20    NaN
saltbridge:ARG:20     -1
Name: 40, dtype: object

>  <halogenbond:ARG:20>  (41) 
halogenbond:ARG:20    NaN
halogenbond:ARG:20     -1
Name: 40, dtype: object

>  <pication:ARG:20>  (41) 
pication:ARG:20    NaN
pication:ARG:20     -1
Name: 40, dtype: object

>  <hbond:HIS:21>  (41) 
hbond:HIS:21    0.0
hbond:HIS:21      0
Name: 40, dtype: object

>  <hydroph_interaction:HIS:21>  (41) 
hydroph_interaction:HIS:21    0.0
hydroph_interaction:HIS:21      0
Name: 40, dtype: object

>  <pistack:HIS:21>  (41) 
pistack:HIS:21    NaN
pistack:HIS:21     -1
Name: 40, dtype: object

>  <pication:HIS:21>  (41) 
pication:HIS:21    0.0
pication:HIS:21      0
Name: 40, dtype: object

>  <saltbridge:HIS:21>  (41) 
saltbridge:HIS:21    0.0
saltbridge:HIS:21      0
Name: 40, dtype: object

>  <halogenbond:HIS:21>  (41) 
halogenbond:HIS:21    NaN
halogenbond:HIS:21     -1
Name: 40, dtype: object

>  <hydroph_interaction:LEU:22>  (41) 
hydroph_interaction:LEU:22    NaN
hydroph_interaction:LEU:22     -1
Name: 40, dtype: object

>  <hbond:LEU:22>  (41) 
hbond:LEU:22    NaN
hbond:LEU:22     -1
Name: 40, dtype: object

>  <hydroph_interaction:TRP:28>  (41) 
hydroph_interaction:TRP:28    NaN
hydroph_interaction:TRP:28     -1
Name: 40, dtype: object

>  <hbond:SER:36>  (41) 
hbond:SER:36    NaN
hbond:SER:36     -1
Name: 40, dtype: object

>  <halogenbond:SER:36>  (41) 
halogenbond:SER:36    NaN
halogenbond:SER:36     -1
Name: 40, dtype: object

>  <hbond:SER:37>  (41) 
hbond:SER:37    NaN
hbond:SER:37     -1
Name: 40, dtype: object

>  <hbond:ARG:38>  (41) 
hbond:ARG:38    NaN
hbond:ARG:38     -1
Name: 40, dtype: object

>  <halogenbond:ARG:38>  (41) 
halogenbond:ARG:38    NaN
halogenbond:ARG:38     -1
Name: 40, dtype: object

>  <saltbridge:ASP:39>  (41) 
saltbridge:ASP:39    0.0
saltbridge:ASP:39      0
Name: 40, dtype: object

>  <halogenbond:ASP:39>  (41) 
halogenbond:ASP:39    NaN
halogenbond:ASP:39     -1
Name: 40, dtype: object

>  <hbond:ASP:39>  (41) 
hbond:ASP:39    0.0
hbond:ASP:39      0
Name: 40, dtype: object

>  <hydroph_interaction:ASP:39>  (41) 
hydroph_interaction:ASP:39    0.0
hydroph_interaction:ASP:39      0
Name: 40, dtype: object

>  <hydroph_interaction:LEU:40>  (41) 
hydroph_interaction:LEU:40    NaN
hydroph_interaction:LEU:40     -1
Name: 40, dtype: object

>  <hydroph_interaction:TYR:63>  (41) 
hydroph_interaction:TYR:63    NaN
hydroph_interaction:TYR:63     -1
Name: 40, dtype: object

>  <hbond:TYR:63>  (41) 
hbond:TYR:63    NaN
hbond:TYR:63     -1
Name: 40, dtype: object

>  <pistack:TYR:63>  (41) 
pistack:TYR:63    NaN
pistack:TYR:63     -1
Name: 40, dtype: object

>  <pication:TYR:63>  (41) 
pication:TYR:63    NaN
pication:TYR:63     -1
Name: 40, dtype: object

>  <halogenbond:TYR:64>  (41) 
halogenbond:TYR:64    NaN
halogenbond:TYR:64     -1
Name: 40, dtype: object

>  <hbond:TYR:64>  (41) 
hbond:TYR:64    NaN
hbond:TYR:64     -1
Name: 40, dtype: object

>  <hydroph_interaction:TYR:64>  (41) 
hydroph_interaction:TYR:64    NaN
hydroph_interaction:TYR:64     -1
Name: 40, dtype: object

>  <halogenbond:CYS:65>  (41) 
halogenbond:CYS:65    NaN
halogenbond:CYS:65     -1
Name: 40, dtype: object

>  <hbond:CYS:65>  (41) 
hbond:CYS:65    NaN
hbond:CYS:65     -1
Name: 40, dtype: object

>  <hbond:SER:66>  (41) 
hbond:SER:66    NaN
hbond:SER:66     -1
Name: 40, dtype: object

>  <halogenbond:SER:66>  (41) 
halogenbond:SER:66    NaN
halogenbond:SER:66     -1
Name: 40, dtype: object

>  <hbond:SER:67>  (41) 
hbond:SER:67    0.0
hbond:SER:67      0
Name: 40, dtype: object

>  <halogenbond:SER:67>  (41) 
halogenbond:SER:67    NaN
halogenbond:SER:67     -1
Name: 40, dtype: object

>  <hbond:ARG:68>  (41) 
hbond:ARG:68    NaN
hbond:ARG:68     -1
Name: 40, dtype: object

>  <saltbridge:ARG:68>  (41) 
saltbridge:ARG:68    NaN
saltbridge:ARG:68     -1
Name: 40, dtype: object

>  <hydroph_interaction:ARG:68>  (41) 
hydroph_interaction:ARG:68    NaN
hydroph_interaction:ARG:68     -1
Name: 40, dtype: object

>  <pication:ARG:68>  (41) 
pication:ARG:68    NaN
pication:ARG:68     -1
Name: 40, dtype: object

>  <hydroph_interaction:TYR:72>  (41) 
hydroph_interaction:TYR:72    NaN
hydroph_interaction:TYR:72     -1
Name: 40, dtype: object

>  <hydroph_interaction:VAL:74>  (41) 
hydroph_interaction:VAL:74    NaN
hydroph_interaction:VAL:74     -1
Name: 40, dtype: object

>  <hydroph_interaction:PHE:76>  (41) 
hydroph_interaction:PHE:76    NaN
hydroph_interaction:PHE:76     -1
Name: 40, dtype: object

>  <hbond:SER:77>  (41) 
hbond:SER:77    NaN
hbond:SER:77     -1
Name: 40, dtype: object

>  <hbond:SER:80>  (41) 
hbond:SER:80    NaN
hbond:SER:80     -1
Name: 40, dtype: object

>  <hbond:LEU:81>  (41) 
hbond:LEU:81    NaN
hbond:LEU:81     -1
Name: 40, dtype: object

>  <halogenbond:LEU:81>  (41) 
halogenbond:LEU:81    NaN
halogenbond:LEU:81     -1
Name: 40, dtype: object

>  <hydroph_interaction:LEU:81>  (41) 
hydroph_interaction:LEU:81    NaN
hydroph_interaction:LEU:81     -1
Name: 40, dtype: object

>  <hydroph_interaction:ILE:82>  (41) 
hydroph_interaction:ILE:82    NaN
hydroph_interaction:ILE:82     -1
Name: 40, dtype: object

>  <halogenbond:ILE:82>  (41) 
halogenbond:ILE:82    NaN
halogenbond:ILE:82     -1
Name: 40, dtype: object

>  <hbond:ILE:82>  (41) 
hbond:ILE:82    NaN
hbond:ILE:82     -1
Name: 40, dtype: object

>  <hbond:PHE:83>  (41) 
hbond:PHE:83    NaN
hbond:PHE:83     -1
Name: 40, dtype: object

>  <hydroph_interaction:PHE:83>  (41) 
hydroph_interaction:PHE:83    NaN
hydroph_interaction:PHE:83     -1
Name: 40, dtype: object

>  <halogenbond:PHE:83>  (41) 
halogenbond:PHE:83    NaN
halogenbond:PHE:83     -1
Name: 40, dtype: object

>  <pistack:PHE:83>  (41) 
pistack:PHE:83    NaN
pistack:PHE:83     -1
Name: 40, dtype: object

>  <pication:PHE:83>  (41) 
pication:PHE:83    NaN
pication:PHE:83     -1
Name: 40, dtype: object

>  <hydroph_interaction:VAL:84>  (41) 
hydroph_interaction:VAL:84    0.0
hydroph_interaction:VAL:84      0
Name: 40, dtype: object

>  <halogenbond:VAL:84>  (41) 
halogenbond:VAL:84    NaN
halogenbond:VAL:84     -1
Name: 40, dtype: object

>  <hbond:VAL:84>  (41) 
hbond:VAL:84    NaN
hbond:VAL:84     -1
Name: 40, dtype: object

>  <hydroph_interaction:GLU:85>  (41) 
hydroph_interaction:GLU:85    0.0
hydroph_interaction:GLU:85      0
Name: 40, dtype: object

>  <hbond:GLU:85>  (41) 
hbond:GLU:85    NaN
hbond:GLU:85     -1
Name: 40, dtype: object

>  <halogenbond:GLU:85>  (41) 
halogenbond:GLU:85    NaN
halogenbond:GLU:85     -1
Name: 40, dtype: object

>  <saltbridge:GLU:85>  (41) 
saltbridge:GLU:85    NaN
saltbridge:GLU:85     -1
Name: 40, dtype: object

>  <halogenbond:ALA:86>  (41) 
halogenbond:ALA:86    NaN
halogenbond:ALA:86     -1
Name: 40, dtype: object

>  <hbond:ALA:86>  (41) 
hbond:ALA:86    NaN
hbond:ALA:86     -1
Name: 40, dtype: object

>  <hydroph_interaction:ALA:86>  (41) 
hydroph_interaction:ALA:86    NaN
hydroph_interaction:ALA:86     -1
Name: 40, dtype: object

>  <hbond:SER:87>  (41) 
hbond:SER:87    2
hbond:SER:87    2
Name: 40, dtype: object

>  <halogenbond:SER:87>  (41) 
halogenbond:SER:87    0.0
halogenbond:SER:87      0
Name: 40, dtype: object

>  <hbond:GLU:88>  (41) 
hbond:GLU:88    0.0
hbond:GLU:88      0
Name: 40, dtype: object

>  <hydroph_interaction:GLU:88>  (41) 
hydroph_interaction:GLU:88    NaN
hydroph_interaction:GLU:88     -1
Name: 40, dtype: object

>  <halogenbond:GLU:88>  (41) 
halogenbond:GLU:88    NaN
halogenbond:GLU:88     -1
Name: 40, dtype: object

>  <saltbridge:GLU:88>  (41) 
saltbridge:GLU:88    NaN
saltbridge:GLU:88     -1
Name: 40, dtype: object

>  <hydroph_interaction:TYR:89>  (41) 
hydroph_interaction:TYR:89    0.0
hydroph_interaction:TYR:89      0
Name: 40, dtype: object

>  <pistack:TYR:89>  (41) 
pistack:TYR:89    NaN
pistack:TYR:89     -1
Name: 40, dtype: object

>  <hbond:TYR:89>  (41) 
hbond:TYR:89    NaN
hbond:TYR:89     -1
Name: 40, dtype: object

>  <halogenbond:TYR:89>  (41) 
halogenbond:TYR:89    NaN
halogenbond:TYR:89     -1
Name: 40, dtype: object

>  <hydroph_interaction:TYR:90>  (41) 
hydroph_interaction:TYR:90    0.0
hydroph_interaction:TYR:90      0
Name: 40, dtype: object

>  <hbond:TYR:90>  (41) 
hbond:TYR:90    0.0
hbond:TYR:90      0
Name: 40, dtype: object

>  <pistack:TYR:90>  (41) 
pistack:TYR:90    0.0
pistack:TYR:90      0
Name: 40, dtype: object

>  <halogenbond:TYR:90>  (41) 
halogenbond:TYR:90    NaN
halogenbond:TYR:90     -1
Name: 40, dtype: object

>  <pication:TYR:90>  (41) 
pication:TYR:90    NaN
pication:TYR:90     -1
Name: 40, dtype: object

>  <hbond:PRO:91>  (41) 
hbond:PRO:91    NaN
hbond:PRO:91     -1
Name: 40, dtype: object

>  <hydroph_interaction:PRO:91>  (41) 
hydroph_interaction:PRO:91    NaN
hydroph_interaction:PRO:91     -1
Name: 40, dtype: object

>  <halogenbond:PRO:91>  (41) 
halogenbond:PRO:91    NaN
halogenbond:PRO:91     -1
Name: 40, dtype: object

>  <hbond:ALA:92>  (41) 
hbond:ALA:92    NaN
hbond:ALA:92     -1
Name: 40, dtype: object

>  <hydroph_interaction:ALA:92>  (41) 
hydroph_interaction:ALA:92    NaN
hydroph_interaction:ALA:92     -1
Name: 40, dtype: object

>  <saltbridge:ARG:93>  (41) 
saltbridge:ARG:93    NaN
saltbridge:ARG:93     -1
Name: 40, dtype: object

>  <hbond:ARG:93>  (41) 
hbond:ARG:93    NaN
hbond:ARG:93     -1
Name: 40, dtype: object

>  <hydroph_interaction:ARG:93>  (41) 
hydroph_interaction:ARG:93    NaN
hydroph_interaction:ARG:93     -1
Name: 40, dtype: object

>  <halogenbond:ARG:93>  (41) 
halogenbond:ARG:93    NaN
halogenbond:ARG:93     -1
Name: 40, dtype: object

>  <pication:ARG:93>  (41) 
pication:ARG:93    0.0
pication:ARG:93      0
Name: 40, dtype: object

>  <hydroph_interaction:TYR:94>  (41) 
hydroph_interaction:TYR:94    NaN
hydroph_interaction:TYR:94     -1
Name: 40, dtype: object

>  <pistack:TYR:94>  (41) 
pistack:TYR:94    NaN
pistack:TYR:94     -1
Name: 40, dtype: object

>  <hbond:TYR:94>  (41) 
hbond:TYR:94    NaN
hbond:TYR:94     -1
Name: 40, dtype: object

>  <hbond:GLN:95>  (41) 
hbond:GLN:95    0.0
hbond:GLN:95      0
Name: 40, dtype: object

>  <hydroph_interaction:GLN:95>  (41) 
hydroph_interaction:GLN:95    0.0
hydroph_interaction:GLN:95      0
Name: 40, dtype: object

>  <halogenbond:GLN:95>  (41) 
halogenbond:GLN:95    0.0
halogenbond:GLN:95      0
Name: 40, dtype: object

>  <hbond:SER:96>  (41) 
hbond:SER:96    NaN
hbond:SER:96     -1
Name: 40, dtype: object

>  <halogenbond:HIS:97>  (41) 
halogenbond:HIS:97    NaN
halogenbond:HIS:97     -1
Name: 40, dtype: object

>  <hydroph_interaction:LEU:98>  (41) 
hydroph_interaction:LEU:98    NaN
hydroph_interaction:LEU:98     -1
Name: 40, dtype: object

>  <hbond:LEU:98>  (41) 
hbond:LEU:98    NaN
hbond:LEU:98     -1
Name: 40, dtype: object

>  <halogenbond:LEU:98>  (41) 
halogenbond:LEU:98    NaN
halogenbond:LEU:98     -1
Name: 40, dtype: object

>  <hbond:MET:99>  (41) 
hbond:MET:99    NaN
hbond:MET:99     -1
Name: 40, dtype: object

>  <hydroph_interaction:MET:99>  (41) 
hydroph_interaction:MET:99    NaN
hydroph_interaction:MET:99     -1
Name: 40, dtype: object

>  <halogenbond:MET:99>  (41) 
halogenbond:MET:99    NaN
halogenbond:MET:99     -1
Name: 40, dtype: object

>  <hydroph_interaction:LEU:100>  (41) 
hydroph_interaction:LEU:100    NaN
hydroph_interaction:LEU:100     -1
Name: 40, dtype: object

>  <hbond:LEU:100>  (41) 
hbond:LEU:100    NaN
hbond:LEU:100     -1
Name: 40, dtype: object

>  <hbond:ALA:101>  (41) 
hbond:ALA:101    NaN
hbond:ALA:101     -1
Name: 40, dtype: object

>  <hydroph_interaction:ALA:101>  (41) 
hydroph_interaction:ALA:101    NaN
hydroph_interaction:ALA:101     -1
Name: 40, dtype: object

>  <hydroph_interaction:VAL:102>  (41) 
hydroph_interaction:VAL:102    NaN
hydroph_interaction:VAL:102     -1
Name: 40, dtype: object

>  <hbond:VAL:102>  (41) 
hbond:VAL:102    NaN
hbond:VAL:102     -1
Name: 40, dtype: object

>  <hbond:GLY:103>  (41) 
hbond:GLY:103    NaN
hbond:GLY:103     -1
Name: 40, dtype: object

>  <halogenbond:GLY:103>  (41) 
halogenbond:GLY:103    NaN
halogenbond:GLY:103     -1
Name: 40, dtype: object

>  <hbond:HIS:104>  (41) 
hbond:HIS:104    NaN
hbond:HIS:104     -1
Name: 40, dtype: object

>  <saltbridge:HIS:104>  (41) 
saltbridge:HIS:104    NaN
saltbridge:HIS:104     -1
Name: 40, dtype: object

>  <pication:HIS:104>  (41) 
pication:HIS:104    NaN
pication:HIS:104     -1
Name: 40, dtype: object

>  <halogenbond:HIS:104>  (41) 
halogenbond:HIS:104    0.0
halogenbond:HIS:104      0
Name: 40, dtype: object

>  <hydroph_interaction:HIS:104>  (41) 
hydroph_interaction:HIS:104    NaN
hydroph_interaction:HIS:104     -1
Name: 40, dtype: object

>  <pistack:HIS:104>  (41) 
pistack:HIS:104    NaN
pistack:HIS:104     -1
Name: 40, dtype: object

>  <halogenbond:SER:105>  (41) 
halogenbond:SER:105    0.0
halogenbond:SER:105      0
Name: 40, dtype: object

>  <hbond:SER:105>  (41) 
hbond:SER:105    0.0
hbond:SER:105      0
Name: 40, dtype: object

>  <hbond:GLU:106>  (41) 
hbond:GLU:106    0.0
hbond:GLU:106      0
Name: 40, dtype: object

>  <hydroph_interaction:GLU:106>  (41) 
hydroph_interaction:GLU:106    NaN
hydroph_interaction:GLU:106     -1
Name: 40, dtype: object

>  <saltbridge:GLU:106>  (41) 
saltbridge:GLU:106    NaN
saltbridge:GLU:106     -1
Name: 40, dtype: object

>  <halogenbond:GLU:106>  (41) 
halogenbond:GLU:106    NaN
halogenbond:GLU:106     -1
Name: 40, dtype: object

>  <hydroph_interaction:PRO:107>  (41) 
hydroph_interaction:PRO:107    0
hydroph_interaction:PRO:107    0
Name: 40, dtype: object

>  <hbond:PRO:107>  (41) 
hbond:PRO:107    0.0
hbond:PRO:107      0
Name: 40, dtype: object

>  <halogenbond:PRO:107>  (41) 
halogenbond:PRO:107    NaN
halogenbond:PRO:107     -1
Name: 40, dtype: object

>  <hbond:GLY:108>  (41) 
hbond:GLY:108    0.0
hbond:GLY:108      0
Name: 40, dtype: object

>  <halogenbond:GLY:108>  (41) 
halogenbond:GLY:108    NaN
halogenbond:GLY:108     -1
Name: 40, dtype: object

>  <hbond:ASP:109>  (41) 
hbond:ASP:109    0.0
hbond:ASP:109      0
Name: 40, dtype: object

>  <hydroph_interaction:ASP:109>  (41) 
hydroph_interaction:ASP:109    0.0
hydroph_interaction:ASP:109      0
Name: 40, dtype: object

>  <saltbridge:ASP:109>  (41) 
saltbridge:ASP:109    NaN
saltbridge:ASP:109     -1
Name: 40, dtype: object

>  <halogenbond:CYS:110>  (41) 
halogenbond:CYS:110    0.0
halogenbond:CYS:110      0
Name: 40, dtype: object

>  <hbond:CYS:110>  (41) 
hbond:CYS:110    0.0
hbond:CYS:110      0
Name: 40, dtype: object

>  <hbond:GLY:111>  (41) 
hbond:GLY:111    NaN
hbond:GLY:111     -1
Name: 40, dtype: object

>  <hbond:GLY:112>  (41) 
hbond:GLY:112    NaN
hbond:GLY:112     -1
Name: 40, dtype: object

>  <hbond:ILE:113>  (41) 
hbond:ILE:113    NaN
hbond:ILE:113     -1
Name: 40, dtype: object

>  <hydroph_interaction:LEU:114>  (41) 
hydroph_interaction:LEU:114    NaN
hydroph_interaction:LEU:114     -1
Name: 40, dtype: object

>  <hbond:LEU:114>  (41) 
hbond:LEU:114    NaN
hbond:LEU:114     -1
Name: 40, dtype: object

>  <hydroph_interaction:ILE:123>  (41) 
hydroph_interaction:ILE:123    NaN
hydroph_interaction:ILE:123     -1
Name: 40, dtype: object

>  <hbond:ILE:123>  (41) 
hbond:ILE:123    NaN
hbond:ILE:123     -1
Name: 40, dtype: object

>  <hydroph_interaction:VAL:124>  (41) 
hydroph_interaction:VAL:124    1.0
hydroph_interaction:VAL:124      1
Name: 40, dtype: object

>  <hbond:VAL:124>  (41) 
hbond:VAL:124    NaN
hbond:VAL:124     -1
Name: 40, dtype: object

>  <halogenbond:VAL:124>  (41) 
halogenbond:VAL:124    NaN
halogenbond:VAL:124     -1
Name: 40, dtype: object

>  <hbond:SER:125>  (41) 
hbond:SER:125    0
hbond:SER:125    0
Name: 40, dtype: object

>  <halogenbond:SER:125>  (41) 
halogenbond:SER:125    0.0
halogenbond:SER:125      0
Name: 40, dtype: object

>  <hydroph_interaction:THR:126>  (41) 
hydroph_interaction:THR:126    0.0
hydroph_interaction:THR:126      0
Name: 40, dtype: object

>  <hbond:THR:126>  (41) 
hbond:THR:126    NaN
hbond:THR:126     -1
Name: 40, dtype: object

>  <halogenbond:THR:126>  (41) 
halogenbond:THR:126    NaN
halogenbond:THR:126     -1
Name: 40, dtype: object

>  <hbond:GLY:127>  (41) 
hbond:GLY:127    0
hbond:GLY:127    0
Name: 40, dtype: object

>  <halogenbond:GLY:127>  (41) 
halogenbond:GLY:127    NaN
halogenbond:GLY:127     -1
Name: 40, dtype: object

>  <hydroph_interaction:GLY:127>  (41) 
hydroph_interaction:GLY:127    NaN
hydroph_interaction:GLY:127     -1
Name: 40, dtype: object

>  <hbond:GLY:128>  (41) 
hbond:GLY:128    NaN
hbond:GLY:128     -1
Name: 40, dtype: object

>  <halogenbond:GLY:128>  (41) 
halogenbond:GLY:128    NaN
halogenbond:GLY:128     -1
Name: 40, dtype: object

>  <hydroph_interaction:GLY:128>  (41) 
hydroph_interaction:GLY:128    NaN
hydroph_interaction:GLY:128     -1
Name: 40, dtype: object

>  <hbond:ASN:129>  (41) 
hbond:ASN:129    NaN
hbond:ASN:129     -1
Name: 40, dtype: object

>  <hydroph_interaction:ASN:129>  (41) 
hydroph_interaction:ASN:129    NaN
hydroph_interaction:ASN:129     -1
Name: 40, dtype: object

>  <halogenbond:ASN:129>  (41) 
halogenbond:ASN:129    NaN
halogenbond:ASN:129     -1
Name: 40, dtype: object

>  <hbond:GLY:130>  (41) 
hbond:GLY:130    NaN
hbond:GLY:130     -1
Name: 40, dtype: object

>  <hbond:LEU:131>  (41) 
hbond:LEU:131    NaN
hbond:LEU:131     -1
Name: 40, dtype: object

>  <hydroph_interaction:LEU:131>  (41) 
hydroph_interaction:LEU:131    NaN
hydroph_interaction:LEU:131     -1
Name: 40, dtype: object

>  <halogenbond:LEU:131>  (41) 
halogenbond:LEU:131    NaN
halogenbond:LEU:131     -1
Name: 40, dtype: object

>  <hydroph_interaction:VAL:132>  (41) 
hydroph_interaction:VAL:132    NaN
hydroph_interaction:VAL:132     -1
Name: 40, dtype: object

>  <hbond:VAL:132>  (41) 
hbond:VAL:132    NaN
hbond:VAL:132     -1
Name: 40, dtype: object

>  <hbond:GLY:133>  (41) 
hbond:GLY:133    NaN
hbond:GLY:133     -1
Name: 40, dtype: object

>  <halogenbond:GLY:133>  (41) 
halogenbond:GLY:133    NaN
halogenbond:GLY:133     -1
Name: 40, dtype: object

>  <hydroph_interaction:PHE:134>  (41) 
hydroph_interaction:PHE:134    NaN
hydroph_interaction:PHE:134     -1
Name: 40, dtype: object

>  <hbond:PHE:134>  (41) 
hbond:PHE:134    NaN
hbond:PHE:134     -1
Name: 40, dtype: object

>  <pistack:PHE:134>  (41) 
pistack:PHE:134    NaN
pistack:PHE:134     -1
Name: 40, dtype: object

>  <pication:PHE:134>  (41) 
pication:PHE:134    NaN
pication:PHE:134     -1
Name: 40, dtype: object

>  <halogenbond:PHE:134>  (41) 
halogenbond:PHE:134    NaN
halogenbond:PHE:134     -1
Name: 40, dtype: object

>  <hydroph_interaction:ALA:135>  (41) 
hydroph_interaction:ALA:135    NaN
hydroph_interaction:ALA:135     -1
Name: 40, dtype: object

>  <hbond:ALA:135>  (41) 
hbond:ALA:135    NaN
hbond:ALA:135     -1
Name: 40, dtype: object

$$$$
PV_002244842792
     RDKit          3D

 22 22  0  0  0  0  0  0  0  0999 V2000
   12.6060   15.7500   21.7410 C   0  0  0  0  0  0  0  0  0  0  0  0
   12.5390   14.2660   21.4590 C   0  0  0  0  0  0  0  0  0  0  0  0
   11.2500   13.6990   21.7840 N   0  0  0  0  0  0  0  0  0  0  0  0
   10.8310   13.7470   23.0910 C   0  0  0  0  0  0  0  0  0  0  0  0
   11.2510   14.5830   23.8770 O   0  0  0  0  0  0  0  0  0  0  0  0
    9.9500   12.8480   23.5640 C   0  0  0  0  0  0  0  0  0  0  0  0
    8.8450   13.2410   24.4880 C   0  0  0  0  0  0  0  0  0  0  0  0
    7.9860   12.2730   24.9760 C   0  0  0  0  0  0  0  0  0  0  0  0
    8.1770   10.9480   24.5920 C   0  0  0  0  0  0  0  0  0  0  0  0
    7.3350   10.0540   25.1020 F   0  0  0  0  0  0  0  0  0  0  0  0
    9.1870   10.5450   23.7210 C   0  0  0  0  0  0  0  0  0  0  0  0
   10.0700   11.4970   23.2030 C   0  0  0  0  0  0  0  0  0  0  0  0
   11.6580   16.2490   21.5110 H   0  0  0  0  0  0  0  0  0  0  0  0
   13.4000   16.2110   21.1450 H   0  0  0  0  0  0  0  0  0  0  0  0
   12.8370   15.9280   22.7980 H   0  0  0  0  0  0  0  0  0  0  0  0
   13.2960   13.7480   22.0640 H   0  0  0  0  0  0  0  0  0  0  0  0
   12.7780   14.0680   20.4080 H   0  0  0  0  0  0  0  0  0  0  0  0
   10.9640   12.9150   21.2060 H   0  0  0  0  0  0  0  0  0  0  0  0
    8.7030   14.2710   24.7930 H   0  0  0  0  0  0  0  0  0  0  0  0
    7.1790   12.5280   25.6500 H   0  0  0  0  0  0  0  0  0  0  0  0
    9.2820    9.4950   23.4510 H   0  0  0  0  0  0  0  0  0  0  0  0
   10.8580   11.1800   22.5240 H   0  0  0  0  0  0  0  0  0  0  0  0
  1  2  1  0
  2  3  1  0
  3  4  1  0
  4  5  2  0
  4  6  1  0
  6  7  2  0
  7  8  1  0
  8  9  2  0
  9 10  1  0
  9 11  1  0
 11 12  2  0
 12  6  1  0
  1 13  1  0
  1 14  1  0
  1 15  1  0
  2 16  1  0
  2 17  1  0
  3 18  1  0
  7 19  1  0
  8 20  1  0
 11 21  1  0
 12 22  1  0
A    1
 C1 
A    2
 C2 
A    3
 N1 
A    4
 C3 
A    5
 O1 
A    6
 C4 
A    7
 C5 
A    8
 C6 
A    9
 C7 
A   10
 F1 
A   11
 C8 
A   12
 C9 
A   13
 H1 
A   14
 H2 
A   15
 H3 
A   16
 H4 
A   17
 H5 
A   18
 H6 
A   19
 H7 
A   20
 H8 
A   21
 H9 
A   22
 H10
M  END
>  <ref_pdb>  (42) 
x0310_0A

>  <ref_mols>  (42) 
x0554_0A,x0719_0A

>  <original SMILES>  (42) 
CCNC(=O)c1ccc(F)cc1

>  <rationale>  (42) 
info halogenbond:S105+G127+D39+A86+S125+E85+Q95+E106+T126+P107+H104+Y64+C65+S87+N129+F83+R93+L131+I82+G128+P91+N19+H21+V84+G133+Y90+Y89+H97+L81+F134+L98+R20+G103+S66+S67+S7+G108+R38+V124+M99+S36; hbond:S87+S125+Y90+G108+G103+G128+G130+L131+N129+N19+H104+R68+V124+R93+P91+F83+S67+S7+S66+G112+V132+R20+Y89+S77+A135+Y63+A92+A101+M99+F134+L100+I82+Y64+S36+L98+V84+L81+Y94+S80+R38+S37+V102+G8+I123+G111+I113+L114+C65+L22+S96; hydroph_interaction:Y90+Y89+P107+E106+N129+N19+L40+I123+A135+Q95+I82+L100+L98+L131+F83+R93+V132+Y63+F134+H104+R20+A86+V74+P91+A101+F76+M99+L114+A92+Y94+R68+Y72+Y64+V18+V102+W28+G127+G128+L81; pication:H21+H104+R93+Y63+F134+Y90+R68+F83+R20; pistack:H21+Y89+Y90+H104+F134+Y63+F83+Y94; saltbridge:D39+R93+H104+E106+D109+E85+E88+R68+R20; 

>  <intxn_cluster>  (42) 
-1

>  <intxn_cluster_rank>  (42) 
-1

>  <N_interactions>  (42) 
6

>  <∆∆G>  (42) 
-6.947464

>  <$/mg>  (42) 
163.0

>  <comRMSD>  (42) 
0.555796

>  <N_rotatable_bonds>  (42) 
3

>  <deep_P1_sidechain>  (42) 
nan

>  <farthest_distance_to_substrate>  (42) 
3.115696

>  <hbond:SER:7>  (42) 
hbond:SER:7    NaN
hbond:SER:7     -1
Name: 41, dtype: object

>  <halogenbond:SER:7>  (42) 
halogenbond:SER:7    NaN
halogenbond:SER:7     -1
Name: 41, dtype: object

>  <hbond:GLY:8>  (42) 
hbond:GLY:8    NaN
hbond:GLY:8     -1
Name: 41, dtype: object

>  <hydroph_interaction:VAL:18>  (42) 
hydroph_interaction:VAL:18    NaN
hydroph_interaction:VAL:18     -1
Name: 41, dtype: object

>  <hbond:ASN:19>  (42) 
hbond:ASN:19    NaN
hbond:ASN:19     -1
Name: 41, dtype: object

>  <hydroph_interaction:ASN:19>  (42) 
hydroph_interaction:ASN:19    NaN
hydroph_interaction:ASN:19     -1
Name: 41, dtype: object

>  <halogenbond:ASN:19>  (42) 
halogenbond:ASN:19    NaN
halogenbond:ASN:19     -1
Name: 41, dtype: object

>  <hbond:ARG:20>  (42) 
hbond:ARG:20    NaN
hbond:ARG:20     -1
Name: 41, dtype: object

>  <hydroph_interaction:ARG:20>  (42) 
hydroph_interaction:ARG:20    NaN
hydroph_interaction:ARG:20     -1
Name: 41, dtype: object

>  <saltbridge:ARG:20>  (42) 
saltbridge:ARG:20    NaN
saltbridge:ARG:20     -1
Name: 41, dtype: object

>  <halogenbond:ARG:20>  (42) 
halogenbond:ARG:20    NaN
halogenbond:ARG:20     -1
Name: 41, dtype: object

>  <pication:ARG:20>  (42) 
pication:ARG:20    NaN
pication:ARG:20     -1
Name: 41, dtype: object

>  <hbond:HIS:21>  (42) 
hbond:HIS:21    0.0
hbond:HIS:21      0
Name: 41, dtype: object

>  <hydroph_interaction:HIS:21>  (42) 
hydroph_interaction:HIS:21    0.0
hydroph_interaction:HIS:21      0
Name: 41, dtype: object

>  <pistack:HIS:21>  (42) 
pistack:HIS:21    NaN
pistack:HIS:21     -1
Name: 41, dtype: object

>  <pication:HIS:21>  (42) 
pication:HIS:21    NaN
pication:HIS:21     -1
Name: 41, dtype: object

>  <saltbridge:HIS:21>  (42) 
saltbridge:HIS:21    0.0
saltbridge:HIS:21      0
Name: 41, dtype: object

>  <halogenbond:HIS:21>  (42) 
halogenbond:HIS:21    NaN
halogenbond:HIS:21     -1
Name: 41, dtype: object

>  <hydroph_interaction:LEU:22>  (42) 
hydroph_interaction:LEU:22    0.0
hydroph_interaction:LEU:22      0
Name: 41, dtype: object

>  <hbond:LEU:22>  (42) 
hbond:LEU:22    NaN
hbond:LEU:22     -1
Name: 41, dtype: object

>  <hydroph_interaction:TRP:28>  (42) 
hydroph_interaction:TRP:28    NaN
hydroph_interaction:TRP:28     -1
Name: 41, dtype: object

>  <hbond:SER:36>  (42) 
hbond:SER:36    NaN
hbond:SER:36     -1
Name: 41, dtype: object

>  <halogenbond:SER:36>  (42) 
halogenbond:SER:36    NaN
halogenbond:SER:36     -1
Name: 41, dtype: object

>  <hbond:SER:37>  (42) 
hbond:SER:37    NaN
hbond:SER:37     -1
Name: 41, dtype: object

>  <hbond:ARG:38>  (42) 
hbond:ARG:38    NaN
hbond:ARG:38     -1
Name: 41, dtype: object

>  <halogenbond:ARG:38>  (42) 
halogenbond:ARG:38    NaN
halogenbond:ARG:38     -1
Name: 41, dtype: object

>  <saltbridge:ASP:39>  (42) 
saltbridge:ASP:39    NaN
saltbridge:ASP:39     -1
Name: 41, dtype: object

>  <halogenbond:ASP:39>  (42) 
halogenbond:ASP:39    NaN
halogenbond:ASP:39     -1
Name: 41, dtype: object

>  <hbond:ASP:39>  (42) 
hbond:ASP:39    0.0
hbond:ASP:39      0
Name: 41, dtype: object

>  <hydroph_interaction:ASP:39>  (42) 
hydroph_interaction:ASP:39    0.0
hydroph_interaction:ASP:39      0
Name: 41, dtype: object

>  <hydroph_interaction:LEU:40>  (42) 
hydroph_interaction:LEU:40    NaN
hydroph_interaction:LEU:40     -1
Name: 41, dtype: object

>  <hydroph_interaction:TYR:63>  (42) 
hydroph_interaction:TYR:63    NaN
hydroph_interaction:TYR:63     -1
Name: 41, dtype: object

>  <hbond:TYR:63>  (42) 
hbond:TYR:63    NaN
hbond:TYR:63     -1
Name: 41, dtype: object

>  <pistack:TYR:63>  (42) 
pistack:TYR:63    NaN
pistack:TYR:63     -1
Name: 41, dtype: object

>  <pication:TYR:63>  (42) 
pication:TYR:63    NaN
pication:TYR:63     -1
Name: 41, dtype: object

>  <halogenbond:TYR:64>  (42) 
halogenbond:TYR:64    NaN
halogenbond:TYR:64     -1
Name: 41, dtype: object

>  <hbond:TYR:64>  (42) 
hbond:TYR:64    NaN
hbond:TYR:64     -1
Name: 41, dtype: object

>  <hydroph_interaction:TYR:64>  (42) 
hydroph_interaction:TYR:64    NaN
hydroph_interaction:TYR:64     -1
Name: 41, dtype: object

>  <halogenbond:CYS:65>  (42) 
halogenbond:CYS:65    NaN
halogenbond:CYS:65     -1
Name: 41, dtype: object

>  <hbond:CYS:65>  (42) 
hbond:CYS:65    NaN
hbond:CYS:65     -1
Name: 41, dtype: object

>  <hbond:SER:66>  (42) 
hbond:SER:66    NaN
hbond:SER:66     -1
Name: 41, dtype: object

>  <halogenbond:SER:66>  (42) 
halogenbond:SER:66    NaN
halogenbond:SER:66     -1
Name: 41, dtype: object

>  <hbond:SER:67>  (42) 
hbond:SER:67    NaN
hbond:SER:67     -1
Name: 41, dtype: object

>  <halogenbond:SER:67>  (42) 
halogenbond:SER:67    NaN
halogenbond:SER:67     -1
Name: 41, dtype: object

>  <hbond:ARG:68>  (42) 
hbond:ARG:68    NaN
hbond:ARG:68     -1
Name: 41, dtype: object

>  <saltbridge:ARG:68>  (42) 
saltbridge:ARG:68    NaN
saltbridge:ARG:68     -1
Name: 41, dtype: object

>  <hydroph_interaction:ARG:68>  (42) 
hydroph_interaction:ARG:68    NaN
hydroph_interaction:ARG:68     -1
Name: 41, dtype: object

>  <pication:ARG:68>  (42) 
pication:ARG:68    NaN
pication:ARG:68     -1
Name: 41, dtype: object

>  <hydroph_interaction:TYR:72>  (42) 
hydroph_interaction:TYR:72    NaN
hydroph_interaction:TYR:72     -1
Name: 41, dtype: object

>  <hydroph_interaction:VAL:74>  (42) 
hydroph_interaction:VAL:74    NaN
hydroph_interaction:VAL:74     -1
Name: 41, dtype: object

>  <hydroph_interaction:PHE:76>  (42) 
hydroph_interaction:PHE:76    NaN
hydroph_interaction:PHE:76     -1
Name: 41, dtype: object

>  <hbond:SER:77>  (42) 
hbond:SER:77    NaN
hbond:SER:77     -1
Name: 41, dtype: object

>  <hbond:SER:80>  (42) 
hbond:SER:80    NaN
hbond:SER:80     -1
Name: 41, dtype: object

>  <hbond:LEU:81>  (42) 
hbond:LEU:81    NaN
hbond:LEU:81     -1
Name: 41, dtype: object

>  <halogenbond:LEU:81>  (42) 
halogenbond:LEU:81    NaN
halogenbond:LEU:81     -1
Name: 41, dtype: object

>  <hydroph_interaction:LEU:81>  (42) 
hydroph_interaction:LEU:81    NaN
hydroph_interaction:LEU:81     -1
Name: 41, dtype: object

>  <hydroph_interaction:ILE:82>  (42) 
hydroph_interaction:ILE:82    NaN
hydroph_interaction:ILE:82     -1
Name: 41, dtype: object

>  <halogenbond:ILE:82>  (42) 
halogenbond:ILE:82    NaN
halogenbond:ILE:82     -1
Name: 41, dtype: object

>  <hbond:ILE:82>  (42) 
hbond:ILE:82    NaN
hbond:ILE:82     -1
Name: 41, dtype: object

>  <hbond:PHE:83>  (42) 
hbond:PHE:83    NaN
hbond:PHE:83     -1
Name: 41, dtype: object

>  <hydroph_interaction:PHE:83>  (42) 
hydroph_interaction:PHE:83    NaN
hydroph_interaction:PHE:83     -1
Name: 41, dtype: object

>  <halogenbond:PHE:83>  (42) 
halogenbond:PHE:83    NaN
halogenbond:PHE:83     -1
Name: 41, dtype: object

>  <pistack:PHE:83>  (42) 
pistack:PHE:83    NaN
pistack:PHE:83     -1
Name: 41, dtype: object

>  <pication:PHE:83>  (42) 
pication:PHE:83    NaN
pication:PHE:83     -1
Name: 41, dtype: object

>  <hydroph_interaction:VAL:84>  (42) 
hydroph_interaction:VAL:84    0.0
hydroph_interaction:VAL:84      0
Name: 41, dtype: object

>  <halogenbond:VAL:84>  (42) 
halogenbond:VAL:84    NaN
halogenbond:VAL:84     -1
Name: 41, dtype: object

>  <hbond:VAL:84>  (42) 
hbond:VAL:84    NaN
hbond:VAL:84     -1
Name: 41, dtype: object

>  <hydroph_interaction:GLU:85>  (42) 
hydroph_interaction:GLU:85    0.0
hydroph_interaction:GLU:85      0
Name: 41, dtype: object

>  <hbond:GLU:85>  (42) 
hbond:GLU:85    0.0
hbond:GLU:85      0
Name: 41, dtype: object

>  <halogenbond:GLU:85>  (42) 
halogenbond:GLU:85    NaN
halogenbond:GLU:85     -1
Name: 41, dtype: object

>  <saltbridge:GLU:85>  (42) 
saltbridge:GLU:85    NaN
saltbridge:GLU:85     -1
Name: 41, dtype: object

>  <halogenbond:ALA:86>  (42) 
halogenbond:ALA:86    NaN
halogenbond:ALA:86     -1
Name: 41, dtype: object

>  <hbond:ALA:86>  (42) 
hbond:ALA:86    0.0
hbond:ALA:86      0
Name: 41, dtype: object

>  <hydroph_interaction:ALA:86>  (42) 
hydroph_interaction:ALA:86    NaN
hydroph_interaction:ALA:86     -1
Name: 41, dtype: object

>  <hbond:SER:87>  (42) 
hbond:SER:87    1
hbond:SER:87    1
Name: 41, dtype: object

>  <halogenbond:SER:87>  (42) 
halogenbond:SER:87    NaN
halogenbond:SER:87     -1
Name: 41, dtype: object

>  <hbond:GLU:88>  (42) 
hbond:GLU:88    0.0
hbond:GLU:88      0
Name: 41, dtype: object

>  <hydroph_interaction:GLU:88>  (42) 
hydroph_interaction:GLU:88    0.0
hydroph_interaction:GLU:88      0
Name: 41, dtype: object

>  <halogenbond:GLU:88>  (42) 
halogenbond:GLU:88    0.0
halogenbond:GLU:88      0
Name: 41, dtype: object

>  <saltbridge:GLU:88>  (42) 
saltbridge:GLU:88    NaN
saltbridge:GLU:88     -1
Name: 41, dtype: object

>  <hydroph_interaction:TYR:89>  (42) 
hydroph_interaction:TYR:89    1.0
hydroph_interaction:TYR:89      1
Name: 41, dtype: object

>  <pistack:TYR:89>  (42) 
pistack:TYR:89    NaN
pistack:TYR:89     -1
Name: 41, dtype: object

>  <hbond:TYR:89>  (42) 
hbond:TYR:89    NaN
hbond:TYR:89     -1
Name: 41, dtype: object

>  <halogenbond:TYR:89>  (42) 
halogenbond:TYR:89    NaN
halogenbond:TYR:89     -1
Name: 41, dtype: object

>  <hydroph_interaction:TYR:90>  (42) 
hydroph_interaction:TYR:90    1.0
hydroph_interaction:TYR:90      1
Name: 41, dtype: object

>  <hbond:TYR:90>  (42) 
hbond:TYR:90    NaN
hbond:TYR:90     -1
Name: 41, dtype: object

>  <pistack:TYR:90>  (42) 
pistack:TYR:90    NaN
pistack:TYR:90     -1
Name: 41, dtype: object

>  <halogenbond:TYR:90>  (42) 
halogenbond:TYR:90    NaN
halogenbond:TYR:90     -1
Name: 41, dtype: object

>  <pication:TYR:90>  (42) 
pication:TYR:90    NaN
pication:TYR:90     -1
Name: 41, dtype: object

>  <hbond:PRO:91>  (42) 
hbond:PRO:91    NaN
hbond:PRO:91     -1
Name: 41, dtype: object

>  <hydroph_interaction:PRO:91>  (42) 
hydroph_interaction:PRO:91    NaN
hydroph_interaction:PRO:91     -1
Name: 41, dtype: object

>  <halogenbond:PRO:91>  (42) 
halogenbond:PRO:91    NaN
halogenbond:PRO:91     -1
Name: 41, dtype: object

>  <hbond:ALA:92>  (42) 
hbond:ALA:92    NaN
hbond:ALA:92     -1
Name: 41, dtype: object

>  <hydroph_interaction:ALA:92>  (42) 
hydroph_interaction:ALA:92    NaN
hydroph_interaction:ALA:92     -1
Name: 41, dtype: object

>  <saltbridge:ARG:93>  (42) 
saltbridge:ARG:93    NaN
saltbridge:ARG:93     -1
Name: 41, dtype: object

>  <hbond:ARG:93>  (42) 
hbond:ARG:93    NaN
hbond:ARG:93     -1
Name: 41, dtype: object

>  <hydroph_interaction:ARG:93>  (42) 
hydroph_interaction:ARG:93    NaN
hydroph_interaction:ARG:93     -1
Name: 41, dtype: object

>  <halogenbond:ARG:93>  (42) 
halogenbond:ARG:93    NaN
halogenbond:ARG:93     -1
Name: 41, dtype: object

>  <pication:ARG:93>  (42) 
pication:ARG:93    NaN
pication:ARG:93     -1
Name: 41, dtype: object

>  <hydroph_interaction:TYR:94>  (42) 
hydroph_interaction:TYR:94    NaN
hydroph_interaction:TYR:94     -1
Name: 41, dtype: object

>  <pistack:TYR:94>  (42) 
pistack:TYR:94    NaN
pistack:TYR:94     -1
Name: 41, dtype: object

>  <hbond:TYR:94>  (42) 
hbond:TYR:94    NaN
hbond:TYR:94     -1
Name: 41, dtype: object

>  <hbond:GLN:95>  (42) 
hbond:GLN:95    0.0
hbond:GLN:95      0
Name: 41, dtype: object

>  <hydroph_interaction:GLN:95>  (42) 
hydroph_interaction:GLN:95    NaN
hydroph_interaction:GLN:95     -1
Name: 41, dtype: object

>  <halogenbond:GLN:95>  (42) 
halogenbond:GLN:95    NaN
halogenbond:GLN:95     -1
Name: 41, dtype: object

>  <hbond:SER:96>  (42) 
hbond:SER:96    NaN
hbond:SER:96     -1
Name: 41, dtype: object

>  <halogenbond:HIS:97>  (42) 
halogenbond:HIS:97    NaN
halogenbond:HIS:97     -1
Name: 41, dtype: object

>  <hydroph_interaction:LEU:98>  (42) 
hydroph_interaction:LEU:98    NaN
hydroph_interaction:LEU:98     -1
Name: 41, dtype: object

>  <hbond:LEU:98>  (42) 
hbond:LEU:98    NaN
hbond:LEU:98     -1
Name: 41, dtype: object

>  <halogenbond:LEU:98>  (42) 
halogenbond:LEU:98    NaN
halogenbond:LEU:98     -1
Name: 41, dtype: object

>  <hbond:MET:99>  (42) 
hbond:MET:99    NaN
hbond:MET:99     -1
Name: 41, dtype: object

>  <hydroph_interaction:MET:99>  (42) 
hydroph_interaction:MET:99    NaN
hydroph_interaction:MET:99     -1
Name: 41, dtype: object

>  <halogenbond:MET:99>  (42) 
halogenbond:MET:99    NaN
halogenbond:MET:99     -1
Name: 41, dtype: object

>  <hydroph_interaction:LEU:100>  (42) 
hydroph_interaction:LEU:100    NaN
hydroph_interaction:LEU:100     -1
Name: 41, dtype: object

>  <hbond:LEU:100>  (42) 
hbond:LEU:100    NaN
hbond:LEU:100     -1
Name: 41, dtype: object

>  <hbond:ALA:101>  (42) 
hbond:ALA:101    NaN
hbond:ALA:101     -1
Name: 41, dtype: object

>  <hydroph_interaction:ALA:101>  (42) 
hydroph_interaction:ALA:101    NaN
hydroph_interaction:ALA:101     -1
Name: 41, dtype: object

>  <hydroph_interaction:VAL:102>  (42) 
hydroph_interaction:VAL:102    NaN
hydroph_interaction:VAL:102     -1
Name: 41, dtype: object

>  <hbond:VAL:102>  (42) 
hbond:VAL:102    NaN
hbond:VAL:102     -1
Name: 41, dtype: object

>  <hbond:GLY:103>  (42) 
hbond:GLY:103    NaN
hbond:GLY:103     -1
Name: 41, dtype: object

>  <halogenbond:GLY:103>  (42) 
halogenbond:GLY:103    NaN
halogenbond:GLY:103     -1
Name: 41, dtype: object

>  <hbond:HIS:104>  (42) 
hbond:HIS:104    NaN
hbond:HIS:104     -1
Name: 41, dtype: object

>  <saltbridge:HIS:104>  (42) 
saltbridge:HIS:104    NaN
saltbridge:HIS:104     -1
Name: 41, dtype: object

>  <pication:HIS:104>  (42) 
pication:HIS:104    NaN
pication:HIS:104     -1
Name: 41, dtype: object

>  <halogenbond:HIS:104>  (42) 
halogenbond:HIS:104    NaN
halogenbond:HIS:104     -1
Name: 41, dtype: object

>  <hydroph_interaction:HIS:104>  (42) 
hydroph_interaction:HIS:104    NaN
hydroph_interaction:HIS:104     -1
Name: 41, dtype: object

>  <pistack:HIS:104>  (42) 
pistack:HIS:104    NaN
pistack:HIS:104     -1
Name: 41, dtype: object

>  <halogenbond:SER:105>  (42) 
halogenbond:SER:105    1.0
halogenbond:SER:105      1
Name: 41, dtype: object

>  <hbond:SER:105>  (42) 
hbond:SER:105    0.0
hbond:SER:105      0
Name: 41, dtype: object

>  <hbond:GLU:106>  (42) 
hbond:GLU:106    0.0
hbond:GLU:106      0
Name: 41, dtype: object

>  <hydroph_interaction:GLU:106>  (42) 
hydroph_interaction:GLU:106    NaN
hydroph_interaction:GLU:106     -1
Name: 41, dtype: object

>  <saltbridge:GLU:106>  (42) 
saltbridge:GLU:106    NaN
saltbridge:GLU:106     -1
Name: 41, dtype: object

>  <halogenbond:GLU:106>  (42) 
halogenbond:GLU:106    NaN
halogenbond:GLU:106     -1
Name: 41, dtype: object

>  <hydroph_interaction:PRO:107>  (42) 
hydroph_interaction:PRO:107    1
hydroph_interaction:PRO:107    1
Name: 41, dtype: object

>  <hbond:PRO:107>  (42) 
hbond:PRO:107    0.0
hbond:PRO:107      0
Name: 41, dtype: object

>  <halogenbond:PRO:107>  (42) 
halogenbond:PRO:107    NaN
halogenbond:PRO:107     -1
Name: 41, dtype: object

>  <hbond:GLY:108>  (42) 
hbond:GLY:108    NaN
hbond:GLY:108     -1
Name: 41, dtype: object

>  <halogenbond:GLY:108>  (42) 
halogenbond:GLY:108    NaN
halogenbond:GLY:108     -1
Name: 41, dtype: object

>  <hbond:ASP:109>  (42) 
hbond:ASP:109    0.0
hbond:ASP:109      0
Name: 41, dtype: object

>  <hydroph_interaction:ASP:109>  (42) 
hydroph_interaction:ASP:109    0.0
hydroph_interaction:ASP:109      0
Name: 41, dtype: object

>  <saltbridge:ASP:109>  (42) 
saltbridge:ASP:109    NaN
saltbridge:ASP:109     -1
Name: 41, dtype: object

>  <halogenbond:CYS:110>  (42) 
halogenbond:CYS:110    0.0
halogenbond:CYS:110      0
Name: 41, dtype: object

>  <hbond:CYS:110>  (42) 
hbond:CYS:110    0.0
hbond:CYS:110      0
Name: 41, dtype: object

>  <hbond:GLY:111>  (42) 
hbond:GLY:111    NaN
hbond:GLY:111     -1
Name: 41, dtype: object

>  <hbond:GLY:112>  (42) 
hbond:GLY:112    NaN
hbond:GLY:112     -1
Name: 41, dtype: object

>  <hbond:ILE:113>  (42) 
hbond:ILE:113    NaN
hbond:ILE:113     -1
Name: 41, dtype: object

>  <hydroph_interaction:LEU:114>  (42) 
hydroph_interaction:LEU:114    NaN
hydroph_interaction:LEU:114     -1
Name: 41, dtype: object

>  <hbond:LEU:114>  (42) 
hbond:LEU:114    NaN
hbond:LEU:114     -1
Name: 41, dtype: object

>  <hydroph_interaction:ILE:123>  (42) 
hydroph_interaction:ILE:123    NaN
hydroph_interaction:ILE:123     -1
Name: 41, dtype: object

>  <hbond:ILE:123>  (42) 
hbond:ILE:123    NaN
hbond:ILE:123     -1
Name: 41, dtype: object

>  <hydroph_interaction:VAL:124>  (42) 
hydroph_interaction:VAL:124    0.0
hydroph_interaction:VAL:124      0
Name: 41, dtype: object

>  <hbond:VAL:124>  (42) 
hbond:VAL:124    NaN
hbond:VAL:124     -1
Name: 41, dtype: object

>  <halogenbond:VAL:124>  (42) 
halogenbond:VAL:124    NaN
halogenbond:VAL:124     -1
Name: 41, dtype: object

>  <hbond:SER:125>  (42) 
hbond:SER:125    1
hbond:SER:125    1
Name: 41, dtype: object

>  <halogenbond:SER:125>  (42) 
halogenbond:SER:125    NaN
halogenbond:SER:125     -1
Name: 41, dtype: object

>  <hydroph_interaction:THR:126>  (42) 
hydroph_interaction:THR:126    0.0
hydroph_interaction:THR:126      0
Name: 41, dtype: object

>  <hbond:THR:126>  (42) 
hbond:THR:126    0.0
hbond:THR:126      0
Name: 41, dtype: object

>  <halogenbond:THR:126>  (42) 
halogenbond:THR:126    NaN
halogenbond:THR:126     -1
Name: 41, dtype: object

>  <hbond:GLY:127>  (42) 
hbond:GLY:127    0
hbond:GLY:127    0
Name: 41, dtype: object

>  <halogenbond:GLY:127>  (42) 
halogenbond:GLY:127    NaN
halogenbond:GLY:127     -1
Name: 41, dtype: object

>  <hydroph_interaction:GLY:127>  (42) 
hydroph_interaction:GLY:127    NaN
hydroph_interaction:GLY:127     -1
Name: 41, dtype: object

>  <hbond:GLY:128>  (42) 
hbond:GLY:128    NaN
hbond:GLY:128     -1
Name: 41, dtype: object

>  <halogenbond:GLY:128>  (42) 
halogenbond:GLY:128    NaN
halogenbond:GLY:128     -1
Name: 41, dtype: object

>  <hydroph_interaction:GLY:128>  (42) 
hydroph_interaction:GLY:128    NaN
hydroph_interaction:GLY:128     -1
Name: 41, dtype: object

>  <hbond:ASN:129>  (42) 
hbond:ASN:129    NaN
hbond:ASN:129     -1
Name: 41, dtype: object

>  <hydroph_interaction:ASN:129>  (42) 
hydroph_interaction:ASN:129    NaN
hydroph_interaction:ASN:129     -1
Name: 41, dtype: object

>  <halogenbond:ASN:129>  (42) 
halogenbond:ASN:129    NaN
halogenbond:ASN:129     -1
Name: 41, dtype: object

>  <hbond:GLY:130>  (42) 
hbond:GLY:130    NaN
hbond:GLY:130     -1
Name: 41, dtype: object

>  <hbond:LEU:131>  (42) 
hbond:LEU:131    NaN
hbond:LEU:131     -1
Name: 41, dtype: object

>  <hydroph_interaction:LEU:131>  (42) 
hydroph_interaction:LEU:131    NaN
hydroph_interaction:LEU:131     -1
Name: 41, dtype: object

>  <halogenbond:LEU:131>  (42) 
halogenbond:LEU:131    NaN
halogenbond:LEU:131     -1
Name: 41, dtype: object

>  <hydroph_interaction:VAL:132>  (42) 
hydroph_interaction:VAL:132    NaN
hydroph_interaction:VAL:132     -1
Name: 41, dtype: object

>  <hbond:VAL:132>  (42) 
hbond:VAL:132    NaN
hbond:VAL:132     -1
Name: 41, dtype: object

>  <hbond:GLY:133>  (42) 
hbond:GLY:133    0.0
hbond:GLY:133      0
Name: 41, dtype: object

>  <halogenbond:GLY:133>  (42) 
halogenbond:GLY:133    NaN
halogenbond:GLY:133     -1
Name: 41, dtype: object

>  <hydroph_interaction:PHE:134>  (42) 
hydroph_interaction:PHE:134    NaN
hydroph_interaction:PHE:134     -1
Name: 41, dtype: object

>  <hbond:PHE:134>  (42) 
hbond:PHE:134    NaN
hbond:PHE:134     -1
Name: 41, dtype: object

>  <pistack:PHE:134>  (42) 
pistack:PHE:134    NaN
pistack:PHE:134     -1
Name: 41, dtype: object

>  <pication:PHE:134>  (42) 
pication:PHE:134    NaN
pication:PHE:134     -1
Name: 41, dtype: object

>  <halogenbond:PHE:134>  (42) 
halogenbond:PHE:134    NaN
halogenbond:PHE:134     -1
Name: 41, dtype: object

>  <hydroph_interaction:ALA:135>  (42) 
hydroph_interaction:ALA:135    NaN
hydroph_interaction:ALA:135     -1
Name: 41, dtype: object

>  <hbond:ALA:135>  (42) 
hbond:ALA:135    NaN
hbond:ALA:135     -1
Name: 41, dtype: object

$$$$
Z1529755699
     RDKit          3D

 27 27  0  0  0  0  0  0  0  0999 V2000
    9.6250   16.4340   18.4410 C   0  0  0  0  0  0  0  0  0  0  0  0
    9.0530   16.0440   19.7640 C   0  0  0  0  0  0  0  0  0  0  0  0
    9.3240   14.8710   20.4900 C   0  0  0  0  0  0  0  0  0  0  0  0
    8.7200   14.5060   21.6860 C   0  0  0  0  0  0  0  0  0  0  0  0
    7.5120   14.6670   21.8210 O   0  0  0  0  0  0  0  0  0  0  0  0
    9.5500   13.9490   22.6350 N   0  0  0  0  0  0  0  0  0  0  0  0
    9.1590   12.7920   23.3290 C   0  0  0  0  0  0  0  0  0  0  0  0
    8.0810   12.7450   24.2150 C   0  0  0  0  0  0  0  0  0  0  0  0
    7.7370   11.5440   24.8500 C   0  0  0  0  0  0  0  0  0  0  0  0
    6.5750   11.4820   25.8210 C   0  0  0  0  0  0  0  0  0  0  0  0
    8.4680   10.3960   24.5830 C   0  0  0  0  0  0  0  0  0  0  0  0
    9.5400   10.4270   23.7160 C   0  0  0  0  0  0  0  0  0  0  0  0
    9.8740   11.6260   23.1120 C   0  0  0  0  0  0  0  0  0  0  0  0
   10.9250   11.7030   22.2840 O   0  0  0  0  0  0  0  0  0  0  0  0
    8.9520   16.0760   17.6590 H   0  0  0  0  0  0  0  0  0  0  0  0
    9.6930   17.5070   18.3090 H   0  0  0  0  0  0  0  0  0  0  0  0
   10.6210   16.0040   18.3050 H   0  0  0  0  0  0  0  0  0  0  0  0
    8.3200   16.7300   20.2040 H   0  0  0  0  0  0  0  0  0  0  0  0
   10.0500   14.1570   20.0860 H   0  0  0  0  0  0  0  0  0  0  0  0
   10.5460   14.0020   22.4380 H   0  0  0  0  0  0  0  0  0  0  0  0
    7.4870   13.6280   24.4310 H   0  0  0  0  0  0  0  0  0  0  0  0
    6.1460   10.4740   25.8510 H   0  0  0  0  0  0  0  0  0  0  0  0
    5.8080   12.1800   25.4650 H   0  0  0  0  0  0  0  0  0  0  0  0
    6.8700   11.7840   26.8290 H   0  0  0  0  0  0  0  0  0  0  0  0
    8.1980    9.4610   25.0620 H   0  0  0  0  0  0  0  0  0  0  0  0
   10.1060    9.5160   23.5260 H   0  0  0  0  0  0  0  0  0  0  0  0
   10.6480   11.9360   21.3880 H   0  0  0  0  0  0  0  0  0  0  0  0
  1  2  1  0
  2  3  2  3
  3  4  1  0
  4  5  2  0
  4  6  1  0
  6  7  1  0
  7  8  2  0
  8  9  1  0
  9 10  1  0
  9 11  2  0
 11 12  1  0
 12 13  2  0
 13 14  1  0
 13  7  1  0
  1 15  1  0
  1 16  1  0
  1 17  1  0
  2 18  1  0
  3 19  1  0
  6 20  1  0
  8 21  1  0
 10 22  1  0
 10 23  1  0
 10 24  1  0
 11 25  1  0
 12 26  1  0
 14 27  1  0
A    1
 C1 
A    2
 C2 
A    3
 C3 
A    4
 C4 
A    5
 O1 
A    6
 N1 
A    7
 C5 
A    8
 C6 
A    9
 C7 
A   10
 C8 
A   11
 C9 
A   12
 C10
A   13
 C11
A   14
 O2 
A   15
 H1 
A   16
 H2 
A   17
 H3 
A   18
 H4 
A   19
 H5 
A   20
 H6 
A   21
 H7 
A   22
 H8 
A   23
 H9 
A   24
 H10
A   25
 H11
A   26
 H12
A   27
 H13
M  END
>  <ref_pdb>  (43) 
x0310_0A

>  <ref_mols>  (43) 
x0554_0A,x0732_0A

>  <original SMILES>  (43) 
CC=CC(=O)Nc1cc(C)ccc1O

>  <rationale>  (43) 
info halogenbond:G127+D39+A86+E85+E106+T126+H104+Y64+C65+S87+N129+F83+R93+L131+I82+G128+P91+N19+H21+V84+G133+Y90+Y89+H97+L81+F134+L98+R20+G103+S66+S67+S7+G108+R38+V124+M99+S36; hbond:S87+G127+D39+G108+G103+G128+G130+L131+N129+N19+H104+R68+V124+R93+P91+F83+S67+S7+S66+G112+G133+V132+R20+Y89+S77+A135+Y63+A92+A101+M99+F134+L100+I82+Y64+S36+L98+V84+L81+Y94+S80+R38+S37+V102+G8+I123+G111+I113+L114+C65+L22+S96; hydroph_interaction:V84+Y90+T126+L22+N129+N19+L40+I123+A135+Q95+I82+L98+F83+R93+Y63+F134+H104+R20+A86+V74+P91+A101+F76+M99+L114+A92+Y94+R68+Y72+Y64+V18+V102+W28+G127+G128+L81; pication:H21+H104+R93+Y63+F134+Y90+R68+F83+R20; pistack:H21+Y89+Y90+H104+F134+Y63+F83+Y94; saltbridge:D39+H21+R93+H104+E106+D109+E88+R68+R20; 

>  <intxn_cluster>  (43) 
-1

>  <intxn_cluster_rank>  (43) 
-1

>  <N_interactions>  (43) 
6

>  <∆∆G>  (43) 
-7.741576

>  <$/mg>  (43) 
163.0

>  <comRMSD>  (43) 
0.850126

>  <N_rotatable_bonds>  (43) 
5

>  <deep_P1_sidechain>  (43) 
nan

>  <farthest_distance_to_substrate>  (43) 
2.368896

>  <hbond:SER:7>  (43) 
hbond:SER:7    NaN
hbond:SER:7     -1
Name: 42, dtype: object

>  <halogenbond:SER:7>  (43) 
halogenbond:SER:7    NaN
halogenbond:SER:7     -1
Name: 42, dtype: object

>  <hbond:GLY:8>  (43) 
hbond:GLY:8    NaN
hbond:GLY:8     -1
Name: 42, dtype: object

>  <hydroph_interaction:VAL:18>  (43) 
hydroph_interaction:VAL:18    NaN
hydroph_interaction:VAL:18     -1
Name: 42, dtype: object

>  <hbond:ASN:19>  (43) 
hbond:ASN:19    NaN
hbond:ASN:19     -1
Name: 42, dtype: object

>  <hydroph_interaction:ASN:19>  (43) 
hydroph_interaction:ASN:19    NaN
hydroph_interaction:ASN:19     -1
Name: 42, dtype: object

>  <halogenbond:ASN:19>  (43) 
halogenbond:ASN:19    NaN
halogenbond:ASN:19     -1
Name: 42, dtype: object

>  <hbond:ARG:20>  (43) 
hbond:ARG:20    NaN
hbond:ARG:20     -1
Name: 42, dtype: object

>  <hydroph_interaction:ARG:20>  (43) 
hydroph_interaction:ARG:20    NaN
hydroph_interaction:ARG:20     -1
Name: 42, dtype: object

>  <saltbridge:ARG:20>  (43) 
saltbridge:ARG:20    NaN
saltbridge:ARG:20     -1
Name: 42, dtype: object

>  <halogenbond:ARG:20>  (43) 
halogenbond:ARG:20    NaN
halogenbond:ARG:20     -1
Name: 42, dtype: object

>  <pication:ARG:20>  (43) 
pication:ARG:20    NaN
pication:ARG:20     -1
Name: 42, dtype: object

>  <hbond:HIS:21>  (43) 
hbond:HIS:21    0.0
hbond:HIS:21      0
Name: 42, dtype: object

>  <hydroph_interaction:HIS:21>  (43) 
hydroph_interaction:HIS:21    0.0
hydroph_interaction:HIS:21      0
Name: 42, dtype: object

>  <pistack:HIS:21>  (43) 
pistack:HIS:21    NaN
pistack:HIS:21     -1
Name: 42, dtype: object

>  <pication:HIS:21>  (43) 
pication:HIS:21    NaN
pication:HIS:21     -1
Name: 42, dtype: object

>  <saltbridge:HIS:21>  (43) 
saltbridge:HIS:21    NaN
saltbridge:HIS:21     -1
Name: 42, dtype: object

>  <halogenbond:HIS:21>  (43) 
halogenbond:HIS:21    NaN
halogenbond:HIS:21     -1
Name: 42, dtype: object

>  <hydroph_interaction:LEU:22>  (43) 
hydroph_interaction:LEU:22    NaN
hydroph_interaction:LEU:22     -1
Name: 42, dtype: object

>  <hbond:LEU:22>  (43) 
hbond:LEU:22    NaN
hbond:LEU:22     -1
Name: 42, dtype: object

>  <hydroph_interaction:TRP:28>  (43) 
hydroph_interaction:TRP:28    NaN
hydroph_interaction:TRP:28     -1
Name: 42, dtype: object

>  <hbond:SER:36>  (43) 
hbond:SER:36    NaN
hbond:SER:36     -1
Name: 42, dtype: object

>  <halogenbond:SER:36>  (43) 
halogenbond:SER:36    NaN
halogenbond:SER:36     -1
Name: 42, dtype: object

>  <hbond:SER:37>  (43) 
hbond:SER:37    NaN
hbond:SER:37     -1
Name: 42, dtype: object

>  <hbond:ARG:38>  (43) 
hbond:ARG:38    NaN
hbond:ARG:38     -1
Name: 42, dtype: object

>  <halogenbond:ARG:38>  (43) 
halogenbond:ARG:38    NaN
halogenbond:ARG:38     -1
Name: 42, dtype: object

>  <saltbridge:ASP:39>  (43) 
saltbridge:ASP:39    NaN
saltbridge:ASP:39     -1
Name: 42, dtype: object

>  <halogenbond:ASP:39>  (43) 
halogenbond:ASP:39    NaN
halogenbond:ASP:39     -1
Name: 42, dtype: object

>  <hbond:ASP:39>  (43) 
hbond:ASP:39    NaN
hbond:ASP:39     -1
Name: 42, dtype: object

>  <hydroph_interaction:ASP:39>  (43) 
hydroph_interaction:ASP:39    0.0
hydroph_interaction:ASP:39      0
Name: 42, dtype: object

>  <hydroph_interaction:LEU:40>  (43) 
hydroph_interaction:LEU:40    NaN
hydroph_interaction:LEU:40     -1
Name: 42, dtype: object

>  <hydroph_interaction:TYR:63>  (43) 
hydroph_interaction:TYR:63    NaN
hydroph_interaction:TYR:63     -1
Name: 42, dtype: object

>  <hbond:TYR:63>  (43) 
hbond:TYR:63    NaN
hbond:TYR:63     -1
Name: 42, dtype: object

>  <pistack:TYR:63>  (43) 
pistack:TYR:63    NaN
pistack:TYR:63     -1
Name: 42, dtype: object

>  <pication:TYR:63>  (43) 
pication:TYR:63    NaN
pication:TYR:63     -1
Name: 42, dtype: object

>  <halogenbond:TYR:64>  (43) 
halogenbond:TYR:64    NaN
halogenbond:TYR:64     -1
Name: 42, dtype: object

>  <hbond:TYR:64>  (43) 
hbond:TYR:64    NaN
hbond:TYR:64     -1
Name: 42, dtype: object

>  <hydroph_interaction:TYR:64>  (43) 
hydroph_interaction:TYR:64    NaN
hydroph_interaction:TYR:64     -1
Name: 42, dtype: object

>  <halogenbond:CYS:65>  (43) 
halogenbond:CYS:65    NaN
halogenbond:CYS:65     -1
Name: 42, dtype: object

>  <hbond:CYS:65>  (43) 
hbond:CYS:65    NaN
hbond:CYS:65     -1
Name: 42, dtype: object

>  <hbond:SER:66>  (43) 
hbond:SER:66    NaN
hbond:SER:66     -1
Name: 42, dtype: object

>  <halogenbond:SER:66>  (43) 
halogenbond:SER:66    NaN
halogenbond:SER:66     -1
Name: 42, dtype: object

>  <hbond:SER:67>  (43) 
hbond:SER:67    NaN
hbond:SER:67     -1
Name: 42, dtype: object

>  <halogenbond:SER:67>  (43) 
halogenbond:SER:67    NaN
halogenbond:SER:67     -1
Name: 42, dtype: object

>  <hbond:ARG:68>  (43) 
hbond:ARG:68    NaN
hbond:ARG:68     -1
Name: 42, dtype: object

>  <saltbridge:ARG:68>  (43) 
saltbridge:ARG:68    NaN
saltbridge:ARG:68     -1
Name: 42, dtype: object

>  <hydroph_interaction:ARG:68>  (43) 
hydroph_interaction:ARG:68    NaN
hydroph_interaction:ARG:68     -1
Name: 42, dtype: object

>  <pication:ARG:68>  (43) 
pication:ARG:68    NaN
pication:ARG:68     -1
Name: 42, dtype: object

>  <hydroph_interaction:TYR:72>  (43) 
hydroph_interaction:TYR:72    NaN
hydroph_interaction:TYR:72     -1
Name: 42, dtype: object

>  <hydroph_interaction:VAL:74>  (43) 
hydroph_interaction:VAL:74    NaN
hydroph_interaction:VAL:74     -1
Name: 42, dtype: object

>  <hydroph_interaction:PHE:76>  (43) 
hydroph_interaction:PHE:76    NaN
hydroph_interaction:PHE:76     -1
Name: 42, dtype: object

>  <hbond:SER:77>  (43) 
hbond:SER:77    NaN
hbond:SER:77     -1
Name: 42, dtype: object

>  <hbond:SER:80>  (43) 
hbond:SER:80    NaN
hbond:SER:80     -1
Name: 42, dtype: object

>  <hbond:LEU:81>  (43) 
hbond:LEU:81    NaN
hbond:LEU:81     -1
Name: 42, dtype: object

>  <halogenbond:LEU:81>  (43) 
halogenbond:LEU:81    NaN
halogenbond:LEU:81     -1
Name: 42, dtype: object

>  <hydroph_interaction:LEU:81>  (43) 
hydroph_interaction:LEU:81    NaN
hydroph_interaction:LEU:81     -1
Name: 42, dtype: object

>  <hydroph_interaction:ILE:82>  (43) 
hydroph_interaction:ILE:82    NaN
hydroph_interaction:ILE:82     -1
Name: 42, dtype: object

>  <halogenbond:ILE:82>  (43) 
halogenbond:ILE:82    NaN
halogenbond:ILE:82     -1
Name: 42, dtype: object

>  <hbond:ILE:82>  (43) 
hbond:ILE:82    NaN
hbond:ILE:82     -1
Name: 42, dtype: object

>  <hbond:PHE:83>  (43) 
hbond:PHE:83    NaN
hbond:PHE:83     -1
Name: 42, dtype: object

>  <hydroph_interaction:PHE:83>  (43) 
hydroph_interaction:PHE:83    NaN
hydroph_interaction:PHE:83     -1
Name: 42, dtype: object

>  <halogenbond:PHE:83>  (43) 
halogenbond:PHE:83    NaN
halogenbond:PHE:83     -1
Name: 42, dtype: object

>  <pistack:PHE:83>  (43) 
pistack:PHE:83    NaN
pistack:PHE:83     -1
Name: 42, dtype: object

>  <pication:PHE:83>  (43) 
pication:PHE:83    NaN
pication:PHE:83     -1
Name: 42, dtype: object

>  <hydroph_interaction:VAL:84>  (43) 
hydroph_interaction:VAL:84    1.0
hydroph_interaction:VAL:84      1
Name: 42, dtype: object

>  <halogenbond:VAL:84>  (43) 
halogenbond:VAL:84    NaN
halogenbond:VAL:84     -1
Name: 42, dtype: object

>  <hbond:VAL:84>  (43) 
hbond:VAL:84    NaN
hbond:VAL:84     -1
Name: 42, dtype: object

>  <hydroph_interaction:GLU:85>  (43) 
hydroph_interaction:GLU:85    0.0
hydroph_interaction:GLU:85      0
Name: 42, dtype: object

>  <hbond:GLU:85>  (43) 
hbond:GLU:85    0.0
hbond:GLU:85      0
Name: 42, dtype: object

>  <halogenbond:GLU:85>  (43) 
halogenbond:GLU:85    NaN
halogenbond:GLU:85     -1
Name: 42, dtype: object

>  <saltbridge:GLU:85>  (43) 
saltbridge:GLU:85    0.0
saltbridge:GLU:85      0
Name: 42, dtype: object

>  <halogenbond:ALA:86>  (43) 
halogenbond:ALA:86    NaN
halogenbond:ALA:86     -1
Name: 42, dtype: object

>  <hbond:ALA:86>  (43) 
hbond:ALA:86    0.0
hbond:ALA:86      0
Name: 42, dtype: object

>  <hydroph_interaction:ALA:86>  (43) 
hydroph_interaction:ALA:86    NaN
hydroph_interaction:ALA:86     -1
Name: 42, dtype: object

>  <hbond:SER:87>  (43) 
hbond:SER:87    2
hbond:SER:87    2
Name: 42, dtype: object

>  <halogenbond:SER:87>  (43) 
halogenbond:SER:87    NaN
halogenbond:SER:87     -1
Name: 42, dtype: object

>  <hbond:GLU:88>  (43) 
hbond:GLU:88    0.0
hbond:GLU:88      0
Name: 42, dtype: object

>  <hydroph_interaction:GLU:88>  (43) 
hydroph_interaction:GLU:88    0.0
hydroph_interaction:GLU:88      0
Name: 42, dtype: object

>  <halogenbond:GLU:88>  (43) 
halogenbond:GLU:88    0.0
halogenbond:GLU:88      0
Name: 42, dtype: object

>  <saltbridge:GLU:88>  (43) 
saltbridge:GLU:88    NaN
saltbridge:GLU:88     -1
Name: 42, dtype: object

>  <hydroph_interaction:TYR:89>  (43) 
hydroph_interaction:TYR:89    0.0
hydroph_interaction:TYR:89      0
Name: 42, dtype: object

>  <pistack:TYR:89>  (43) 
pistack:TYR:89    NaN
pistack:TYR:89     -1
Name: 42, dtype: object

>  <hbond:TYR:89>  (43) 
hbond:TYR:89    NaN
hbond:TYR:89     -1
Name: 42, dtype: object

>  <halogenbond:TYR:89>  (43) 
halogenbond:TYR:89    NaN
halogenbond:TYR:89     -1
Name: 42, dtype: object

>  <hydroph_interaction:TYR:90>  (43) 
hydroph_interaction:TYR:90    1.0
hydroph_interaction:TYR:90      1
Name: 42, dtype: object

>  <hbond:TYR:90>  (43) 
hbond:TYR:90    0.0
hbond:TYR:90      0
Name: 42, dtype: object

>  <pistack:TYR:90>  (43) 
pistack:TYR:90    NaN
pistack:TYR:90     -1
Name: 42, dtype: object

>  <halogenbond:TYR:90>  (43) 
halogenbond:TYR:90    NaN
halogenbond:TYR:90     -1
Name: 42, dtype: object

>  <pication:TYR:90>  (43) 
pication:TYR:90    NaN
pication:TYR:90     -1
Name: 42, dtype: object

>  <hbond:PRO:91>  (43) 
hbond:PRO:91    NaN
hbond:PRO:91     -1
Name: 42, dtype: object

>  <hydroph_interaction:PRO:91>  (43) 
hydroph_interaction:PRO:91    NaN
hydroph_interaction:PRO:91     -1
Name: 42, dtype: object

>  <halogenbond:PRO:91>  (43) 
halogenbond:PRO:91    NaN
halogenbond:PRO:91     -1
Name: 42, dtype: object

>  <hbond:ALA:92>  (43) 
hbond:ALA:92    NaN
hbond:ALA:92     -1
Name: 42, dtype: object

>  <hydroph_interaction:ALA:92>  (43) 
hydroph_interaction:ALA:92    NaN
hydroph_interaction:ALA:92     -1
Name: 42, dtype: object

>  <saltbridge:ARG:93>  (43) 
saltbridge:ARG:93    NaN
saltbridge:ARG:93     -1
Name: 42, dtype: object

>  <hbond:ARG:93>  (43) 
hbond:ARG:93    NaN
hbond:ARG:93     -1
Name: 42, dtype: object

>  <hydroph_interaction:ARG:93>  (43) 
hydroph_interaction:ARG:93    NaN
hydroph_interaction:ARG:93     -1
Name: 42, dtype: object

>  <halogenbond:ARG:93>  (43) 
halogenbond:ARG:93    NaN
halogenbond:ARG:93     -1
Name: 42, dtype: object

>  <pication:ARG:93>  (43) 
pication:ARG:93    NaN
pication:ARG:93     -1
Name: 42, dtype: object

>  <hydroph_interaction:TYR:94>  (43) 
hydroph_interaction:TYR:94    NaN
hydroph_interaction:TYR:94     -1
Name: 42, dtype: object

>  <pistack:TYR:94>  (43) 
pistack:TYR:94    NaN
pistack:TYR:94     -1
Name: 42, dtype: object

>  <hbond:TYR:94>  (43) 
hbond:TYR:94    NaN
hbond:TYR:94     -1
Name: 42, dtype: object

>  <hbond:GLN:95>  (43) 
hbond:GLN:95    0.0
hbond:GLN:95      0
Name: 42, dtype: object

>  <hydroph_interaction:GLN:95>  (43) 
hydroph_interaction:GLN:95    NaN
hydroph_interaction:GLN:95     -1
Name: 42, dtype: object

>  <halogenbond:GLN:95>  (43) 
halogenbond:GLN:95    0.0
halogenbond:GLN:95      0
Name: 42, dtype: object

>  <hbond:SER:96>  (43) 
hbond:SER:96    NaN
hbond:SER:96     -1
Name: 42, dtype: object

>  <halogenbond:HIS:97>  (43) 
halogenbond:HIS:97    NaN
halogenbond:HIS:97     -1
Name: 42, dtype: object

>  <hydroph_interaction:LEU:98>  (43) 
hydroph_interaction:LEU:98    NaN
hydroph_interaction:LEU:98     -1
Name: 42, dtype: object

>  <hbond:LEU:98>  (43) 
hbond:LEU:98    NaN
hbond:LEU:98     -1
Name: 42, dtype: object

>  <halogenbond:LEU:98>  (43) 
halogenbond:LEU:98    NaN
halogenbond:LEU:98     -1
Name: 42, dtype: object

>  <hbond:MET:99>  (43) 
hbond:MET:99    NaN
hbond:MET:99     -1
Name: 42, dtype: object

>  <hydroph_interaction:MET:99>  (43) 
hydroph_interaction:MET:99    NaN
hydroph_interaction:MET:99     -1
Name: 42, dtype: object

>  <halogenbond:MET:99>  (43) 
halogenbond:MET:99    NaN
halogenbond:MET:99     -1
Name: 42, dtype: object

>  <hydroph_interaction:LEU:100>  (43) 
hydroph_interaction:LEU:100    0.0
hydroph_interaction:LEU:100      0
Name: 42, dtype: object

>  <hbond:LEU:100>  (43) 
hbond:LEU:100    NaN
hbond:LEU:100     -1
Name: 42, dtype: object

>  <hbond:ALA:101>  (43) 
hbond:ALA:101    NaN
hbond:ALA:101     -1
Name: 42, dtype: object

>  <hydroph_interaction:ALA:101>  (43) 
hydroph_interaction:ALA:101    NaN
hydroph_interaction:ALA:101     -1
Name: 42, dtype: object

>  <hydroph_interaction:VAL:102>  (43) 
hydroph_interaction:VAL:102    NaN
hydroph_interaction:VAL:102     -1
Name: 42, dtype: object

>  <hbond:VAL:102>  (43) 
hbond:VAL:102    NaN
hbond:VAL:102     -1
Name: 42, dtype: object

>  <hbond:GLY:103>  (43) 
hbond:GLY:103    NaN
hbond:GLY:103     -1
Name: 42, dtype: object

>  <halogenbond:GLY:103>  (43) 
halogenbond:GLY:103    NaN
halogenbond:GLY:103     -1
Name: 42, dtype: object

>  <hbond:HIS:104>  (43) 
hbond:HIS:104    NaN
hbond:HIS:104     -1
Name: 42, dtype: object

>  <saltbridge:HIS:104>  (43) 
saltbridge:HIS:104    NaN
saltbridge:HIS:104     -1
Name: 42, dtype: object

>  <pication:HIS:104>  (43) 
pication:HIS:104    NaN
pication:HIS:104     -1
Name: 42, dtype: object

>  <halogenbond:HIS:104>  (43) 
halogenbond:HIS:104    NaN
halogenbond:HIS:104     -1
Name: 42, dtype: object

>  <hydroph_interaction:HIS:104>  (43) 
hydroph_interaction:HIS:104    NaN
hydroph_interaction:HIS:104     -1
Name: 42, dtype: object

>  <pistack:HIS:104>  (43) 
pistack:HIS:104    NaN
pistack:HIS:104     -1
Name: 42, dtype: object

>  <halogenbond:SER:105>  (43) 
halogenbond:SER:105    0.0
halogenbond:SER:105      0
Name: 42, dtype: object

>  <hbond:SER:105>  (43) 
hbond:SER:105    0.0
hbond:SER:105      0
Name: 42, dtype: object

>  <hbond:GLU:106>  (43) 
hbond:GLU:106    0.0
hbond:GLU:106      0
Name: 42, dtype: object

>  <hydroph_interaction:GLU:106>  (43) 
hydroph_interaction:GLU:106    0.0
hydroph_interaction:GLU:106      0
Name: 42, dtype: object

>  <saltbridge:GLU:106>  (43) 
saltbridge:GLU:106    NaN
saltbridge:GLU:106     -1
Name: 42, dtype: object

>  <halogenbond:GLU:106>  (43) 
halogenbond:GLU:106    NaN
halogenbond:GLU:106     -1
Name: 42, dtype: object

>  <hydroph_interaction:PRO:107>  (43) 
hydroph_interaction:PRO:107    0
hydroph_interaction:PRO:107    0
Name: 42, dtype: object

>  <hbond:PRO:107>  (43) 
hbond:PRO:107    0.0
hbond:PRO:107      0
Name: 42, dtype: object

>  <halogenbond:PRO:107>  (43) 
halogenbond:PRO:107    0.0
halogenbond:PRO:107      0
Name: 42, dtype: object

>  <hbond:GLY:108>  (43) 
hbond:GLY:108    NaN
hbond:GLY:108     -1
Name: 42, dtype: object

>  <halogenbond:GLY:108>  (43) 
halogenbond:GLY:108    NaN
halogenbond:GLY:108     -1
Name: 42, dtype: object

>  <hbond:ASP:109>  (43) 
hbond:ASP:109    0.0
hbond:ASP:109      0
Name: 42, dtype: object

>  <hydroph_interaction:ASP:109>  (43) 
hydroph_interaction:ASP:109    0.0
hydroph_interaction:ASP:109      0
Name: 42, dtype: object

>  <saltbridge:ASP:109>  (43) 
saltbridge:ASP:109    NaN
saltbridge:ASP:109     -1
Name: 42, dtype: object

>  <halogenbond:CYS:110>  (43) 
halogenbond:CYS:110    0.0
halogenbond:CYS:110      0
Name: 42, dtype: object

>  <hbond:CYS:110>  (43) 
hbond:CYS:110    0.0
hbond:CYS:110      0
Name: 42, dtype: object

>  <hbond:GLY:111>  (43) 
hbond:GLY:111    NaN
hbond:GLY:111     -1
Name: 42, dtype: object

>  <hbond:GLY:112>  (43) 
hbond:GLY:112    NaN
hbond:GLY:112     -1
Name: 42, dtype: object

>  <hbond:ILE:113>  (43) 
hbond:ILE:113    NaN
hbond:ILE:113     -1
Name: 42, dtype: object

>  <hydroph_interaction:LEU:114>  (43) 
hydroph_interaction:LEU:114    NaN
hydroph_interaction:LEU:114     -1
Name: 42, dtype: object

>  <hbond:LEU:114>  (43) 
hbond:LEU:114    NaN
hbond:LEU:114     -1
Name: 42, dtype: object

>  <hydroph_interaction:ILE:123>  (43) 
hydroph_interaction:ILE:123    NaN
hydroph_interaction:ILE:123     -1
Name: 42, dtype: object

>  <hbond:ILE:123>  (43) 
hbond:ILE:123    NaN
hbond:ILE:123     -1
Name: 42, dtype: object

>  <hydroph_interaction:VAL:124>  (43) 
hydroph_interaction:VAL:124    0.0
hydroph_interaction:VAL:124      0
Name: 42, dtype: object

>  <hbond:VAL:124>  (43) 
hbond:VAL:124    NaN
hbond:VAL:124     -1
Name: 42, dtype: object

>  <halogenbond:VAL:124>  (43) 
halogenbond:VAL:124    NaN
halogenbond:VAL:124     -1
Name: 42, dtype: object

>  <hbond:SER:125>  (43) 
hbond:SER:125    0
hbond:SER:125    0
Name: 42, dtype: object

>  <halogenbond:SER:125>  (43) 
halogenbond:SER:125    0.0
halogenbond:SER:125      0
Name: 42, dtype: object

>  <hydroph_interaction:THR:126>  (43) 
hydroph_interaction:THR:126    1.0
hydroph_interaction:THR:126      1
Name: 42, dtype: object

>  <hbond:THR:126>  (43) 
hbond:THR:126    0.0
hbond:THR:126      0
Name: 42, dtype: object

>  <halogenbond:THR:126>  (43) 
halogenbond:THR:126    NaN
halogenbond:THR:126     -1
Name: 42, dtype: object

>  <hbond:GLY:127>  (43) 
hbond:GLY:127    1
hbond:GLY:127    1
Name: 42, dtype: object

>  <halogenbond:GLY:127>  (43) 
halogenbond:GLY:127    NaN
halogenbond:GLY:127     -1
Name: 42, dtype: object

>  <hydroph_interaction:GLY:127>  (43) 
hydroph_interaction:GLY:127    NaN
hydroph_interaction:GLY:127     -1
Name: 42, dtype: object

>  <hbond:GLY:128>  (43) 
hbond:GLY:128    NaN
hbond:GLY:128     -1
Name: 42, dtype: object

>  <halogenbond:GLY:128>  (43) 
halogenbond:GLY:128    NaN
halogenbond:GLY:128     -1
Name: 42, dtype: object

>  <hydroph_interaction:GLY:128>  (43) 
hydroph_interaction:GLY:128    NaN
hydroph_interaction:GLY:128     -1
Name: 42, dtype: object

>  <hbond:ASN:129>  (43) 
hbond:ASN:129    NaN
hbond:ASN:129     -1
Name: 42, dtype: object

>  <hydroph_interaction:ASN:129>  (43) 
hydroph_interaction:ASN:129    NaN
hydroph_interaction:ASN:129     -1
Name: 42, dtype: object

>  <halogenbond:ASN:129>  (43) 
halogenbond:ASN:129    NaN
halogenbond:ASN:129     -1
Name: 42, dtype: object

>  <hbond:GLY:130>  (43) 
hbond:GLY:130    NaN
hbond:GLY:130     -1
Name: 42, dtype: object

>  <hbond:LEU:131>  (43) 
hbond:LEU:131    NaN
hbond:LEU:131     -1
Name: 42, dtype: object

>  <hydroph_interaction:LEU:131>  (43) 
hydroph_interaction:LEU:131    0.0
hydroph_interaction:LEU:131      0
Name: 42, dtype: object

>  <halogenbond:LEU:131>  (43) 
halogenbond:LEU:131    NaN
halogenbond:LEU:131     -1
Name: 42, dtype: object

>  <hydroph_interaction:VAL:132>  (43) 
hydroph_interaction:VAL:132    0.0
hydroph_interaction:VAL:132      0
Name: 42, dtype: object

>  <hbond:VAL:132>  (43) 
hbond:VAL:132    NaN
hbond:VAL:132     -1
Name: 42, dtype: object

>  <hbond:GLY:133>  (43) 
hbond:GLY:133    NaN
hbond:GLY:133     -1
Name: 42, dtype: object

>  <halogenbond:GLY:133>  (43) 
halogenbond:GLY:133    NaN
halogenbond:GLY:133     -1
Name: 42, dtype: object

>  <hydroph_interaction:PHE:134>  (43) 
hydroph_interaction:PHE:134    NaN
hydroph_interaction:PHE:134     -1
Name: 42, dtype: object

>  <hbond:PHE:134>  (43) 
hbond:PHE:134    NaN
hbond:PHE:134     -1
Name: 42, dtype: object

>  <pistack:PHE:134>  (43) 
pistack:PHE:134    NaN
pistack:PHE:134     -1
Name: 42, dtype: object

>  <pication:PHE:134>  (43) 
pication:PHE:134    NaN
pication:PHE:134     -1
Name: 42, dtype: object

>  <halogenbond:PHE:134>  (43) 
halogenbond:PHE:134    NaN
halogenbond:PHE:134     -1
Name: 42, dtype: object

>  <hydroph_interaction:ALA:135>  (43) 
hydroph_interaction:ALA:135    NaN
hydroph_interaction:ALA:135     -1
Name: 42, dtype: object

>  <hbond:ALA:135>  (43) 
hbond:ALA:135    NaN
hbond:ALA:135     -1
Name: 42, dtype: object

$$$$
PV_006188596149
     RDKit          3D

 25 25  0  0  0  0  0  0  0  0999 V2000
   10.3530    9.0530   22.3830 C   0  0  0  0  0  0  0  0  0  0  0  0
    9.7260   10.2330   23.0780 C   0  0  0  0  0  0  0  0  0  0  0  0
    8.6760   10.1130   23.9680 C   0  0  0  0  0  0  0  0  0  0  0  0
    8.0880   11.3450   24.6070 C   0  0  0  0  0  0  0  0  0  0  0  0
    7.0110   11.1280   25.4880 C   0  0  0  0  0  0  0  0  0  0  0  0
    8.6320   12.5910   24.2920 C   0  0  0  0  0  0  0  0  0  0  0  0
    8.1320   13.7520   24.8530 C   0  0  0  0  0  0  0  0  0  0  0  0
    9.7180   12.6280   23.3830 C   0  0  0  0  0  0  0  0  0  0  0  0
   10.3450   13.8020   23.0210 C   0  0  0  0  0  0  0  0  0  0  0  0
   10.4850   14.0360   21.6780 N   0  0  0  0  0  0  0  0  0  0  0  0
   10.7830   14.5740   23.8600 O   0  0  0  0  0  0  0  0  0  0  0  0
   10.2230   11.4790   22.8090 C   0  0  0  0  0  0  0  0  0  0  0  0
   10.9070    8.4220   23.0890 H   0  0  0  0  0  0  0  0  0  0  0  0
    9.5860    8.4540   21.8950 H   0  0  0  0  0  0  0  0  0  0  0  0
   11.0410    9.3680   21.6020 H   0  0  0  0  0  0  0  0  0  0  0  0
    8.2220    9.1590   24.2480 H   0  0  0  0  0  0  0  0  0  0  0  0
    6.1900   11.8080   25.2470 H   0  0  0  0  0  0  0  0  0  0  0  0
    7.2960   11.2970   26.5230 H   0  0  0  0  0  0  0  0  0  0  0  0
    6.6520   10.0970   25.4180 H   0  0  0  0  0  0  0  0  0  0  0  0
    7.6850   13.5060   25.8200 H   0  0  0  0  0  0  0  0  0  0  0  0
    7.3480   14.1620   24.2040 H   0  0  0  0  0  0  0  0  0  0  0  0
    8.8040   14.5890   25.0160 H   0  0  0  0  0  0  0  0  0  0  0  0
   10.6400   13.2540   21.0370 H   0  0  0  0  0  0  0  0  0  0  0  0
   10.9540   14.9000   21.4390 H   0  0  0  0  0  0  0  0  0  0  0  0
   11.0460   11.5700   22.1240 H   0  0  0  0  0  0  0  0  0  0  0  0
  1  2  1  0
  2  3  2  0
  3  4  1  0
  4  5  1  0
  4  6  2  0
  6  7  1  0
  6  8  1  0
  8  9  1  0
  9 10  1  0
  9 11  2  0
  8 12  2  0
 12  2  1  0
  1 13  1  0
  1 14  1  0
  1 15  1  0
  3 16  1  0
  5 17  1  0
  5 18  1  0
  5 19  1  0
  7 20  1  0
  7 21  1  0
  7 22  1  0
 10 23  1  0
 10 24  1  0
 12 25  1  0
A    1
 C1 
A    2
 C2 
A    3
 C3 
A    4
 C4 
A    5
 C5 
A    6
 C6 
A    7
 C7 
A    8
 C8 
A    9
 C9 
A   10
 N1 
A   11
 O1 
A   12
 C10
A   13
 H1 
A   14
 H2 
A   15
 H3 
A   16
 H4 
A   17
 H5 
A   18
 H6 
A   19
 H7 
A   20
 H8 
A   21
 H9 
A   22
 H10
A   23
 H11
A   24
 H12
A   25
 H13
M  END
>  <ref_pdb>  (44) 
x0310_0A

>  <ref_mols>  (44) 
x0451_0A,x0739_0A

>  <original SMILES>  (44) 
Cc1cc(C)c(C)c(C(N)=O)c1

>  <rationale>  (44) 
info halogenbond:C110+G127+D39+S125+E85+Q95+E106+E88+T126+P107+H104+Y64+C65+S87+N129+F83+R93+L131+I82+G128+P91+N19+H21+V84+G133+Y90+Y89+H97+L81+F134+L98+R20+G103+S66+S67+S7+G108+R38+V124+M99+S36; hbond:S87+S125+Q95+A86+E85+G108+G103+G128+G130+L131+N129+N19+H104+R68+V124+R93+P91+F83+S67+S7+S66+G112+V132+R20+Y89+S77+A135+Y63+A92+A101+M99+F134+L100+I82+Y64+S36+L98+V84+L81+Y94+S80+R38+S37+V102+G8+I123+G111+I113+L114+C65+L22+S96; hydroph_interaction:V124+H21+P107+L22+E106+N129+D39+N19+L40+I123+A135+Q95+I82+L100+L98+L131+F83+R93+V132+Y63+F134+H104+R20+A86+V74+P91+A101+F76+M99+L114+A92+Y94+R68+Y72+Y64+V18+V102+W28+G127+G128+L81; pication:H104+R93+Y63+F134+Y90+R68+F83+R20; pistack:H21+Y89+Y90+H104+F134+Y63+F83+Y94; saltbridge:D39+R93+H104+E106+D109+E85+E88+R68+R20; 

>  <intxn_cluster>  (44) 
-1

>  <intxn_cluster_rank>  (44) 
-1

>  <N_interactions>  (44) 
4

>  <∆∆G>  (44) 
-10.190661

>  <$/mg>  (44) 
163.0

>  <comRMSD>  (44) 
0.668853

>  <N_rotatable_bonds>  (44) 
4

>  <deep_P1_sidechain>  (44) 
nan

>  <farthest_distance_to_substrate>  (44) 
2.421111

>  <hbond:SER:7>  (44) 
hbond:SER:7    NaN
hbond:SER:7     -1
Name: 43, dtype: object

>  <halogenbond:SER:7>  (44) 
halogenbond:SER:7    NaN
halogenbond:SER:7     -1
Name: 43, dtype: object

>  <hbond:GLY:8>  (44) 
hbond:GLY:8    NaN
hbond:GLY:8     -1
Name: 43, dtype: object

>  <hydroph_interaction:VAL:18>  (44) 
hydroph_interaction:VAL:18    NaN
hydroph_interaction:VAL:18     -1
Name: 43, dtype: object

>  <hbond:ASN:19>  (44) 
hbond:ASN:19    NaN
hbond:ASN:19     -1
Name: 43, dtype: object

>  <hydroph_interaction:ASN:19>  (44) 
hydroph_interaction:ASN:19    NaN
hydroph_interaction:ASN:19     -1
Name: 43, dtype: object

>  <halogenbond:ASN:19>  (44) 
halogenbond:ASN:19    NaN
halogenbond:ASN:19     -1
Name: 43, dtype: object

>  <hbond:ARG:20>  (44) 
hbond:ARG:20    NaN
hbond:ARG:20     -1
Name: 43, dtype: object

>  <hydroph_interaction:ARG:20>  (44) 
hydroph_interaction:ARG:20    NaN
hydroph_interaction:ARG:20     -1
Name: 43, dtype: object

>  <saltbridge:ARG:20>  (44) 
saltbridge:ARG:20    NaN
saltbridge:ARG:20     -1
Name: 43, dtype: object

>  <halogenbond:ARG:20>  (44) 
halogenbond:ARG:20    NaN
halogenbond:ARG:20     -1
Name: 43, dtype: object

>  <pication:ARG:20>  (44) 
pication:ARG:20    NaN
pication:ARG:20     -1
Name: 43, dtype: object

>  <hbond:HIS:21>  (44) 
hbond:HIS:21    0.0
hbond:HIS:21      0
Name: 43, dtype: object

>  <hydroph_interaction:HIS:21>  (44) 
hydroph_interaction:HIS:21    NaN
hydroph_interaction:HIS:21     -1
Name: 43, dtype: object

>  <pistack:HIS:21>  (44) 
pistack:HIS:21    NaN
pistack:HIS:21     -1
Name: 43, dtype: object

>  <pication:HIS:21>  (44) 
pication:HIS:21    0.0
pication:HIS:21      0
Name: 43, dtype: object

>  <saltbridge:HIS:21>  (44) 
saltbridge:HIS:21    0.0
saltbridge:HIS:21      0
Name: 43, dtype: object

>  <halogenbond:HIS:21>  (44) 
halogenbond:HIS:21    NaN
halogenbond:HIS:21     -1
Name: 43, dtype: object

>  <hydroph_interaction:LEU:22>  (44) 
hydroph_interaction:LEU:22    NaN
hydroph_interaction:LEU:22     -1
Name: 43, dtype: object

>  <hbond:LEU:22>  (44) 
hbond:LEU:22    NaN
hbond:LEU:22     -1
Name: 43, dtype: object

>  <hydroph_interaction:TRP:28>  (44) 
hydroph_interaction:TRP:28    NaN
hydroph_interaction:TRP:28     -1
Name: 43, dtype: object

>  <hbond:SER:36>  (44) 
hbond:SER:36    NaN
hbond:SER:36     -1
Name: 43, dtype: object

>  <halogenbond:SER:36>  (44) 
halogenbond:SER:36    NaN
halogenbond:SER:36     -1
Name: 43, dtype: object

>  <hbond:SER:37>  (44) 
hbond:SER:37    NaN
hbond:SER:37     -1
Name: 43, dtype: object

>  <hbond:ARG:38>  (44) 
hbond:ARG:38    NaN
hbond:ARG:38     -1
Name: 43, dtype: object

>  <halogenbond:ARG:38>  (44) 
halogenbond:ARG:38    NaN
halogenbond:ARG:38     -1
Name: 43, dtype: object

>  <saltbridge:ASP:39>  (44) 
saltbridge:ASP:39    NaN
saltbridge:ASP:39     -1
Name: 43, dtype: object

>  <halogenbond:ASP:39>  (44) 
halogenbond:ASP:39    NaN
halogenbond:ASP:39     -1
Name: 43, dtype: object

>  <hbond:ASP:39>  (44) 
hbond:ASP:39    0.0
hbond:ASP:39      0
Name: 43, dtype: object

>  <hydroph_interaction:ASP:39>  (44) 
hydroph_interaction:ASP:39    NaN
hydroph_interaction:ASP:39     -1
Name: 43, dtype: object

>  <hydroph_interaction:LEU:40>  (44) 
hydroph_interaction:LEU:40    NaN
hydroph_interaction:LEU:40     -1
Name: 43, dtype: object

>  <hydroph_interaction:TYR:63>  (44) 
hydroph_interaction:TYR:63    NaN
hydroph_interaction:TYR:63     -1
Name: 43, dtype: object

>  <hbond:TYR:63>  (44) 
hbond:TYR:63    NaN
hbond:TYR:63     -1
Name: 43, dtype: object

>  <pistack:TYR:63>  (44) 
pistack:TYR:63    NaN
pistack:TYR:63     -1
Name: 43, dtype: object

>  <pication:TYR:63>  (44) 
pication:TYR:63    NaN
pication:TYR:63     -1
Name: 43, dtype: object

>  <halogenbond:TYR:64>  (44) 
halogenbond:TYR:64    NaN
halogenbond:TYR:64     -1
Name: 43, dtype: object

>  <hbond:TYR:64>  (44) 
hbond:TYR:64    NaN
hbond:TYR:64     -1
Name: 43, dtype: object

>  <hydroph_interaction:TYR:64>  (44) 
hydroph_interaction:TYR:64    NaN
hydroph_interaction:TYR:64     -1
Name: 43, dtype: object

>  <halogenbond:CYS:65>  (44) 
halogenbond:CYS:65    NaN
halogenbond:CYS:65     -1
Name: 43, dtype: object

>  <hbond:CYS:65>  (44) 
hbond:CYS:65    NaN
hbond:CYS:65     -1
Name: 43, dtype: object

>  <hbond:SER:66>  (44) 
hbond:SER:66    NaN
hbond:SER:66     -1
Name: 43, dtype: object

>  <halogenbond:SER:66>  (44) 
halogenbond:SER:66    NaN
halogenbond:SER:66     -1
Name: 43, dtype: object

>  <hbond:SER:67>  (44) 
hbond:SER:67    NaN
hbond:SER:67     -1
Name: 43, dtype: object

>  <halogenbond:SER:67>  (44) 
halogenbond:SER:67    NaN
halogenbond:SER:67     -1
Name: 43, dtype: object

>  <hbond:ARG:68>  (44) 
hbond:ARG:68    NaN
hbond:ARG:68     -1
Name: 43, dtype: object

>  <saltbridge:ARG:68>  (44) 
saltbridge:ARG:68    NaN
saltbridge:ARG:68     -1
Name: 43, dtype: object

>  <hydroph_interaction:ARG:68>  (44) 
hydroph_interaction:ARG:68    NaN
hydroph_interaction:ARG:68     -1
Name: 43, dtype: object

>  <pication:ARG:68>  (44) 
pication:ARG:68    NaN
pication:ARG:68     -1
Name: 43, dtype: object

>  <hydroph_interaction:TYR:72>  (44) 
hydroph_interaction:TYR:72    NaN
hydroph_interaction:TYR:72     -1
Name: 43, dtype: object

>  <hydroph_interaction:VAL:74>  (44) 
hydroph_interaction:VAL:74    NaN
hydroph_interaction:VAL:74     -1
Name: 43, dtype: object

>  <hydroph_interaction:PHE:76>  (44) 
hydroph_interaction:PHE:76    NaN
hydroph_interaction:PHE:76     -1
Name: 43, dtype: object

>  <hbond:SER:77>  (44) 
hbond:SER:77    NaN
hbond:SER:77     -1
Name: 43, dtype: object

>  <hbond:SER:80>  (44) 
hbond:SER:80    NaN
hbond:SER:80     -1
Name: 43, dtype: object

>  <hbond:LEU:81>  (44) 
hbond:LEU:81    NaN
hbond:LEU:81     -1
Name: 43, dtype: object

>  <halogenbond:LEU:81>  (44) 
halogenbond:LEU:81    NaN
halogenbond:LEU:81     -1
Name: 43, dtype: object

>  <hydroph_interaction:LEU:81>  (44) 
hydroph_interaction:LEU:81    NaN
hydroph_interaction:LEU:81     -1
Name: 43, dtype: object

>  <hydroph_interaction:ILE:82>  (44) 
hydroph_interaction:ILE:82    NaN
hydroph_interaction:ILE:82     -1
Name: 43, dtype: object

>  <halogenbond:ILE:82>  (44) 
halogenbond:ILE:82    NaN
halogenbond:ILE:82     -1
Name: 43, dtype: object

>  <hbond:ILE:82>  (44) 
hbond:ILE:82    NaN
hbond:ILE:82     -1
Name: 43, dtype: object

>  <hbond:PHE:83>  (44) 
hbond:PHE:83    NaN
hbond:PHE:83     -1
Name: 43, dtype: object

>  <hydroph_interaction:PHE:83>  (44) 
hydroph_interaction:PHE:83    NaN
hydroph_interaction:PHE:83     -1
Name: 43, dtype: object

>  <halogenbond:PHE:83>  (44) 
halogenbond:PHE:83    NaN
halogenbond:PHE:83     -1
Name: 43, dtype: object

>  <pistack:PHE:83>  (44) 
pistack:PHE:83    NaN
pistack:PHE:83     -1
Name: 43, dtype: object

>  <pication:PHE:83>  (44) 
pication:PHE:83    NaN
pication:PHE:83     -1
Name: 43, dtype: object

>  <hydroph_interaction:VAL:84>  (44) 
hydroph_interaction:VAL:84    0.0
hydroph_interaction:VAL:84      0
Name: 43, dtype: object

>  <halogenbond:VAL:84>  (44) 
halogenbond:VAL:84    NaN
halogenbond:VAL:84     -1
Name: 43, dtype: object

>  <hbond:VAL:84>  (44) 
hbond:VAL:84    NaN
hbond:VAL:84     -1
Name: 43, dtype: object

>  <hydroph_interaction:GLU:85>  (44) 
hydroph_interaction:GLU:85    0.0
hydroph_interaction:GLU:85      0
Name: 43, dtype: object

>  <hbond:GLU:85>  (44) 
hbond:GLU:85    NaN
hbond:GLU:85     -1
Name: 43, dtype: object

>  <halogenbond:GLU:85>  (44) 
halogenbond:GLU:85    NaN
halogenbond:GLU:85     -1
Name: 43, dtype: object

>  <saltbridge:GLU:85>  (44) 
saltbridge:GLU:85    NaN
saltbridge:GLU:85     -1
Name: 43, dtype: object

>  <halogenbond:ALA:86>  (44) 
halogenbond:ALA:86    0.0
halogenbond:ALA:86      0
Name: 43, dtype: object

>  <hbond:ALA:86>  (44) 
hbond:ALA:86    NaN
hbond:ALA:86     -1
Name: 43, dtype: object

>  <hydroph_interaction:ALA:86>  (44) 
hydroph_interaction:ALA:86    NaN
hydroph_interaction:ALA:86     -1
Name: 43, dtype: object

>  <hbond:SER:87>  (44) 
hbond:SER:87    1
hbond:SER:87    1
Name: 43, dtype: object

>  <halogenbond:SER:87>  (44) 
halogenbond:SER:87    NaN
halogenbond:SER:87     -1
Name: 43, dtype: object

>  <hbond:GLU:88>  (44) 
hbond:GLU:88    0.0
hbond:GLU:88      0
Name: 43, dtype: object

>  <hydroph_interaction:GLU:88>  (44) 
hydroph_interaction:GLU:88    0.0
hydroph_interaction:GLU:88      0
Name: 43, dtype: object

>  <halogenbond:GLU:88>  (44) 
halogenbond:GLU:88    NaN
halogenbond:GLU:88     -1
Name: 43, dtype: object

>  <saltbridge:GLU:88>  (44) 
saltbridge:GLU:88    NaN
saltbridge:GLU:88     -1
Name: 43, dtype: object

>  <hydroph_interaction:TYR:89>  (44) 
hydroph_interaction:TYR:89    0.0
hydroph_interaction:TYR:89      0
Name: 43, dtype: object

>  <pistack:TYR:89>  (44) 
pistack:TYR:89    NaN
pistack:TYR:89     -1
Name: 43, dtype: object

>  <hbond:TYR:89>  (44) 
hbond:TYR:89    NaN
hbond:TYR:89     -1
Name: 43, dtype: object

>  <halogenbond:TYR:89>  (44) 
halogenbond:TYR:89    NaN
halogenbond:TYR:89     -1
Name: 43, dtype: object

>  <hydroph_interaction:TYR:90>  (44) 
hydroph_interaction:TYR:90    0.0
hydroph_interaction:TYR:90      0
Name: 43, dtype: object

>  <hbond:TYR:90>  (44) 
hbond:TYR:90    0.0
hbond:TYR:90      0
Name: 43, dtype: object

>  <pistack:TYR:90>  (44) 
pistack:TYR:90    NaN
pistack:TYR:90     -1
Name: 43, dtype: object

>  <halogenbond:TYR:90>  (44) 
halogenbond:TYR:90    NaN
halogenbond:TYR:90     -1
Name: 43, dtype: object

>  <pication:TYR:90>  (44) 
pication:TYR:90    NaN
pication:TYR:90     -1
Name: 43, dtype: object

>  <hbond:PRO:91>  (44) 
hbond:PRO:91    NaN
hbond:PRO:91     -1
Name: 43, dtype: object

>  <hydroph_interaction:PRO:91>  (44) 
hydroph_interaction:PRO:91    NaN
hydroph_interaction:PRO:91     -1
Name: 43, dtype: object

>  <halogenbond:PRO:91>  (44) 
halogenbond:PRO:91    NaN
halogenbond:PRO:91     -1
Name: 43, dtype: object

>  <hbond:ALA:92>  (44) 
hbond:ALA:92    NaN
hbond:ALA:92     -1
Name: 43, dtype: object

>  <hydroph_interaction:ALA:92>  (44) 
hydroph_interaction:ALA:92    NaN
hydroph_interaction:ALA:92     -1
Name: 43, dtype: object

>  <saltbridge:ARG:93>  (44) 
saltbridge:ARG:93    NaN
saltbridge:ARG:93     -1
Name: 43, dtype: object

>  <hbond:ARG:93>  (44) 
hbond:ARG:93    NaN
hbond:ARG:93     -1
Name: 43, dtype: object

>  <hydroph_interaction:ARG:93>  (44) 
hydroph_interaction:ARG:93    NaN
hydroph_interaction:ARG:93     -1
Name: 43, dtype: object

>  <halogenbond:ARG:93>  (44) 
halogenbond:ARG:93    NaN
halogenbond:ARG:93     -1
Name: 43, dtype: object

>  <pication:ARG:93>  (44) 
pication:ARG:93    NaN
pication:ARG:93     -1
Name: 43, dtype: object

>  <hydroph_interaction:TYR:94>  (44) 
hydroph_interaction:TYR:94    NaN
hydroph_interaction:TYR:94     -1
Name: 43, dtype: object

>  <pistack:TYR:94>  (44) 
pistack:TYR:94    NaN
pistack:TYR:94     -1
Name: 43, dtype: object

>  <hbond:TYR:94>  (44) 
hbond:TYR:94    NaN
hbond:TYR:94     -1
Name: 43, dtype: object

>  <hbond:GLN:95>  (44) 
hbond:GLN:95    NaN
hbond:GLN:95     -1
Name: 43, dtype: object

>  <hydroph_interaction:GLN:95>  (44) 
hydroph_interaction:GLN:95    NaN
hydroph_interaction:GLN:95     -1
Name: 43, dtype: object

>  <halogenbond:GLN:95>  (44) 
halogenbond:GLN:95    NaN
halogenbond:GLN:95     -1
Name: 43, dtype: object

>  <hbond:SER:96>  (44) 
hbond:SER:96    NaN
hbond:SER:96     -1
Name: 43, dtype: object

>  <halogenbond:HIS:97>  (44) 
halogenbond:HIS:97    NaN
halogenbond:HIS:97     -1
Name: 43, dtype: object

>  <hydroph_interaction:LEU:98>  (44) 
hydroph_interaction:LEU:98    NaN
hydroph_interaction:LEU:98     -1
Name: 43, dtype: object

>  <hbond:LEU:98>  (44) 
hbond:LEU:98    NaN
hbond:LEU:98     -1
Name: 43, dtype: object

>  <halogenbond:LEU:98>  (44) 
halogenbond:LEU:98    NaN
halogenbond:LEU:98     -1
Name: 43, dtype: object

>  <hbond:MET:99>  (44) 
hbond:MET:99    NaN
hbond:MET:99     -1
Name: 43, dtype: object

>  <hydroph_interaction:MET:99>  (44) 
hydroph_interaction:MET:99    NaN
hydroph_interaction:MET:99     -1
Name: 43, dtype: object

>  <halogenbond:MET:99>  (44) 
halogenbond:MET:99    NaN
halogenbond:MET:99     -1
Name: 43, dtype: object

>  <hydroph_interaction:LEU:100>  (44) 
hydroph_interaction:LEU:100    NaN
hydroph_interaction:LEU:100     -1
Name: 43, dtype: object

>  <hbond:LEU:100>  (44) 
hbond:LEU:100    NaN
hbond:LEU:100     -1
Name: 43, dtype: object

>  <hbond:ALA:101>  (44) 
hbond:ALA:101    NaN
hbond:ALA:101     -1
Name: 43, dtype: object

>  <hydroph_interaction:ALA:101>  (44) 
hydroph_interaction:ALA:101    NaN
hydroph_interaction:ALA:101     -1
Name: 43, dtype: object

>  <hydroph_interaction:VAL:102>  (44) 
hydroph_interaction:VAL:102    NaN
hydroph_interaction:VAL:102     -1
Name: 43, dtype: object

>  <hbond:VAL:102>  (44) 
hbond:VAL:102    NaN
hbond:VAL:102     -1
Name: 43, dtype: object

>  <hbond:GLY:103>  (44) 
hbond:GLY:103    NaN
hbond:GLY:103     -1
Name: 43, dtype: object

>  <halogenbond:GLY:103>  (44) 
halogenbond:GLY:103    NaN
halogenbond:GLY:103     -1
Name: 43, dtype: object

>  <hbond:HIS:104>  (44) 
hbond:HIS:104    NaN
hbond:HIS:104     -1
Name: 43, dtype: object

>  <saltbridge:HIS:104>  (44) 
saltbridge:HIS:104    NaN
saltbridge:HIS:104     -1
Name: 43, dtype: object

>  <pication:HIS:104>  (44) 
pication:HIS:104    NaN
pication:HIS:104     -1
Name: 43, dtype: object

>  <halogenbond:HIS:104>  (44) 
halogenbond:HIS:104    NaN
halogenbond:HIS:104     -1
Name: 43, dtype: object

>  <hydroph_interaction:HIS:104>  (44) 
hydroph_interaction:HIS:104    NaN
hydroph_interaction:HIS:104     -1
Name: 43, dtype: object

>  <pistack:HIS:104>  (44) 
pistack:HIS:104    NaN
pistack:HIS:104     -1
Name: 43, dtype: object

>  <halogenbond:SER:105>  (44) 
halogenbond:SER:105    0.0
halogenbond:SER:105      0
Name: 43, dtype: object

>  <hbond:SER:105>  (44) 
hbond:SER:105    0.0
hbond:SER:105      0
Name: 43, dtype: object

>  <hbond:GLU:106>  (44) 
hbond:GLU:106    0.0
hbond:GLU:106      0
Name: 43, dtype: object

>  <hydroph_interaction:GLU:106>  (44) 
hydroph_interaction:GLU:106    NaN
hydroph_interaction:GLU:106     -1
Name: 43, dtype: object

>  <saltbridge:GLU:106>  (44) 
saltbridge:GLU:106    NaN
saltbridge:GLU:106     -1
Name: 43, dtype: object

>  <halogenbond:GLU:106>  (44) 
halogenbond:GLU:106    NaN
halogenbond:GLU:106     -1
Name: 43, dtype: object

>  <hydroph_interaction:PRO:107>  (44) 
hydroph_interaction:PRO:107    1
hydroph_interaction:PRO:107    1
Name: 43, dtype: object

>  <hbond:PRO:107>  (44) 
hbond:PRO:107    0.0
hbond:PRO:107      0
Name: 43, dtype: object

>  <halogenbond:PRO:107>  (44) 
halogenbond:PRO:107    NaN
halogenbond:PRO:107     -1
Name: 43, dtype: object

>  <hbond:GLY:108>  (44) 
hbond:GLY:108    NaN
hbond:GLY:108     -1
Name: 43, dtype: object

>  <halogenbond:GLY:108>  (44) 
halogenbond:GLY:108    NaN
halogenbond:GLY:108     -1
Name: 43, dtype: object

>  <hbond:ASP:109>  (44) 
hbond:ASP:109    0.0
hbond:ASP:109      0
Name: 43, dtype: object

>  <hydroph_interaction:ASP:109>  (44) 
hydroph_interaction:ASP:109    0.0
hydroph_interaction:ASP:109      0
Name: 43, dtype: object

>  <saltbridge:ASP:109>  (44) 
saltbridge:ASP:109    NaN
saltbridge:ASP:109     -1
Name: 43, dtype: object

>  <halogenbond:CYS:110>  (44) 
halogenbond:CYS:110    NaN
halogenbond:CYS:110     -1
Name: 43, dtype: object

>  <hbond:CYS:110>  (44) 
hbond:CYS:110    0.0
hbond:CYS:110      0
Name: 43, dtype: object

>  <hbond:GLY:111>  (44) 
hbond:GLY:111    NaN
hbond:GLY:111     -1
Name: 43, dtype: object

>  <hbond:GLY:112>  (44) 
hbond:GLY:112    NaN
hbond:GLY:112     -1
Name: 43, dtype: object

>  <hbond:ILE:113>  (44) 
hbond:ILE:113    NaN
hbond:ILE:113     -1
Name: 43, dtype: object

>  <hydroph_interaction:LEU:114>  (44) 
hydroph_interaction:LEU:114    NaN
hydroph_interaction:LEU:114     -1
Name: 43, dtype: object

>  <hbond:LEU:114>  (44) 
hbond:LEU:114    NaN
hbond:LEU:114     -1
Name: 43, dtype: object

>  <hydroph_interaction:ILE:123>  (44) 
hydroph_interaction:ILE:123    NaN
hydroph_interaction:ILE:123     -1
Name: 43, dtype: object

>  <hbond:ILE:123>  (44) 
hbond:ILE:123    NaN
hbond:ILE:123     -1
Name: 43, dtype: object

>  <hydroph_interaction:VAL:124>  (44) 
hydroph_interaction:VAL:124    1.0
hydroph_interaction:VAL:124      1
Name: 43, dtype: object

>  <hbond:VAL:124>  (44) 
hbond:VAL:124    NaN
hbond:VAL:124     -1
Name: 43, dtype: object

>  <halogenbond:VAL:124>  (44) 
halogenbond:VAL:124    NaN
halogenbond:VAL:124     -1
Name: 43, dtype: object

>  <hbond:SER:125>  (44) 
hbond:SER:125    1
hbond:SER:125    1
Name: 43, dtype: object

>  <halogenbond:SER:125>  (44) 
halogenbond:SER:125    NaN
halogenbond:SER:125     -1
Name: 43, dtype: object

>  <hydroph_interaction:THR:126>  (44) 
hydroph_interaction:THR:126    0.0
hydroph_interaction:THR:126      0
Name: 43, dtype: object

>  <hbond:THR:126>  (44) 
hbond:THR:126    0.0
hbond:THR:126      0
Name: 43, dtype: object

>  <halogenbond:THR:126>  (44) 
halogenbond:THR:126    NaN
halogenbond:THR:126     -1
Name: 43, dtype: object

>  <hbond:GLY:127>  (44) 
hbond:GLY:127    0
hbond:GLY:127    0
Name: 43, dtype: object

>  <halogenbond:GLY:127>  (44) 
halogenbond:GLY:127    NaN
halogenbond:GLY:127     -1
Name: 43, dtype: object

>  <hydroph_interaction:GLY:127>  (44) 
hydroph_interaction:GLY:127    NaN
hydroph_interaction:GLY:127     -1
Name: 43, dtype: object

>  <hbond:GLY:128>  (44) 
hbond:GLY:128    NaN
hbond:GLY:128     -1
Name: 43, dtype: object

>  <halogenbond:GLY:128>  (44) 
halogenbond:GLY:128    NaN
halogenbond:GLY:128     -1
Name: 43, dtype: object

>  <hydroph_interaction:GLY:128>  (44) 
hydroph_interaction:GLY:128    NaN
hydroph_interaction:GLY:128     -1
Name: 43, dtype: object

>  <hbond:ASN:129>  (44) 
hbond:ASN:129    NaN
hbond:ASN:129     -1
Name: 43, dtype: object

>  <hydroph_interaction:ASN:129>  (44) 
hydroph_interaction:ASN:129    NaN
hydroph_interaction:ASN:129     -1
Name: 43, dtype: object

>  <halogenbond:ASN:129>  (44) 
halogenbond:ASN:129    NaN
halogenbond:ASN:129     -1
Name: 43, dtype: object

>  <hbond:GLY:130>  (44) 
hbond:GLY:130    NaN
hbond:GLY:130     -1
Name: 43, dtype: object

>  <hbond:LEU:131>  (44) 
hbond:LEU:131    NaN
hbond:LEU:131     -1
Name: 43, dtype: object

>  <hydroph_interaction:LEU:131>  (44) 
hydroph_interaction:LEU:131    NaN
hydroph_interaction:LEU:131     -1
Name: 43, dtype: object

>  <halogenbond:LEU:131>  (44) 
halogenbond:LEU:131    NaN
halogenbond:LEU:131     -1
Name: 43, dtype: object

>  <hydroph_interaction:VAL:132>  (44) 
hydroph_interaction:VAL:132    NaN
hydroph_interaction:VAL:132     -1
Name: 43, dtype: object

>  <hbond:VAL:132>  (44) 
hbond:VAL:132    NaN
hbond:VAL:132     -1
Name: 43, dtype: object

>  <hbond:GLY:133>  (44) 
hbond:GLY:133    0.0
hbond:GLY:133      0
Name: 43, dtype: object

>  <halogenbond:GLY:133>  (44) 
halogenbond:GLY:133    NaN
halogenbond:GLY:133     -1
Name: 43, dtype: object

>  <hydroph_interaction:PHE:134>  (44) 
hydroph_interaction:PHE:134    NaN
hydroph_interaction:PHE:134     -1
Name: 43, dtype: object

>  <hbond:PHE:134>  (44) 
hbond:PHE:134    NaN
hbond:PHE:134     -1
Name: 43, dtype: object

>  <pistack:PHE:134>  (44) 
pistack:PHE:134    NaN
pistack:PHE:134     -1
Name: 43, dtype: object

>  <pication:PHE:134>  (44) 
pication:PHE:134    NaN
pication:PHE:134     -1
Name: 43, dtype: object

>  <halogenbond:PHE:134>  (44) 
halogenbond:PHE:134    NaN
halogenbond:PHE:134     -1
Name: 43, dtype: object

>  <hydroph_interaction:ALA:135>  (44) 
hydroph_interaction:ALA:135    NaN
hydroph_interaction:ALA:135     -1
Name: 43, dtype: object

>  <hbond:ALA:135>  (44) 
hbond:ALA:135    NaN
hbond:ALA:135     -1
Name: 43, dtype: object

$$$$
Z1618294828
     RDKit          3D

 33 34  0  0  0  0  0  0  0  0999 V2000
   10.1640    9.3500   22.8460 C   0  0  0  0  0  0  0  0  0  0  0  0
    9.4240   10.4930   23.5100 C   0  0  0  0  0  0  0  0  0  0  0  0
    8.3980   10.3430   24.5890 C   0  0  0  0  0  0  0  0  0  0  0  0
    7.8170   11.5610   25.0850 C   0  0  0  0  0  0  0  0  0  0  0  0
    8.1490   12.8000   24.6240 C   0  0  0  0  0  0  0  0  0  0  0  0
    7.5540   13.8780   25.1540 F   0  0  0  0  0  0  0  0  0  0  0  0
    9.0890   12.9480   23.6220 C   0  0  0  0  0  0  0  0  0  0  0  0
    9.4610   14.1480   23.1070 O   0  0  0  0  0  0  0  0  0  0  0  0
   10.6870   13.9870   22.4140 C   0  0  0  0  0  0  0  0  0  0  0  0
   11.7240   13.9040   23.4620 C   0  0  0  0  0  0  0  0  0  0  0  0
   13.0440   14.5430   23.3590 C   0  0  0  0  0  0  0  0  0  0  0  0
   13.2820   15.0290   21.9330 C   0  0  0  0  0  0  0  0  0  0  0  0
   12.1420   15.6850   21.3430 N   0  0  0  0  0  0  0  0  0  0  0  0
   12.1570   17.1330   21.3010 C   0  0  0  0  0  0  0  0  0  0  0  0
   10.8790   15.1340   21.4120 C   0  0  0  0  0  0  0  0  0  0  0  0
    9.8090   15.6290   20.6030 O   0  0  0  0  0  0  0  0  0  0  0  0
    9.7170   11.8040   23.0800 C   0  0  0  0  0  0  0  0  0  0  0  0
   10.5470    9.6650   21.8720 H   0  0  0  0  0  0  0  0  0  0  0  0
    9.5010    8.5040   22.6920 H   0  0  0  0  0  0  0  0  0  0  0  0
   11.0270    9.0290   23.4300 H   0  0  0  0  0  0  0  0  0  0  0  0
    8.1100    9.3670   24.9740 H   0  0  0  0  0  0  0  0  0  0  0  0
    7.0620   11.5060   25.8780 H   0  0  0  0  0  0  0  0  0  0  0  0
   10.7160   13.0740   21.8130 H   0  0  0  0  0  0  0  0  0  0  0  0
   11.2730   14.2300   24.4080 H   0  0  0  0  0  0  0  0  0  0  0  0
   11.9120   12.8340   23.6110 H   0  0  0  0  0  0  0  0  0  0  0  0
   13.8270   13.8300   23.6440 H   0  0  0  0  0  0  0  0  0  0  0  0
   13.1280   15.3600   24.0800 H   0  0  0  0  0  0  0  0  0  0  0  0
   13.4850   14.1670   21.2930 H   0  0  0  0  0  0  0  0  0  0  0  0
   14.1330   15.7020   21.8690 H   0  0  0  0  0  0  0  0  0  0  0  0
   13.0490   17.4590   20.7810 H   0  0  0  0  0  0  0  0  0  0  0  0
   11.2810   17.4900   20.7660 H   0  0  0  0  0  0  0  0  0  0  0  0
   12.1030   17.5530   22.3050 H   0  0  0  0  0  0  0  0  0  0  0  0
   10.4620   11.9410   22.2910 H   0  0  0  0  0  0  0  0  0  0  0  0
  1  2  1  0
  2  3  2  0
  3  4  1  0
  4  5  2  0
  5  6  1  0
  5  7  1  0
  7  8  1  0
  8  9  1  0
  9 10  1  0
 10 11  1  0
 11 12  1  0
 12 13  1  0
 13 14  1  0
 13 15  1  0
 15 16  2  0
  7 17  2  0
 17  2  1  0
 15  9  1  0
  1 18  1  0
  1 19  1  0
  1 20  1  0
  3 21  1  0
  4 22  1  0
  9 23  1  0
 10 24  1  0
 10 25  1  0
 11 26  1  0
 11 27  1  0
 12 28  1  0
 12 29  1  0
 14 30  1  0
 14 31  1  0
 14 32  1  0
 17 33  1  0
A    1
 C1 
A    2
 C2 
A    3
 C3 
A    4
 C4 
A    5
 C5 
A    6
 F1 
A    7
 C6 
A    8
 O1 
A    9
 C7 
A   10
 C8 
A   11
 C9 
A   12
 C10
A   13
 N1 
A   14
 C11
A   15
 C12
A   16
 O2 
A   17
 C13
A   18
 H1 
A   19
 H2 
A   20
 H3 
A   21
 H4 
A   22
 H5 
A   23
 H6 
A   24
 H7 
A   25
 H8 
A   26
 H9 
A   27
 H10
A   28
 H11
A   29
 H12
A   30
 H13
A   31
 H14
A   32
 H15
A   33
 H16
M  END
>  <ref_pdb>  (45) 
x0310_0A

>  <ref_mols>  (45) 
x0416_0A,x0528_0A

>  <original SMILES>  (45) 
Cc1ccc(F)c(OC2CCCN(C)C2=O)c1

>  <rationale>  (45) 
info halogenbond:C110+G127+A86+E85+Q95+E106+E88+T126+H104+Y64+C65+S87+N129+F83+R93+L131+I82+G128+P91+N19+H21+V84+G133+Y90+Y89+H97+L81+F134+L98+R20+G103+S66+S67+S7+G108+R38+V124+M99+S36; hbond:S87+Q95+D39+G108+G103+G128+G130+L131+N129+N19+H104+R68+V124+R93+P91+F83+S7+S66+G112+G133+V132+R20+Y89+S77+A135+Y63+A92+A101+M99+F134+L100+I82+Y64+S36+L98+V84+L81+Y94+S80+R38+S37+V102+G8+I123+G111+I113+L114+C65+L22+S96; hydroph_interaction:V124+P107+L22+E106+N129+N19+L40+I123+A135+I82+L100+L98+L131+F83+R93+F134+H104+A86+V74+P91+A101+F76+M99+L114+A92+Y94+R68+Y72+Y64+V18+V102+W28+G127+G128+L81; pication:H104+Y63+F134+Y90+R68+F83+R20; pistack:Y89+H104+F134+Y63+F83+Y94; saltbridge:R93+H104+E106+D109+E85+E88+R68+R20; 

>  <intxn_cluster>  (45) 
-1

>  <intxn_cluster_rank>  (45) 
-1

>  <N_interactions>  (45) 
3

>  <∆∆G>  (45) 
-12.868964

>  <$/mg>  (45) 
0.0

>  <comRMSD>  (45) 
0.702248

>  <N_rotatable_bonds>  (45) 
4

>  <deep_P1_sidechain>  (45) 
nan

>  <farthest_distance_to_substrate>  (45) 
2.389696

>  <hbond:SER:7>  (45) 
hbond:SER:7    NaN
hbond:SER:7     -1
Name: 44, dtype: object

>  <halogenbond:SER:7>  (45) 
halogenbond:SER:7    NaN
halogenbond:SER:7     -1
Name: 44, dtype: object

>  <hbond:GLY:8>  (45) 
hbond:GLY:8    NaN
hbond:GLY:8     -1
Name: 44, dtype: object

>  <hydroph_interaction:VAL:18>  (45) 
hydroph_interaction:VAL:18    NaN
hydroph_interaction:VAL:18     -1
Name: 44, dtype: object

>  <hbond:ASN:19>  (45) 
hbond:ASN:19    NaN
hbond:ASN:19     -1
Name: 44, dtype: object

>  <hydroph_interaction:ASN:19>  (45) 
hydroph_interaction:ASN:19    NaN
hydroph_interaction:ASN:19     -1
Name: 44, dtype: object

>  <halogenbond:ASN:19>  (45) 
halogenbond:ASN:19    NaN
halogenbond:ASN:19     -1
Name: 44, dtype: object

>  <hbond:ARG:20>  (45) 
hbond:ARG:20    NaN
hbond:ARG:20     -1
Name: 44, dtype: object

>  <hydroph_interaction:ARG:20>  (45) 
hydroph_interaction:ARG:20    0.0
hydroph_interaction:ARG:20      0
Name: 44, dtype: object

>  <saltbridge:ARG:20>  (45) 
saltbridge:ARG:20    NaN
saltbridge:ARG:20     -1
Name: 44, dtype: object

>  <halogenbond:ARG:20>  (45) 
halogenbond:ARG:20    NaN
halogenbond:ARG:20     -1
Name: 44, dtype: object

>  <pication:ARG:20>  (45) 
pication:ARG:20    NaN
pication:ARG:20     -1
Name: 44, dtype: object

>  <hbond:HIS:21>  (45) 
hbond:HIS:21    0.0
hbond:HIS:21      0
Name: 44, dtype: object

>  <hydroph_interaction:HIS:21>  (45) 
hydroph_interaction:HIS:21    0.0
hydroph_interaction:HIS:21      0
Name: 44, dtype: object

>  <pistack:HIS:21>  (45) 
pistack:HIS:21    0.0
pistack:HIS:21      0
Name: 44, dtype: object

>  <pication:HIS:21>  (45) 
pication:HIS:21    0.0
pication:HIS:21      0
Name: 44, dtype: object

>  <saltbridge:HIS:21>  (45) 
saltbridge:HIS:21    0.0
saltbridge:HIS:21      0
Name: 44, dtype: object

>  <halogenbond:HIS:21>  (45) 
halogenbond:HIS:21    NaN
halogenbond:HIS:21     -1
Name: 44, dtype: object

>  <hydroph_interaction:LEU:22>  (45) 
hydroph_interaction:LEU:22    NaN
hydroph_interaction:LEU:22     -1
Name: 44, dtype: object

>  <hbond:LEU:22>  (45) 
hbond:LEU:22    NaN
hbond:LEU:22     -1
Name: 44, dtype: object

>  <hydroph_interaction:TRP:28>  (45) 
hydroph_interaction:TRP:28    NaN
hydroph_interaction:TRP:28     -1
Name: 44, dtype: object

>  <hbond:SER:36>  (45) 
hbond:SER:36    NaN
hbond:SER:36     -1
Name: 44, dtype: object

>  <halogenbond:SER:36>  (45) 
halogenbond:SER:36    NaN
halogenbond:SER:36     -1
Name: 44, dtype: object

>  <hbond:SER:37>  (45) 
hbond:SER:37    NaN
hbond:SER:37     -1
Name: 44, dtype: object

>  <hbond:ARG:38>  (45) 
hbond:ARG:38    NaN
hbond:ARG:38     -1
Name: 44, dtype: object

>  <halogenbond:ARG:38>  (45) 
halogenbond:ARG:38    NaN
halogenbond:ARG:38     -1
Name: 44, dtype: object

>  <saltbridge:ASP:39>  (45) 
saltbridge:ASP:39    0.0
saltbridge:ASP:39      0
Name: 44, dtype: object

>  <halogenbond:ASP:39>  (45) 
halogenbond:ASP:39    0.0
halogenbond:ASP:39      0
Name: 44, dtype: object

>  <hbond:ASP:39>  (45) 
hbond:ASP:39    NaN
hbond:ASP:39     -1
Name: 44, dtype: object

>  <hydroph_interaction:ASP:39>  (45) 
hydroph_interaction:ASP:39    0.0
hydroph_interaction:ASP:39      0
Name: 44, dtype: object

>  <hydroph_interaction:LEU:40>  (45) 
hydroph_interaction:LEU:40    NaN
hydroph_interaction:LEU:40     -1
Name: 44, dtype: object

>  <hydroph_interaction:TYR:63>  (45) 
hydroph_interaction:TYR:63    0.0
hydroph_interaction:TYR:63      0
Name: 44, dtype: object

>  <hbond:TYR:63>  (45) 
hbond:TYR:63    NaN
hbond:TYR:63     -1
Name: 44, dtype: object

>  <pistack:TYR:63>  (45) 
pistack:TYR:63    NaN
pistack:TYR:63     -1
Name: 44, dtype: object

>  <pication:TYR:63>  (45) 
pication:TYR:63    NaN
pication:TYR:63     -1
Name: 44, dtype: object

>  <halogenbond:TYR:64>  (45) 
halogenbond:TYR:64    NaN
halogenbond:TYR:64     -1
Name: 44, dtype: object

>  <hbond:TYR:64>  (45) 
hbond:TYR:64    NaN
hbond:TYR:64     -1
Name: 44, dtype: object

>  <hydroph_interaction:TYR:64>  (45) 
hydroph_interaction:TYR:64    NaN
hydroph_interaction:TYR:64     -1
Name: 44, dtype: object

>  <halogenbond:CYS:65>  (45) 
halogenbond:CYS:65    NaN
halogenbond:CYS:65     -1
Name: 44, dtype: object

>  <hbond:CYS:65>  (45) 
hbond:CYS:65    NaN
hbond:CYS:65     -1
Name: 44, dtype: object

>  <hbond:SER:66>  (45) 
hbond:SER:66    NaN
hbond:SER:66     -1
Name: 44, dtype: object

>  <halogenbond:SER:66>  (45) 
halogenbond:SER:66    NaN
halogenbond:SER:66     -1
Name: 44, dtype: object

>  <hbond:SER:67>  (45) 
hbond:SER:67    0.0
hbond:SER:67      0
Name: 44, dtype: object

>  <halogenbond:SER:67>  (45) 
halogenbond:SER:67    NaN
halogenbond:SER:67     -1
Name: 44, dtype: object

>  <hbond:ARG:68>  (45) 
hbond:ARG:68    NaN
hbond:ARG:68     -1
Name: 44, dtype: object

>  <saltbridge:ARG:68>  (45) 
saltbridge:ARG:68    NaN
saltbridge:ARG:68     -1
Name: 44, dtype: object

>  <hydroph_interaction:ARG:68>  (45) 
hydroph_interaction:ARG:68    NaN
hydroph_interaction:ARG:68     -1
Name: 44, dtype: object

>  <pication:ARG:68>  (45) 
pication:ARG:68    NaN
pication:ARG:68     -1
Name: 44, dtype: object

>  <hydroph_interaction:TYR:72>  (45) 
hydroph_interaction:TYR:72    NaN
hydroph_interaction:TYR:72     -1
Name: 44, dtype: object

>  <hydroph_interaction:VAL:74>  (45) 
hydroph_interaction:VAL:74    NaN
hydroph_interaction:VAL:74     -1
Name: 44, dtype: object

>  <hydroph_interaction:PHE:76>  (45) 
hydroph_interaction:PHE:76    NaN
hydroph_interaction:PHE:76     -1
Name: 44, dtype: object

>  <hbond:SER:77>  (45) 
hbond:SER:77    NaN
hbond:SER:77     -1
Name: 44, dtype: object

>  <hbond:SER:80>  (45) 
hbond:SER:80    NaN
hbond:SER:80     -1
Name: 44, dtype: object

>  <hbond:LEU:81>  (45) 
hbond:LEU:81    NaN
hbond:LEU:81     -1
Name: 44, dtype: object

>  <halogenbond:LEU:81>  (45) 
halogenbond:LEU:81    NaN
halogenbond:LEU:81     -1
Name: 44, dtype: object

>  <hydroph_interaction:LEU:81>  (45) 
hydroph_interaction:LEU:81    NaN
hydroph_interaction:LEU:81     -1
Name: 44, dtype: object

>  <hydroph_interaction:ILE:82>  (45) 
hydroph_interaction:ILE:82    NaN
hydroph_interaction:ILE:82     -1
Name: 44, dtype: object

>  <halogenbond:ILE:82>  (45) 
halogenbond:ILE:82    NaN
halogenbond:ILE:82     -1
Name: 44, dtype: object

>  <hbond:ILE:82>  (45) 
hbond:ILE:82    NaN
hbond:ILE:82     -1
Name: 44, dtype: object

>  <hbond:PHE:83>  (45) 
hbond:PHE:83    NaN
hbond:PHE:83     -1
Name: 44, dtype: object

>  <hydroph_interaction:PHE:83>  (45) 
hydroph_interaction:PHE:83    NaN
hydroph_interaction:PHE:83     -1
Name: 44, dtype: object

>  <halogenbond:PHE:83>  (45) 
halogenbond:PHE:83    NaN
halogenbond:PHE:83     -1
Name: 44, dtype: object

>  <pistack:PHE:83>  (45) 
pistack:PHE:83    NaN
pistack:PHE:83     -1
Name: 44, dtype: object

>  <pication:PHE:83>  (45) 
pication:PHE:83    NaN
pication:PHE:83     -1
Name: 44, dtype: object

>  <hydroph_interaction:VAL:84>  (45) 
hydroph_interaction:VAL:84    0.0
hydroph_interaction:VAL:84      0
Name: 44, dtype: object

>  <halogenbond:VAL:84>  (45) 
halogenbond:VAL:84    NaN
halogenbond:VAL:84     -1
Name: 44, dtype: object

>  <hbond:VAL:84>  (45) 
hbond:VAL:84    NaN
hbond:VAL:84     -1
Name: 44, dtype: object

>  <hydroph_interaction:GLU:85>  (45) 
hydroph_interaction:GLU:85    0.0
hydroph_interaction:GLU:85      0
Name: 44, dtype: object

>  <hbond:GLU:85>  (45) 
hbond:GLU:85    0.0
hbond:GLU:85      0
Name: 44, dtype: object

>  <halogenbond:GLU:85>  (45) 
halogenbond:GLU:85    NaN
halogenbond:GLU:85     -1
Name: 44, dtype: object

>  <saltbridge:GLU:85>  (45) 
saltbridge:GLU:85    NaN
saltbridge:GLU:85     -1
Name: 44, dtype: object

>  <halogenbond:ALA:86>  (45) 
halogenbond:ALA:86    NaN
halogenbond:ALA:86     -1
Name: 44, dtype: object

>  <hbond:ALA:86>  (45) 
hbond:ALA:86    0.0
hbond:ALA:86      0
Name: 44, dtype: object

>  <hydroph_interaction:ALA:86>  (45) 
hydroph_interaction:ALA:86    NaN
hydroph_interaction:ALA:86     -1
Name: 44, dtype: object

>  <hbond:SER:87>  (45) 
hbond:SER:87    1
hbond:SER:87    1
Name: 44, dtype: object

>  <halogenbond:SER:87>  (45) 
halogenbond:SER:87    NaN
halogenbond:SER:87     -1
Name: 44, dtype: object

>  <hbond:GLU:88>  (45) 
hbond:GLU:88    0.0
hbond:GLU:88      0
Name: 44, dtype: object

>  <hydroph_interaction:GLU:88>  (45) 
hydroph_interaction:GLU:88    0.0
hydroph_interaction:GLU:88      0
Name: 44, dtype: object

>  <halogenbond:GLU:88>  (45) 
halogenbond:GLU:88    NaN
halogenbond:GLU:88     -1
Name: 44, dtype: object

>  <saltbridge:GLU:88>  (45) 
saltbridge:GLU:88    NaN
saltbridge:GLU:88     -1
Name: 44, dtype: object

>  <hydroph_interaction:TYR:89>  (45) 
hydroph_interaction:TYR:89    0.0
hydroph_interaction:TYR:89      0
Name: 44, dtype: object

>  <pistack:TYR:89>  (45) 
pistack:TYR:89    NaN
pistack:TYR:89     -1
Name: 44, dtype: object

>  <hbond:TYR:89>  (45) 
hbond:TYR:89    NaN
hbond:TYR:89     -1
Name: 44, dtype: object

>  <halogenbond:TYR:89>  (45) 
halogenbond:TYR:89    NaN
halogenbond:TYR:89     -1
Name: 44, dtype: object

>  <hydroph_interaction:TYR:90>  (45) 
hydroph_interaction:TYR:90    0.0
hydroph_interaction:TYR:90      0
Name: 44, dtype: object

>  <hbond:TYR:90>  (45) 
hbond:TYR:90    0.0
hbond:TYR:90      0
Name: 44, dtype: object

>  <pistack:TYR:90>  (45) 
pistack:TYR:90    0.0
pistack:TYR:90      0
Name: 44, dtype: object

>  <halogenbond:TYR:90>  (45) 
halogenbond:TYR:90    NaN
halogenbond:TYR:90     -1
Name: 44, dtype: object

>  <pication:TYR:90>  (45) 
pication:TYR:90    NaN
pication:TYR:90     -1
Name: 44, dtype: object

>  <hbond:PRO:91>  (45) 
hbond:PRO:91    NaN
hbond:PRO:91     -1
Name: 44, dtype: object

>  <hydroph_interaction:PRO:91>  (45) 
hydroph_interaction:PRO:91    NaN
hydroph_interaction:PRO:91     -1
Name: 44, dtype: object

>  <halogenbond:PRO:91>  (45) 
halogenbond:PRO:91    NaN
halogenbond:PRO:91     -1
Name: 44, dtype: object

>  <hbond:ALA:92>  (45) 
hbond:ALA:92    NaN
hbond:ALA:92     -1
Name: 44, dtype: object

>  <hydroph_interaction:ALA:92>  (45) 
hydroph_interaction:ALA:92    NaN
hydroph_interaction:ALA:92     -1
Name: 44, dtype: object

>  <saltbridge:ARG:93>  (45) 
saltbridge:ARG:93    NaN
saltbridge:ARG:93     -1
Name: 44, dtype: object

>  <hbond:ARG:93>  (45) 
hbond:ARG:93    NaN
hbond:ARG:93     -1
Name: 44, dtype: object

>  <hydroph_interaction:ARG:93>  (45) 
hydroph_interaction:ARG:93    NaN
hydroph_interaction:ARG:93     -1
Name: 44, dtype: object

>  <halogenbond:ARG:93>  (45) 
halogenbond:ARG:93    NaN
halogenbond:ARG:93     -1
Name: 44, dtype: object

>  <pication:ARG:93>  (45) 
pication:ARG:93    0.0
pication:ARG:93      0
Name: 44, dtype: object

>  <hydroph_interaction:TYR:94>  (45) 
hydroph_interaction:TYR:94    NaN
hydroph_interaction:TYR:94     -1
Name: 44, dtype: object

>  <pistack:TYR:94>  (45) 
pistack:TYR:94    NaN
pistack:TYR:94     -1
Name: 44, dtype: object

>  <hbond:TYR:94>  (45) 
hbond:TYR:94    NaN
hbond:TYR:94     -1
Name: 44, dtype: object

>  <hbond:GLN:95>  (45) 
hbond:GLN:95    NaN
hbond:GLN:95     -1
Name: 44, dtype: object

>  <hydroph_interaction:GLN:95>  (45) 
hydroph_interaction:GLN:95    0.0
hydroph_interaction:GLN:95      0
Name: 44, dtype: object

>  <halogenbond:GLN:95>  (45) 
halogenbond:GLN:95    NaN
halogenbond:GLN:95     -1
Name: 44, dtype: object

>  <hbond:SER:96>  (45) 
hbond:SER:96    NaN
hbond:SER:96     -1
Name: 44, dtype: object

>  <halogenbond:HIS:97>  (45) 
halogenbond:HIS:97    NaN
halogenbond:HIS:97     -1
Name: 44, dtype: object

>  <hydroph_interaction:LEU:98>  (45) 
hydroph_interaction:LEU:98    NaN
hydroph_interaction:LEU:98     -1
Name: 44, dtype: object

>  <hbond:LEU:98>  (45) 
hbond:LEU:98    NaN
hbond:LEU:98     -1
Name: 44, dtype: object

>  <halogenbond:LEU:98>  (45) 
halogenbond:LEU:98    NaN
halogenbond:LEU:98     -1
Name: 44, dtype: object

>  <hbond:MET:99>  (45) 
hbond:MET:99    NaN
hbond:MET:99     -1
Name: 44, dtype: object

>  <hydroph_interaction:MET:99>  (45) 
hydroph_interaction:MET:99    NaN
hydroph_interaction:MET:99     -1
Name: 44, dtype: object

>  <halogenbond:MET:99>  (45) 
halogenbond:MET:99    NaN
halogenbond:MET:99     -1
Name: 44, dtype: object

>  <hydroph_interaction:LEU:100>  (45) 
hydroph_interaction:LEU:100    NaN
hydroph_interaction:LEU:100     -1
Name: 44, dtype: object

>  <hbond:LEU:100>  (45) 
hbond:LEU:100    NaN
hbond:LEU:100     -1
Name: 44, dtype: object

>  <hbond:ALA:101>  (45) 
hbond:ALA:101    NaN
hbond:ALA:101     -1
Name: 44, dtype: object

>  <hydroph_interaction:ALA:101>  (45) 
hydroph_interaction:ALA:101    NaN
hydroph_interaction:ALA:101     -1
Name: 44, dtype: object

>  <hydroph_interaction:VAL:102>  (45) 
hydroph_interaction:VAL:102    NaN
hydroph_interaction:VAL:102     -1
Name: 44, dtype: object

>  <hbond:VAL:102>  (45) 
hbond:VAL:102    NaN
hbond:VAL:102     -1
Name: 44, dtype: object

>  <hbond:GLY:103>  (45) 
hbond:GLY:103    NaN
hbond:GLY:103     -1
Name: 44, dtype: object

>  <halogenbond:GLY:103>  (45) 
halogenbond:GLY:103    NaN
halogenbond:GLY:103     -1
Name: 44, dtype: object

>  <hbond:HIS:104>  (45) 
hbond:HIS:104    NaN
hbond:HIS:104     -1
Name: 44, dtype: object

>  <saltbridge:HIS:104>  (45) 
saltbridge:HIS:104    NaN
saltbridge:HIS:104     -1
Name: 44, dtype: object

>  <pication:HIS:104>  (45) 
pication:HIS:104    NaN
pication:HIS:104     -1
Name: 44, dtype: object

>  <halogenbond:HIS:104>  (45) 
halogenbond:HIS:104    NaN
halogenbond:HIS:104     -1
Name: 44, dtype: object

>  <hydroph_interaction:HIS:104>  (45) 
hydroph_interaction:HIS:104    NaN
hydroph_interaction:HIS:104     -1
Name: 44, dtype: object

>  <pistack:HIS:104>  (45) 
pistack:HIS:104    NaN
pistack:HIS:104     -1
Name: 44, dtype: object

>  <halogenbond:SER:105>  (45) 
halogenbond:SER:105    0.0
halogenbond:SER:105      0
Name: 44, dtype: object

>  <hbond:SER:105>  (45) 
hbond:SER:105    0.0
hbond:SER:105      0
Name: 44, dtype: object

>  <hbond:GLU:106>  (45) 
hbond:GLU:106    0.0
hbond:GLU:106      0
Name: 44, dtype: object

>  <hydroph_interaction:GLU:106>  (45) 
hydroph_interaction:GLU:106    NaN
hydroph_interaction:GLU:106     -1
Name: 44, dtype: object

>  <saltbridge:GLU:106>  (45) 
saltbridge:GLU:106    NaN
saltbridge:GLU:106     -1
Name: 44, dtype: object

>  <halogenbond:GLU:106>  (45) 
halogenbond:GLU:106    NaN
halogenbond:GLU:106     -1
Name: 44, dtype: object

>  <hydroph_interaction:PRO:107>  (45) 
hydroph_interaction:PRO:107    1
hydroph_interaction:PRO:107    1
Name: 44, dtype: object

>  <hbond:PRO:107>  (45) 
hbond:PRO:107    0.0
hbond:PRO:107      0
Name: 44, dtype: object

>  <halogenbond:PRO:107>  (45) 
halogenbond:PRO:107    0.0
halogenbond:PRO:107      0
Name: 44, dtype: object

>  <hbond:GLY:108>  (45) 
hbond:GLY:108    NaN
hbond:GLY:108     -1
Name: 44, dtype: object

>  <halogenbond:GLY:108>  (45) 
halogenbond:GLY:108    NaN
halogenbond:GLY:108     -1
Name: 44, dtype: object

>  <hbond:ASP:109>  (45) 
hbond:ASP:109    0.0
hbond:ASP:109      0
Name: 44, dtype: object

>  <hydroph_interaction:ASP:109>  (45) 
hydroph_interaction:ASP:109    0.0
hydroph_interaction:ASP:109      0
Name: 44, dtype: object

>  <saltbridge:ASP:109>  (45) 
saltbridge:ASP:109    NaN
saltbridge:ASP:109     -1
Name: 44, dtype: object

>  <halogenbond:CYS:110>  (45) 
halogenbond:CYS:110    NaN
halogenbond:CYS:110     -1
Name: 44, dtype: object

>  <hbond:CYS:110>  (45) 
hbond:CYS:110    0.0
hbond:CYS:110      0
Name: 44, dtype: object

>  <hbond:GLY:111>  (45) 
hbond:GLY:111    NaN
hbond:GLY:111     -1
Name: 44, dtype: object

>  <hbond:GLY:112>  (45) 
hbond:GLY:112    NaN
hbond:GLY:112     -1
Name: 44, dtype: object

>  <hbond:ILE:113>  (45) 
hbond:ILE:113    NaN
hbond:ILE:113     -1
Name: 44, dtype: object

>  <hydroph_interaction:LEU:114>  (45) 
hydroph_interaction:LEU:114    NaN
hydroph_interaction:LEU:114     -1
Name: 44, dtype: object

>  <hbond:LEU:114>  (45) 
hbond:LEU:114    NaN
hbond:LEU:114     -1
Name: 44, dtype: object

>  <hydroph_interaction:ILE:123>  (45) 
hydroph_interaction:ILE:123    NaN
hydroph_interaction:ILE:123     -1
Name: 44, dtype: object

>  <hbond:ILE:123>  (45) 
hbond:ILE:123    NaN
hbond:ILE:123     -1
Name: 44, dtype: object

>  <hydroph_interaction:VAL:124>  (45) 
hydroph_interaction:VAL:124    1.0
hydroph_interaction:VAL:124      1
Name: 44, dtype: object

>  <hbond:VAL:124>  (45) 
hbond:VAL:124    NaN
hbond:VAL:124     -1
Name: 44, dtype: object

>  <halogenbond:VAL:124>  (45) 
halogenbond:VAL:124    NaN
halogenbond:VAL:124     -1
Name: 44, dtype: object

>  <hbond:SER:125>  (45) 
hbond:SER:125    0
hbond:SER:125    0
Name: 44, dtype: object

>  <halogenbond:SER:125>  (45) 
halogenbond:SER:125    0.0
halogenbond:SER:125      0
Name: 44, dtype: object

>  <hydroph_interaction:THR:126>  (45) 
hydroph_interaction:THR:126    0.0
hydroph_interaction:THR:126      0
Name: 44, dtype: object

>  <hbond:THR:126>  (45) 
hbond:THR:126    0.0
hbond:THR:126      0
Name: 44, dtype: object

>  <halogenbond:THR:126>  (45) 
halogenbond:THR:126    NaN
halogenbond:THR:126     -1
Name: 44, dtype: object

>  <hbond:GLY:127>  (45) 
hbond:GLY:127    0
hbond:GLY:127    0
Name: 44, dtype: object

>  <halogenbond:GLY:127>  (45) 
halogenbond:GLY:127    NaN
halogenbond:GLY:127     -1
Name: 44, dtype: object

>  <hydroph_interaction:GLY:127>  (45) 
hydroph_interaction:GLY:127    NaN
hydroph_interaction:GLY:127     -1
Name: 44, dtype: object

>  <hbond:GLY:128>  (45) 
hbond:GLY:128    NaN
hbond:GLY:128     -1
Name: 44, dtype: object

>  <halogenbond:GLY:128>  (45) 
halogenbond:GLY:128    NaN
halogenbond:GLY:128     -1
Name: 44, dtype: object

>  <hydroph_interaction:GLY:128>  (45) 
hydroph_interaction:GLY:128    NaN
hydroph_interaction:GLY:128     -1
Name: 44, dtype: object

>  <hbond:ASN:129>  (45) 
hbond:ASN:129    NaN
hbond:ASN:129     -1
Name: 44, dtype: object

>  <hydroph_interaction:ASN:129>  (45) 
hydroph_interaction:ASN:129    NaN
hydroph_interaction:ASN:129     -1
Name: 44, dtype: object

>  <halogenbond:ASN:129>  (45) 
halogenbond:ASN:129    NaN
halogenbond:ASN:129     -1
Name: 44, dtype: object

>  <hbond:GLY:130>  (45) 
hbond:GLY:130    NaN
hbond:GLY:130     -1
Name: 44, dtype: object

>  <hbond:LEU:131>  (45) 
hbond:LEU:131    NaN
hbond:LEU:131     -1
Name: 44, dtype: object

>  <hydroph_interaction:LEU:131>  (45) 
hydroph_interaction:LEU:131    NaN
hydroph_interaction:LEU:131     -1
Name: 44, dtype: object

>  <halogenbond:LEU:131>  (45) 
halogenbond:LEU:131    NaN
halogenbond:LEU:131     -1
Name: 44, dtype: object

>  <hydroph_interaction:VAL:132>  (45) 
hydroph_interaction:VAL:132    0.0
hydroph_interaction:VAL:132      0
Name: 44, dtype: object

>  <hbond:VAL:132>  (45) 
hbond:VAL:132    NaN
hbond:VAL:132     -1
Name: 44, dtype: object

>  <hbond:GLY:133>  (45) 
hbond:GLY:133    NaN
hbond:GLY:133     -1
Name: 44, dtype: object

>  <halogenbond:GLY:133>  (45) 
halogenbond:GLY:133    NaN
halogenbond:GLY:133     -1
Name: 44, dtype: object

>  <hydroph_interaction:PHE:134>  (45) 
hydroph_interaction:PHE:134    NaN
hydroph_interaction:PHE:134     -1
Name: 44, dtype: object

>  <hbond:PHE:134>  (45) 
hbond:PHE:134    NaN
hbond:PHE:134     -1
Name: 44, dtype: object

>  <pistack:PHE:134>  (45) 
pistack:PHE:134    NaN
pistack:PHE:134     -1
Name: 44, dtype: object

>  <pication:PHE:134>  (45) 
pication:PHE:134    NaN
pication:PHE:134     -1
Name: 44, dtype: object

>  <halogenbond:PHE:134>  (45) 
halogenbond:PHE:134    NaN
halogenbond:PHE:134     -1
Name: 44, dtype: object

>  <hydroph_interaction:ALA:135>  (45) 
hydroph_interaction:ALA:135    NaN
hydroph_interaction:ALA:135     -1
Name: 44, dtype: object

>  <hbond:ALA:135>  (45) 
hbond:ALA:135    NaN
hbond:ALA:135     -1
Name: 44, dtype: object

$$$$
Z1537098021
     RDKit          3D

 28 29  0  0  0  0  0  0  0  0999 V2000
   10.2320    9.3440   22.6660 C   0  0  0  0  0  0  0  0  0  0  0  0
    9.5540   10.4660   23.3830 C   0  0  0  0  0  0  0  0  0  0  0  0
    8.5700   10.2830   24.3520 C   0  0  0  0  0  0  0  0  0  0  0  0
    7.9810   11.3900   24.9650 C   0  0  0  0  0  0  0  0  0  0  0  0
    8.3760   12.6870   24.6080 C   0  0  0  0  0  0  0  0  0  0  0  0
    7.5300   14.1560   25.4850 Br  0  0  0  0  0  0  0  0  0  0  0  0
    9.3690   12.8780   23.6330 C   0  0  0  0  0  0  0  0  0  0  0  0
    9.8140   14.1270   23.2280 N   0  0  0  0  0  0  0  0  0  0  0  0
   10.8190   14.1990   22.1710 C   0  0  0  0  0  0  0  0  0  0  0  0
   12.2250   14.0520   22.6960 C   0  0  0  0  0  0  0  0  0  0  0  0
   12.8240   15.4140   22.5850 C   0  0  0  0  0  0  0  0  0  0  0  0
   12.1810   15.9810   21.4540 N   0  0  0  0  0  0  0  0  0  0  0  0
   10.9200   15.4340   21.2780 C   0  0  0  0  0  0  0  0  0  0  0  0
   10.0720   15.8960   20.5370 O   0  0  0  0  0  0  0  0  0  0  0  0
    9.9280   11.7510   23.0510 C   0  0  0  0  0  0  0  0  0  0  0  0
    9.5030    8.7180   22.1560 H   0  0  0  0  0  0  0  0  0  0  0  0
   10.8310    8.7400   23.3510 H   0  0  0  0  0  0  0  0  0  0  0  0
   10.8820    9.7340   21.8830 H   0  0  0  0  0  0  0  0  0  0  0  0
    8.2510    9.2860   24.6360 H   0  0  0  0  0  0  0  0  0  0  0  0
    7.2140   11.2380   25.7190 H   0  0  0  0  0  0  0  0  0  0  0  0
    9.0180   14.7540   23.0330 H   0  0  0  0  0  0  0  0  0  0  0  0
   10.6210   13.3710   21.4940 H   0  0  0  0  0  0  0  0  0  0  0  0
   12.2550   13.7320   23.7420 H   0  0  0  0  0  0  0  0  0  0  0  0
   12.8080   13.3340   22.1220 H   0  0  0  0  0  0  0  0  0  0  0  0
   13.8930   15.3560   22.4170 H   0  0  0  0  0  0  0  0  0  0  0  0
   12.5950   16.0230   23.4570 H   0  0  0  0  0  0  0  0  0  0  0  0
   12.6670   16.3370   20.6420 H   0  0  0  0  0  0  0  0  0  0  0  0
   10.7030   11.8500   22.2880 H   0  0  0  0  0  0  0  0  0  0  0  0
  1  2  1  0
  2  3  2  0
  3  4  1  0
  4  5  2  0
  5  6  1  0
  5  7  1  0
  7  8  1  0
  8  9  1  0
  9 10  1  0
 10 11  1  0
 11 12  1  0
 12 13  1  0
 13 14  2  0
  7 15  2  0
 15  2  1  0
 13  9  1  0
  1 16  1  0
  1 17  1  0
  1 18  1  0
  3 19  1  0
  4 20  1  0
  8 21  1  0
  9 22  1  0
 10 23  1  0
 10 24  1  0
 11 25  1  0
 11 26  1  0
 12 27  1  0
 15 28  1  0
A    1
 C1 
A    2
 C2 
A    3
 C3 
A    4
 C4 
A    5
 C5 
A    6
BR1 
A    7
 C6 
A    8
 N1 
A    9
 C7 
A   10
 C8 
A   11
 C9 
A   12
 N2 
A   13
 C10
A   14
 O1 
A   15
 C11
A   16
 H1 
A   17
 H2 
A   18
 H3 
A   19
 H4 
A   20
 H5 
A   21
 H6 
A   22
 H7 
A   23
 H8 
A   24
 H9 
A   25
 H10
A   26
 H11
A   27
 H12
A   28
 H13
M  END
>  <ref_pdb>  (46) 
x0310_0A

>  <ref_mols>  (46) 
x0416_0A,x0528_0A

>  <original SMILES>  (46) 
Cc1ccc(Br)c(NC2CCNC2=O)c1

>  <rationale>  (46) 
info halogenbond:C110+G127+A86+E85+Q95+E106+E88+T126+H104+Y64+C65+S87+N129+F83+R93+L131+I82+G128+P91+N19+H21+V84+G133+Y90+Y89+H97+L81+F134+L98+R20+G103+S66+S67+S7+G108+R38+V124+M99+S36; hbond:S87+Q95+D39+G108+G103+G128+G130+L131+N129+N19+H104+R68+V124+R93+P91+F83+S7+S66+G112+G133+V132+R20+Y89+S77+A135+Y63+A92+A101+M99+F134+L100+I82+Y64+S36+L98+V84+L81+Y94+S80+R38+S37+V102+G8+I123+G111+I113+L114+C65+L22+S96; hydroph_interaction:V124+P107+L22+E106+N129+N19+L40+I123+A135+I82+L100+L98+L131+F83+R93+F134+H104+A86+V74+P91+A101+F76+M99+L114+A92+Y94+R68+Y72+Y64+V18+V102+W28+G127+G128+L81; pication:H104+Y63+F134+Y90+R68+F83+R20; pistack:Y89+H104+F134+Y63+F83+Y94; saltbridge:R93+H104+E106+D109+E85+E88+R68+R20; 

>  <intxn_cluster>  (46) 
-1

>  <intxn_cluster_rank>  (46) 
-1

>  <N_interactions>  (46) 
4

>  <∆∆G>  (46) 
-9.023702

>  <$/mg>  (46) 
0.0

>  <comRMSD>  (46) 
0.501323

>  <N_rotatable_bonds>  (46) 
3

>  <deep_P1_sidechain>  (46) 
nan

>  <farthest_distance_to_substrate>  (46) 
2.204728

>  <hbond:SER:7>  (46) 
hbond:SER:7    NaN
hbond:SER:7     -1
Name: 45, dtype: object

>  <halogenbond:SER:7>  (46) 
halogenbond:SER:7    NaN
halogenbond:SER:7     -1
Name: 45, dtype: object

>  <hbond:GLY:8>  (46) 
hbond:GLY:8    NaN
hbond:GLY:8     -1
Name: 45, dtype: object

>  <hydroph_interaction:VAL:18>  (46) 
hydroph_interaction:VAL:18    NaN
hydroph_interaction:VAL:18     -1
Name: 45, dtype: object

>  <hbond:ASN:19>  (46) 
hbond:ASN:19    NaN
hbond:ASN:19     -1
Name: 45, dtype: object

>  <hydroph_interaction:ASN:19>  (46) 
hydroph_interaction:ASN:19    NaN
hydroph_interaction:ASN:19     -1
Name: 45, dtype: object

>  <halogenbond:ASN:19>  (46) 
halogenbond:ASN:19    NaN
halogenbond:ASN:19     -1
Name: 45, dtype: object

>  <hbond:ARG:20>  (46) 
hbond:ARG:20    NaN
hbond:ARG:20     -1
Name: 45, dtype: object

>  <hydroph_interaction:ARG:20>  (46) 
hydroph_interaction:ARG:20    0.0
hydroph_interaction:ARG:20      0
Name: 45, dtype: object

>  <saltbridge:ARG:20>  (46) 
saltbridge:ARG:20    NaN
saltbridge:ARG:20     -1
Name: 45, dtype: object

>  <halogenbond:ARG:20>  (46) 
halogenbond:ARG:20    NaN
halogenbond:ARG:20     -1
Name: 45, dtype: object

>  <pication:ARG:20>  (46) 
pication:ARG:20    NaN
pication:ARG:20     -1
Name: 45, dtype: object

>  <hbond:HIS:21>  (46) 
hbond:HIS:21    0.0
hbond:HIS:21      0
Name: 45, dtype: object

>  <hydroph_interaction:HIS:21>  (46) 
hydroph_interaction:HIS:21    0.0
hydroph_interaction:HIS:21      0
Name: 45, dtype: object

>  <pistack:HIS:21>  (46) 
pistack:HIS:21    0.0
pistack:HIS:21      0
Name: 45, dtype: object

>  <pication:HIS:21>  (46) 
pication:HIS:21    0.0
pication:HIS:21      0
Name: 45, dtype: object

>  <saltbridge:HIS:21>  (46) 
saltbridge:HIS:21    0.0
saltbridge:HIS:21      0
Name: 45, dtype: object

>  <halogenbond:HIS:21>  (46) 
halogenbond:HIS:21    NaN
halogenbond:HIS:21     -1
Name: 45, dtype: object

>  <hydroph_interaction:LEU:22>  (46) 
hydroph_interaction:LEU:22    NaN
hydroph_interaction:LEU:22     -1
Name: 45, dtype: object

>  <hbond:LEU:22>  (46) 
hbond:LEU:22    NaN
hbond:LEU:22     -1
Name: 45, dtype: object

>  <hydroph_interaction:TRP:28>  (46) 
hydroph_interaction:TRP:28    NaN
hydroph_interaction:TRP:28     -1
Name: 45, dtype: object

>  <hbond:SER:36>  (46) 
hbond:SER:36    NaN
hbond:SER:36     -1
Name: 45, dtype: object

>  <halogenbond:SER:36>  (46) 
halogenbond:SER:36    NaN
halogenbond:SER:36     -1
Name: 45, dtype: object

>  <hbond:SER:37>  (46) 
hbond:SER:37    NaN
hbond:SER:37     -1
Name: 45, dtype: object

>  <hbond:ARG:38>  (46) 
hbond:ARG:38    NaN
hbond:ARG:38     -1
Name: 45, dtype: object

>  <halogenbond:ARG:38>  (46) 
halogenbond:ARG:38    NaN
halogenbond:ARG:38     -1
Name: 45, dtype: object

>  <saltbridge:ASP:39>  (46) 
saltbridge:ASP:39    0.0
saltbridge:ASP:39      0
Name: 45, dtype: object

>  <halogenbond:ASP:39>  (46) 
halogenbond:ASP:39    0.0
halogenbond:ASP:39      0
Name: 45, dtype: object

>  <hbond:ASP:39>  (46) 
hbond:ASP:39    NaN
hbond:ASP:39     -1
Name: 45, dtype: object

>  <hydroph_interaction:ASP:39>  (46) 
hydroph_interaction:ASP:39    0.0
hydroph_interaction:ASP:39      0
Name: 45, dtype: object

>  <hydroph_interaction:LEU:40>  (46) 
hydroph_interaction:LEU:40    NaN
hydroph_interaction:LEU:40     -1
Name: 45, dtype: object

>  <hydroph_interaction:TYR:63>  (46) 
hydroph_interaction:TYR:63    0.0
hydroph_interaction:TYR:63      0
Name: 45, dtype: object

>  <hbond:TYR:63>  (46) 
hbond:TYR:63    NaN
hbond:TYR:63     -1
Name: 45, dtype: object

>  <pistack:TYR:63>  (46) 
pistack:TYR:63    NaN
pistack:TYR:63     -1
Name: 45, dtype: object

>  <pication:TYR:63>  (46) 
pication:TYR:63    NaN
pication:TYR:63     -1
Name: 45, dtype: object

>  <halogenbond:TYR:64>  (46) 
halogenbond:TYR:64    NaN
halogenbond:TYR:64     -1
Name: 45, dtype: object

>  <hbond:TYR:64>  (46) 
hbond:TYR:64    NaN
hbond:TYR:64     -1
Name: 45, dtype: object

>  <hydroph_interaction:TYR:64>  (46) 
hydroph_interaction:TYR:64    NaN
hydroph_interaction:TYR:64     -1
Name: 45, dtype: object

>  <halogenbond:CYS:65>  (46) 
halogenbond:CYS:65    NaN
halogenbond:CYS:65     -1
Name: 45, dtype: object

>  <hbond:CYS:65>  (46) 
hbond:CYS:65    NaN
hbond:CYS:65     -1
Name: 45, dtype: object

>  <hbond:SER:66>  (46) 
hbond:SER:66    NaN
hbond:SER:66     -1
Name: 45, dtype: object

>  <halogenbond:SER:66>  (46) 
halogenbond:SER:66    NaN
halogenbond:SER:66     -1
Name: 45, dtype: object

>  <hbond:SER:67>  (46) 
hbond:SER:67    0.0
hbond:SER:67      0
Name: 45, dtype: object

>  <halogenbond:SER:67>  (46) 
halogenbond:SER:67    NaN
halogenbond:SER:67     -1
Name: 45, dtype: object

>  <hbond:ARG:68>  (46) 
hbond:ARG:68    NaN
hbond:ARG:68     -1
Name: 45, dtype: object

>  <saltbridge:ARG:68>  (46) 
saltbridge:ARG:68    NaN
saltbridge:ARG:68     -1
Name: 45, dtype: object

>  <hydroph_interaction:ARG:68>  (46) 
hydroph_interaction:ARG:68    NaN
hydroph_interaction:ARG:68     -1
Name: 45, dtype: object

>  <pication:ARG:68>  (46) 
pication:ARG:68    NaN
pication:ARG:68     -1
Name: 45, dtype: object

>  <hydroph_interaction:TYR:72>  (46) 
hydroph_interaction:TYR:72    NaN
hydroph_interaction:TYR:72     -1
Name: 45, dtype: object

>  <hydroph_interaction:VAL:74>  (46) 
hydroph_interaction:VAL:74    NaN
hydroph_interaction:VAL:74     -1
Name: 45, dtype: object

>  <hydroph_interaction:PHE:76>  (46) 
hydroph_interaction:PHE:76    NaN
hydroph_interaction:PHE:76     -1
Name: 45, dtype: object

>  <hbond:SER:77>  (46) 
hbond:SER:77    NaN
hbond:SER:77     -1
Name: 45, dtype: object

>  <hbond:SER:80>  (46) 
hbond:SER:80    NaN
hbond:SER:80     -1
Name: 45, dtype: object

>  <hbond:LEU:81>  (46) 
hbond:LEU:81    NaN
hbond:LEU:81     -1
Name: 45, dtype: object

>  <halogenbond:LEU:81>  (46) 
halogenbond:LEU:81    NaN
halogenbond:LEU:81     -1
Name: 45, dtype: object

>  <hydroph_interaction:LEU:81>  (46) 
hydroph_interaction:LEU:81    NaN
hydroph_interaction:LEU:81     -1
Name: 45, dtype: object

>  <hydroph_interaction:ILE:82>  (46) 
hydroph_interaction:ILE:82    NaN
hydroph_interaction:ILE:82     -1
Name: 45, dtype: object

>  <halogenbond:ILE:82>  (46) 
halogenbond:ILE:82    NaN
halogenbond:ILE:82     -1
Name: 45, dtype: object

>  <hbond:ILE:82>  (46) 
hbond:ILE:82    NaN
hbond:ILE:82     -1
Name: 45, dtype: object

>  <hbond:PHE:83>  (46) 
hbond:PHE:83    NaN
hbond:PHE:83     -1
Name: 45, dtype: object

>  <hydroph_interaction:PHE:83>  (46) 
hydroph_interaction:PHE:83    NaN
hydroph_interaction:PHE:83     -1
Name: 45, dtype: object

>  <halogenbond:PHE:83>  (46) 
halogenbond:PHE:83    NaN
halogenbond:PHE:83     -1
Name: 45, dtype: object

>  <pistack:PHE:83>  (46) 
pistack:PHE:83    NaN
pistack:PHE:83     -1
Name: 45, dtype: object

>  <pication:PHE:83>  (46) 
pication:PHE:83    NaN
pication:PHE:83     -1
Name: 45, dtype: object

>  <hydroph_interaction:VAL:84>  (46) 
hydroph_interaction:VAL:84    0.0
hydroph_interaction:VAL:84      0
Name: 45, dtype: object

>  <halogenbond:VAL:84>  (46) 
halogenbond:VAL:84    NaN
halogenbond:VAL:84     -1
Name: 45, dtype: object

>  <hbond:VAL:84>  (46) 
hbond:VAL:84    NaN
hbond:VAL:84     -1
Name: 45, dtype: object

>  <hydroph_interaction:GLU:85>  (46) 
hydroph_interaction:GLU:85    0.0
hydroph_interaction:GLU:85      0
Name: 45, dtype: object

>  <hbond:GLU:85>  (46) 
hbond:GLU:85    0.0
hbond:GLU:85      0
Name: 45, dtype: object

>  <halogenbond:GLU:85>  (46) 
halogenbond:GLU:85    NaN
halogenbond:GLU:85     -1
Name: 45, dtype: object

>  <saltbridge:GLU:85>  (46) 
saltbridge:GLU:85    NaN
saltbridge:GLU:85     -1
Name: 45, dtype: object

>  <halogenbond:ALA:86>  (46) 
halogenbond:ALA:86    NaN
halogenbond:ALA:86     -1
Name: 45, dtype: object

>  <hbond:ALA:86>  (46) 
hbond:ALA:86    0.0
hbond:ALA:86      0
Name: 45, dtype: object

>  <hydroph_interaction:ALA:86>  (46) 
hydroph_interaction:ALA:86    NaN
hydroph_interaction:ALA:86     -1
Name: 45, dtype: object

>  <hbond:SER:87>  (46) 
hbond:SER:87    2
hbond:SER:87    2
Name: 45, dtype: object

>  <halogenbond:SER:87>  (46) 
halogenbond:SER:87    NaN
halogenbond:SER:87     -1
Name: 45, dtype: object

>  <hbond:GLU:88>  (46) 
hbond:GLU:88    0.0
hbond:GLU:88      0
Name: 45, dtype: object

>  <hydroph_interaction:GLU:88>  (46) 
hydroph_interaction:GLU:88    0.0
hydroph_interaction:GLU:88      0
Name: 45, dtype: object

>  <halogenbond:GLU:88>  (46) 
halogenbond:GLU:88    NaN
halogenbond:GLU:88     -1
Name: 45, dtype: object

>  <saltbridge:GLU:88>  (46) 
saltbridge:GLU:88    NaN
saltbridge:GLU:88     -1
Name: 45, dtype: object

>  <hydroph_interaction:TYR:89>  (46) 
hydroph_interaction:TYR:89    0.0
hydroph_interaction:TYR:89      0
Name: 45, dtype: object

>  <pistack:TYR:89>  (46) 
pistack:TYR:89    NaN
pistack:TYR:89     -1
Name: 45, dtype: object

>  <hbond:TYR:89>  (46) 
hbond:TYR:89    NaN
hbond:TYR:89     -1
Name: 45, dtype: object

>  <halogenbond:TYR:89>  (46) 
halogenbond:TYR:89    NaN
halogenbond:TYR:89     -1
Name: 45, dtype: object

>  <hydroph_interaction:TYR:90>  (46) 
hydroph_interaction:TYR:90    0.0
hydroph_interaction:TYR:90      0
Name: 45, dtype: object

>  <hbond:TYR:90>  (46) 
hbond:TYR:90    0.0
hbond:TYR:90      0
Name: 45, dtype: object

>  <pistack:TYR:90>  (46) 
pistack:TYR:90    0.0
pistack:TYR:90      0
Name: 45, dtype: object

>  <halogenbond:TYR:90>  (46) 
halogenbond:TYR:90    NaN
halogenbond:TYR:90     -1
Name: 45, dtype: object

>  <pication:TYR:90>  (46) 
pication:TYR:90    NaN
pication:TYR:90     -1
Name: 45, dtype: object

>  <hbond:PRO:91>  (46) 
hbond:PRO:91    NaN
hbond:PRO:91     -1
Name: 45, dtype: object

>  <hydroph_interaction:PRO:91>  (46) 
hydroph_interaction:PRO:91    NaN
hydroph_interaction:PRO:91     -1
Name: 45, dtype: object

>  <halogenbond:PRO:91>  (46) 
halogenbond:PRO:91    NaN
halogenbond:PRO:91     -1
Name: 45, dtype: object

>  <hbond:ALA:92>  (46) 
hbond:ALA:92    NaN
hbond:ALA:92     -1
Name: 45, dtype: object

>  <hydroph_interaction:ALA:92>  (46) 
hydroph_interaction:ALA:92    NaN
hydroph_interaction:ALA:92     -1
Name: 45, dtype: object

>  <saltbridge:ARG:93>  (46) 
saltbridge:ARG:93    NaN
saltbridge:ARG:93     -1
Name: 45, dtype: object

>  <hbond:ARG:93>  (46) 
hbond:ARG:93    NaN
hbond:ARG:93     -1
Name: 45, dtype: object

>  <hydroph_interaction:ARG:93>  (46) 
hydroph_interaction:ARG:93    NaN
hydroph_interaction:ARG:93     -1
Name: 45, dtype: object

>  <halogenbond:ARG:93>  (46) 
halogenbond:ARG:93    NaN
halogenbond:ARG:93     -1
Name: 45, dtype: object

>  <pication:ARG:93>  (46) 
pication:ARG:93    0.0
pication:ARG:93      0
Name: 45, dtype: object

>  <hydroph_interaction:TYR:94>  (46) 
hydroph_interaction:TYR:94    NaN
hydroph_interaction:TYR:94     -1
Name: 45, dtype: object

>  <pistack:TYR:94>  (46) 
pistack:TYR:94    NaN
pistack:TYR:94     -1
Name: 45, dtype: object

>  <hbond:TYR:94>  (46) 
hbond:TYR:94    NaN
hbond:TYR:94     -1
Name: 45, dtype: object

>  <hbond:GLN:95>  (46) 
hbond:GLN:95    NaN
hbond:GLN:95     -1
Name: 45, dtype: object

>  <hydroph_interaction:GLN:95>  (46) 
hydroph_interaction:GLN:95    0.0
hydroph_interaction:GLN:95      0
Name: 45, dtype: object

>  <halogenbond:GLN:95>  (46) 
halogenbond:GLN:95    NaN
halogenbond:GLN:95     -1
Name: 45, dtype: object

>  <hbond:SER:96>  (46) 
hbond:SER:96    NaN
hbond:SER:96     -1
Name: 45, dtype: object

>  <halogenbond:HIS:97>  (46) 
halogenbond:HIS:97    NaN
halogenbond:HIS:97     -1
Name: 45, dtype: object

>  <hydroph_interaction:LEU:98>  (46) 
hydroph_interaction:LEU:98    NaN
hydroph_interaction:LEU:98     -1
Name: 45, dtype: object

>  <hbond:LEU:98>  (46) 
hbond:LEU:98    NaN
hbond:LEU:98     -1
Name: 45, dtype: object

>  <halogenbond:LEU:98>  (46) 
halogenbond:LEU:98    NaN
halogenbond:LEU:98     -1
Name: 45, dtype: object

>  <hbond:MET:99>  (46) 
hbond:MET:99    NaN
hbond:MET:99     -1
Name: 45, dtype: object

>  <hydroph_interaction:MET:99>  (46) 
hydroph_interaction:MET:99    NaN
hydroph_interaction:MET:99     -1
Name: 45, dtype: object

>  <halogenbond:MET:99>  (46) 
halogenbond:MET:99    NaN
halogenbond:MET:99     -1
Name: 45, dtype: object

>  <hydroph_interaction:LEU:100>  (46) 
hydroph_interaction:LEU:100    NaN
hydroph_interaction:LEU:100     -1
Name: 45, dtype: object

>  <hbond:LEU:100>  (46) 
hbond:LEU:100    NaN
hbond:LEU:100     -1
Name: 45, dtype: object

>  <hbond:ALA:101>  (46) 
hbond:ALA:101    NaN
hbond:ALA:101     -1
Name: 45, dtype: object

>  <hydroph_interaction:ALA:101>  (46) 
hydroph_interaction:ALA:101    NaN
hydroph_interaction:ALA:101     -1
Name: 45, dtype: object

>  <hydroph_interaction:VAL:102>  (46) 
hydroph_interaction:VAL:102    NaN
hydroph_interaction:VAL:102     -1
Name: 45, dtype: object

>  <hbond:VAL:102>  (46) 
hbond:VAL:102    NaN
hbond:VAL:102     -1
Name: 45, dtype: object

>  <hbond:GLY:103>  (46) 
hbond:GLY:103    NaN
hbond:GLY:103     -1
Name: 45, dtype: object

>  <halogenbond:GLY:103>  (46) 
halogenbond:GLY:103    NaN
halogenbond:GLY:103     -1
Name: 45, dtype: object

>  <hbond:HIS:104>  (46) 
hbond:HIS:104    NaN
hbond:HIS:104     -1
Name: 45, dtype: object

>  <saltbridge:HIS:104>  (46) 
saltbridge:HIS:104    NaN
saltbridge:HIS:104     -1
Name: 45, dtype: object

>  <pication:HIS:104>  (46) 
pication:HIS:104    NaN
pication:HIS:104     -1
Name: 45, dtype: object

>  <halogenbond:HIS:104>  (46) 
halogenbond:HIS:104    NaN
halogenbond:HIS:104     -1
Name: 45, dtype: object

>  <hydroph_interaction:HIS:104>  (46) 
hydroph_interaction:HIS:104    NaN
hydroph_interaction:HIS:104     -1
Name: 45, dtype: object

>  <pistack:HIS:104>  (46) 
pistack:HIS:104    NaN
pistack:HIS:104     -1
Name: 45, dtype: object

>  <halogenbond:SER:105>  (46) 
halogenbond:SER:105    0.0
halogenbond:SER:105      0
Name: 45, dtype: object

>  <hbond:SER:105>  (46) 
hbond:SER:105    0.0
hbond:SER:105      0
Name: 45, dtype: object

>  <hbond:GLU:106>  (46) 
hbond:GLU:106    0.0
hbond:GLU:106      0
Name: 45, dtype: object

>  <hydroph_interaction:GLU:106>  (46) 
hydroph_interaction:GLU:106    NaN
hydroph_interaction:GLU:106     -1
Name: 45, dtype: object

>  <saltbridge:GLU:106>  (46) 
saltbridge:GLU:106    NaN
saltbridge:GLU:106     -1
Name: 45, dtype: object

>  <halogenbond:GLU:106>  (46) 
halogenbond:GLU:106    NaN
halogenbond:GLU:106     -1
Name: 45, dtype: object

>  <hydroph_interaction:PRO:107>  (46) 
hydroph_interaction:PRO:107    1
hydroph_interaction:PRO:107    1
Name: 45, dtype: object

>  <hbond:PRO:107>  (46) 
hbond:PRO:107    0.0
hbond:PRO:107      0
Name: 45, dtype: object

>  <halogenbond:PRO:107>  (46) 
halogenbond:PRO:107    0.0
halogenbond:PRO:107      0
Name: 45, dtype: object

>  <hbond:GLY:108>  (46) 
hbond:GLY:108    NaN
hbond:GLY:108     -1
Name: 45, dtype: object

>  <halogenbond:GLY:108>  (46) 
halogenbond:GLY:108    NaN
halogenbond:GLY:108     -1
Name: 45, dtype: object

>  <hbond:ASP:109>  (46) 
hbond:ASP:109    0.0
hbond:ASP:109      0
Name: 45, dtype: object

>  <hydroph_interaction:ASP:109>  (46) 
hydroph_interaction:ASP:109    0.0
hydroph_interaction:ASP:109      0
Name: 45, dtype: object

>  <saltbridge:ASP:109>  (46) 
saltbridge:ASP:109    NaN
saltbridge:ASP:109     -1
Name: 45, dtype: object

>  <halogenbond:CYS:110>  (46) 
halogenbond:CYS:110    NaN
halogenbond:CYS:110     -1
Name: 45, dtype: object

>  <hbond:CYS:110>  (46) 
hbond:CYS:110    0.0
hbond:CYS:110      0
Name: 45, dtype: object

>  <hbond:GLY:111>  (46) 
hbond:GLY:111    NaN
hbond:GLY:111     -1
Name: 45, dtype: object

>  <hbond:GLY:112>  (46) 
hbond:GLY:112    NaN
hbond:GLY:112     -1
Name: 45, dtype: object

>  <hbond:ILE:113>  (46) 
hbond:ILE:113    NaN
hbond:ILE:113     -1
Name: 45, dtype: object

>  <hydroph_interaction:LEU:114>  (46) 
hydroph_interaction:LEU:114    NaN
hydroph_interaction:LEU:114     -1
Name: 45, dtype: object

>  <hbond:LEU:114>  (46) 
hbond:LEU:114    NaN
hbond:LEU:114     -1
Name: 45, dtype: object

>  <hydroph_interaction:ILE:123>  (46) 
hydroph_interaction:ILE:123    NaN
hydroph_interaction:ILE:123     -1
Name: 45, dtype: object

>  <hbond:ILE:123>  (46) 
hbond:ILE:123    NaN
hbond:ILE:123     -1
Name: 45, dtype: object

>  <hydroph_interaction:VAL:124>  (46) 
hydroph_interaction:VAL:124    1.0
hydroph_interaction:VAL:124      1
Name: 45, dtype: object

>  <hbond:VAL:124>  (46) 
hbond:VAL:124    NaN
hbond:VAL:124     -1
Name: 45, dtype: object

>  <halogenbond:VAL:124>  (46) 
halogenbond:VAL:124    NaN
halogenbond:VAL:124     -1
Name: 45, dtype: object

>  <hbond:SER:125>  (46) 
hbond:SER:125    0
hbond:SER:125    0
Name: 45, dtype: object

>  <halogenbond:SER:125>  (46) 
halogenbond:SER:125    0.0
halogenbond:SER:125      0
Name: 45, dtype: object

>  <hydroph_interaction:THR:126>  (46) 
hydroph_interaction:THR:126    0.0
hydroph_interaction:THR:126      0
Name: 45, dtype: object

>  <hbond:THR:126>  (46) 
hbond:THR:126    0.0
hbond:THR:126      0
Name: 45, dtype: object

>  <halogenbond:THR:126>  (46) 
halogenbond:THR:126    NaN
halogenbond:THR:126     -1
Name: 45, dtype: object

>  <hbond:GLY:127>  (46) 
hbond:GLY:127    0
hbond:GLY:127    0
Name: 45, dtype: object

>  <halogenbond:GLY:127>  (46) 
halogenbond:GLY:127    NaN
halogenbond:GLY:127     -1
Name: 45, dtype: object

>  <hydroph_interaction:GLY:127>  (46) 
hydroph_interaction:GLY:127    NaN
hydroph_interaction:GLY:127     -1
Name: 45, dtype: object

>  <hbond:GLY:128>  (46) 
hbond:GLY:128    NaN
hbond:GLY:128     -1
Name: 45, dtype: object

>  <halogenbond:GLY:128>  (46) 
halogenbond:GLY:128    NaN
halogenbond:GLY:128     -1
Name: 45, dtype: object

>  <hydroph_interaction:GLY:128>  (46) 
hydroph_interaction:GLY:128    NaN
hydroph_interaction:GLY:128     -1
Name: 45, dtype: object

>  <hbond:ASN:129>  (46) 
hbond:ASN:129    NaN
hbond:ASN:129     -1
Name: 45, dtype: object

>  <hydroph_interaction:ASN:129>  (46) 
hydroph_interaction:ASN:129    NaN
hydroph_interaction:ASN:129     -1
Name: 45, dtype: object

>  <halogenbond:ASN:129>  (46) 
halogenbond:ASN:129    NaN
halogenbond:ASN:129     -1
Name: 45, dtype: object

>  <hbond:GLY:130>  (46) 
hbond:GLY:130    NaN
hbond:GLY:130     -1
Name: 45, dtype: object

>  <hbond:LEU:131>  (46) 
hbond:LEU:131    NaN
hbond:LEU:131     -1
Name: 45, dtype: object

>  <hydroph_interaction:LEU:131>  (46) 
hydroph_interaction:LEU:131    NaN
hydroph_interaction:LEU:131     -1
Name: 45, dtype: object

>  <halogenbond:LEU:131>  (46) 
halogenbond:LEU:131    NaN
halogenbond:LEU:131     -1
Name: 45, dtype: object

>  <hydroph_interaction:VAL:132>  (46) 
hydroph_interaction:VAL:132    0.0
hydroph_interaction:VAL:132      0
Name: 45, dtype: object

>  <hbond:VAL:132>  (46) 
hbond:VAL:132    NaN
hbond:VAL:132     -1
Name: 45, dtype: object

>  <hbond:GLY:133>  (46) 
hbond:GLY:133    NaN
hbond:GLY:133     -1
Name: 45, dtype: object

>  <halogenbond:GLY:133>  (46) 
halogenbond:GLY:133    NaN
halogenbond:GLY:133     -1
Name: 45, dtype: object

>  <hydroph_interaction:PHE:134>  (46) 
hydroph_interaction:PHE:134    NaN
hydroph_interaction:PHE:134     -1
Name: 45, dtype: object

>  <hbond:PHE:134>  (46) 
hbond:PHE:134    NaN
hbond:PHE:134     -1
Name: 45, dtype: object

>  <pistack:PHE:134>  (46) 
pistack:PHE:134    NaN
pistack:PHE:134     -1
Name: 45, dtype: object

>  <pication:PHE:134>  (46) 
pication:PHE:134    NaN
pication:PHE:134     -1
Name: 45, dtype: object

>  <halogenbond:PHE:134>  (46) 
halogenbond:PHE:134    NaN
halogenbond:PHE:134     -1
Name: 45, dtype: object

>  <hydroph_interaction:ALA:135>  (46) 
hydroph_interaction:ALA:135    NaN
hydroph_interaction:ALA:135     -1
Name: 45, dtype: object

>  <hbond:ALA:135>  (46) 
hbond:ALA:135    NaN
hbond:ALA:135     -1
Name: 45, dtype: object

$$$$
Z1708143477
     RDKit          3D

 25 25  0  0  0  0  0  0  0  0999 V2000
   13.3080   15.9170   20.9900 C   0  0  0  0  0  0  0  0  0  0  0  0
   12.2450   15.4440   21.0020 C   0  0  0  0  0  0  0  0  0  0  0  0
   10.9290   14.8710   21.0170 C   0  0  0  0  0  0  0  0  0  0  0  0
   10.8040   14.0950   22.3090 C   0  0  0  0  0  0  0  0  0  0  0  0
    9.4170   13.8170   22.5350 N   0  0  0  0  0  0  0  0  0  0  0  0
    9.1100   12.6390   23.2140 C   0  0  0  0  0  0  0  0  0  0  0  0
    8.0930   12.5940   24.1850 C   0  0  0  0  0  0  0  0  0  0  0  0
    7.1170   14.1830   24.6000 Br  0  0  0  0  0  0  0  0  0  0  0  0
    7.7890   11.4000   24.8390 C   0  0  0  0  0  0  0  0  0  0  0  0
    6.7120   11.3000   25.8770 C   0  0  0  0  0  0  0  0  0  0  0  0
    8.5090   10.2580   24.5120 C   0  0  0  0  0  0  0  0  0  0  0  0
    9.5190   10.2790   23.5690 C   0  0  0  0  0  0  0  0  0  0  0  0
    9.8170   11.4640   22.9280 C   0  0  0  0  0  0  0  0  0  0  0  0
   14.2600   16.3570   20.9380 H   0  0  0  0  0  0  0  0  0  0  0  0
   10.1620   15.6500   20.9410 H   0  0  0  0  0  0  0  0  0  0  0  0
   10.8110   14.2030   20.1600 H   0  0  0  0  0  0  0  0  0  0  0  0
   11.2080   14.7130   23.1190 H   0  0  0  0  0  0  0  0  0  0  0  0
   11.3830   13.1630   22.2440 H   0  0  0  0  0  0  0  0  0  0  0  0
    8.8510   14.6370   22.8130 H   0  0  0  0  0  0  0  0  0  0  0  0
    5.8340   11.8800   25.5740 H   0  0  0  0  0  0  0  0  0  0  0  0
    6.4320   10.2560   26.0420 H   0  0  0  0  0  0  0  0  0  0  0  0
    7.0480   11.7050   26.8380 H   0  0  0  0  0  0  0  0  0  0  0  0
    8.2850    9.3280   24.9980 H   0  0  0  0  0  0  0  0  0  0  0  0
   10.0720    9.3720   23.3320 H   0  0  0  0  0  0  0  0  0  0  0  0
   10.6110   11.4510   22.1900 H   0  0  0  0  0  0  0  0  0  0  0  0
  1  2  3  0
  2  3  1  0
  3  4  1  0
  4  5  1  0
  5  6  1  0
  6  7  2  0
  7  8  1  0
  7  9  1  0
  9 10  1  0
  9 11  2  0
 11 12  1  0
 12 13  2  0
 13  6  1  0
  1 14  1  0
  3 15  1  0
  3 16  1  0
  4 17  1  0
  4 18  1  0
  5 19  1  0
 10 20  1  0
 10 21  1  0
 10 22  1  0
 11 23  1  0
 12 24  1  0
 13 25  1  0
A    1
 C1 
A    2
 C2 
A    3
 C3 
A    4
 C4 
A    5
 N1 
A    6
 C5 
A    7
 C6 
A    8
BR1 
A    9
 C7 
A   10
 C8 
A   11
 C9 
A   12
 C10
A   13
 C11
A   14
 H1 
A   15
 H2 
A   16
 H3 
A   17
 H4 
A   18
 H5 
A   19
 H6 
A   20
 H7 
A   21
 H8 
A   22
 H9 
A   23
 H10
A   24
 H11
A   25
 H12
M  END
>  <ref_pdb>  (47) 
x0310_0A

>  <ref_mols>  (47) 
x0554_0A,x0732_0A

>  <original SMILES>  (47) 
C#CCCNc1cccc(C)c1Br

>  <rationale>  (47) 
info halogenbond:G127+D39+A86+E85+Q95+E106+E88+T126+P107+H104+Y64+C65+S87+N129+F83+R93+L131+I82+G128+P91+N19+H21+V84+G133+Y90+Y89+H97+L81+F134+L98+R20+G103+S66+S67+S7+G108+R38+V124+M99+S36; hbond:S87+D39+G108+G103+G128+G130+L131+N129+N19+H104+R68+V124+R93+P91+F83+S67+S7+S66+G112+G133+V132+Y89+S77+A135+Y63+A92+A101+M99+F134+L100+I82+Y64+S36+L98+V84+L81+Y94+S80+R38+S37+V102+G8+I123+G111+I113+L114+C65+L22+S96; hydroph_interaction:Y90+Y89+H21+L22+E106+N129+N19+L40+I123+A135+Q95+I82+L100+L98+L131+F83+R93+V132+Y63+F134+H104+R20+A86+V74+P91+A101+F76+M99+L114+A92+Y94+R68+Y72+Y64+V18+V102+W28+G127+G128+L81; pication:H104+R93+Y63+F134+Y90+R68+F83+R20; pistack:H21+Y89+Y90+H104+F134+Y63+F83+Y94; saltbridge:D39+R93+H104+E106+D109+E85+E88+R68+R20; 

>  <intxn_cluster>  (47) 
-1

>  <intxn_cluster_rank>  (47) 
-1

>  <N_interactions>  (47) 
5

>  <∆∆G>  (47) 
-6.963761

>  <$/mg>  (47) 
0.0

>  <comRMSD>  (47) 
0.881966

>  <N_rotatable_bonds>  (47) 
4

>  <deep_P1_sidechain>  (47) 
nan

>  <farthest_distance_to_substrate>  (47) 
2.485025

>  <hbond:SER:7>  (47) 
hbond:SER:7    NaN
hbond:SER:7     -1
Name: 46, dtype: object

>  <halogenbond:SER:7>  (47) 
halogenbond:SER:7    NaN
halogenbond:SER:7     -1
Name: 46, dtype: object

>  <hbond:GLY:8>  (47) 
hbond:GLY:8    NaN
hbond:GLY:8     -1
Name: 46, dtype: object

>  <hydroph_interaction:VAL:18>  (47) 
hydroph_interaction:VAL:18    NaN
hydroph_interaction:VAL:18     -1
Name: 46, dtype: object

>  <hbond:ASN:19>  (47) 
hbond:ASN:19    NaN
hbond:ASN:19     -1
Name: 46, dtype: object

>  <hydroph_interaction:ASN:19>  (47) 
hydroph_interaction:ASN:19    NaN
hydroph_interaction:ASN:19     -1
Name: 46, dtype: object

>  <halogenbond:ASN:19>  (47) 
halogenbond:ASN:19    NaN
halogenbond:ASN:19     -1
Name: 46, dtype: object

>  <hbond:ARG:20>  (47) 
hbond:ARG:20    0.0
hbond:ARG:20      0
Name: 46, dtype: object

>  <hydroph_interaction:ARG:20>  (47) 
hydroph_interaction:ARG:20    NaN
hydroph_interaction:ARG:20     -1
Name: 46, dtype: object

>  <saltbridge:ARG:20>  (47) 
saltbridge:ARG:20    NaN
saltbridge:ARG:20     -1
Name: 46, dtype: object

>  <halogenbond:ARG:20>  (47) 
halogenbond:ARG:20    NaN
halogenbond:ARG:20     -1
Name: 46, dtype: object

>  <pication:ARG:20>  (47) 
pication:ARG:20    NaN
pication:ARG:20     -1
Name: 46, dtype: object

>  <hbond:HIS:21>  (47) 
hbond:HIS:21    0.0
hbond:HIS:21      0
Name: 46, dtype: object

>  <hydroph_interaction:HIS:21>  (47) 
hydroph_interaction:HIS:21    1.0
hydroph_interaction:HIS:21      1
Name: 46, dtype: object

>  <pistack:HIS:21>  (47) 
pistack:HIS:21    NaN
pistack:HIS:21     -1
Name: 46, dtype: object

>  <pication:HIS:21>  (47) 
pication:HIS:21    0.0
pication:HIS:21      0
Name: 46, dtype: object

>  <saltbridge:HIS:21>  (47) 
saltbridge:HIS:21    0.0
saltbridge:HIS:21      0
Name: 46, dtype: object

>  <halogenbond:HIS:21>  (47) 
halogenbond:HIS:21    NaN
halogenbond:HIS:21     -1
Name: 46, dtype: object

>  <hydroph_interaction:LEU:22>  (47) 
hydroph_interaction:LEU:22    NaN
hydroph_interaction:LEU:22     -1
Name: 46, dtype: object

>  <hbond:LEU:22>  (47) 
hbond:LEU:22    NaN
hbond:LEU:22     -1
Name: 46, dtype: object

>  <hydroph_interaction:TRP:28>  (47) 
hydroph_interaction:TRP:28    NaN
hydroph_interaction:TRP:28     -1
Name: 46, dtype: object

>  <hbond:SER:36>  (47) 
hbond:SER:36    NaN
hbond:SER:36     -1
Name: 46, dtype: object

>  <halogenbond:SER:36>  (47) 
halogenbond:SER:36    NaN
halogenbond:SER:36     -1
Name: 46, dtype: object

>  <hbond:SER:37>  (47) 
hbond:SER:37    NaN
hbond:SER:37     -1
Name: 46, dtype: object

>  <hbond:ARG:38>  (47) 
hbond:ARG:38    NaN
hbond:ARG:38     -1
Name: 46, dtype: object

>  <halogenbond:ARG:38>  (47) 
halogenbond:ARG:38    NaN
halogenbond:ARG:38     -1
Name: 46, dtype: object

>  <saltbridge:ASP:39>  (47) 
saltbridge:ASP:39    NaN
saltbridge:ASP:39     -1
Name: 46, dtype: object

>  <halogenbond:ASP:39>  (47) 
halogenbond:ASP:39    NaN
halogenbond:ASP:39     -1
Name: 46, dtype: object

>  <hbond:ASP:39>  (47) 
hbond:ASP:39    NaN
hbond:ASP:39     -1
Name: 46, dtype: object

>  <hydroph_interaction:ASP:39>  (47) 
hydroph_interaction:ASP:39    0.0
hydroph_interaction:ASP:39      0
Name: 46, dtype: object

>  <hydroph_interaction:LEU:40>  (47) 
hydroph_interaction:LEU:40    NaN
hydroph_interaction:LEU:40     -1
Name: 46, dtype: object

>  <hydroph_interaction:TYR:63>  (47) 
hydroph_interaction:TYR:63    NaN
hydroph_interaction:TYR:63     -1
Name: 46, dtype: object

>  <hbond:TYR:63>  (47) 
hbond:TYR:63    NaN
hbond:TYR:63     -1
Name: 46, dtype: object

>  <pistack:TYR:63>  (47) 
pistack:TYR:63    NaN
pistack:TYR:63     -1
Name: 46, dtype: object

>  <pication:TYR:63>  (47) 
pication:TYR:63    NaN
pication:TYR:63     -1
Name: 46, dtype: object

>  <halogenbond:TYR:64>  (47) 
halogenbond:TYR:64    NaN
halogenbond:TYR:64     -1
Name: 46, dtype: object

>  <hbond:TYR:64>  (47) 
hbond:TYR:64    NaN
hbond:TYR:64     -1
Name: 46, dtype: object

>  <hydroph_interaction:TYR:64>  (47) 
hydroph_interaction:TYR:64    NaN
hydroph_interaction:TYR:64     -1
Name: 46, dtype: object

>  <halogenbond:CYS:65>  (47) 
halogenbond:CYS:65    NaN
halogenbond:CYS:65     -1
Name: 46, dtype: object

>  <hbond:CYS:65>  (47) 
hbond:CYS:65    NaN
hbond:CYS:65     -1
Name: 46, dtype: object

>  <hbond:SER:66>  (47) 
hbond:SER:66    NaN
hbond:SER:66     -1
Name: 46, dtype: object

>  <halogenbond:SER:66>  (47) 
halogenbond:SER:66    NaN
halogenbond:SER:66     -1
Name: 46, dtype: object

>  <hbond:SER:67>  (47) 
hbond:SER:67    NaN
hbond:SER:67     -1
Name: 46, dtype: object

>  <halogenbond:SER:67>  (47) 
halogenbond:SER:67    NaN
halogenbond:SER:67     -1
Name: 46, dtype: object

>  <hbond:ARG:68>  (47) 
hbond:ARG:68    NaN
hbond:ARG:68     -1
Name: 46, dtype: object

>  <saltbridge:ARG:68>  (47) 
saltbridge:ARG:68    NaN
saltbridge:ARG:68     -1
Name: 46, dtype: object

>  <hydroph_interaction:ARG:68>  (47) 
hydroph_interaction:ARG:68    NaN
hydroph_interaction:ARG:68     -1
Name: 46, dtype: object

>  <pication:ARG:68>  (47) 
pication:ARG:68    NaN
pication:ARG:68     -1
Name: 46, dtype: object

>  <hydroph_interaction:TYR:72>  (47) 
hydroph_interaction:TYR:72    NaN
hydroph_interaction:TYR:72     -1
Name: 46, dtype: object

>  <hydroph_interaction:VAL:74>  (47) 
hydroph_interaction:VAL:74    NaN
hydroph_interaction:VAL:74     -1
Name: 46, dtype: object

>  <hydroph_interaction:PHE:76>  (47) 
hydroph_interaction:PHE:76    NaN
hydroph_interaction:PHE:76     -1
Name: 46, dtype: object

>  <hbond:SER:77>  (47) 
hbond:SER:77    NaN
hbond:SER:77     -1
Name: 46, dtype: object

>  <hbond:SER:80>  (47) 
hbond:SER:80    NaN
hbond:SER:80     -1
Name: 46, dtype: object

>  <hbond:LEU:81>  (47) 
hbond:LEU:81    NaN
hbond:LEU:81     -1
Name: 46, dtype: object

>  <halogenbond:LEU:81>  (47) 
halogenbond:LEU:81    NaN
halogenbond:LEU:81     -1
Name: 46, dtype: object

>  <hydroph_interaction:LEU:81>  (47) 
hydroph_interaction:LEU:81    NaN
hydroph_interaction:LEU:81     -1
Name: 46, dtype: object

>  <hydroph_interaction:ILE:82>  (47) 
hydroph_interaction:ILE:82    NaN
hydroph_interaction:ILE:82     -1
Name: 46, dtype: object

>  <halogenbond:ILE:82>  (47) 
halogenbond:ILE:82    NaN
halogenbond:ILE:82     -1
Name: 46, dtype: object

>  <hbond:ILE:82>  (47) 
hbond:ILE:82    NaN
hbond:ILE:82     -1
Name: 46, dtype: object

>  <hbond:PHE:83>  (47) 
hbond:PHE:83    NaN
hbond:PHE:83     -1
Name: 46, dtype: object

>  <hydroph_interaction:PHE:83>  (47) 
hydroph_interaction:PHE:83    NaN
hydroph_interaction:PHE:83     -1
Name: 46, dtype: object

>  <halogenbond:PHE:83>  (47) 
halogenbond:PHE:83    NaN
halogenbond:PHE:83     -1
Name: 46, dtype: object

>  <pistack:PHE:83>  (47) 
pistack:PHE:83    NaN
pistack:PHE:83     -1
Name: 46, dtype: object

>  <pication:PHE:83>  (47) 
pication:PHE:83    NaN
pication:PHE:83     -1
Name: 46, dtype: object

>  <hydroph_interaction:VAL:84>  (47) 
hydroph_interaction:VAL:84    0.0
hydroph_interaction:VAL:84      0
Name: 46, dtype: object

>  <halogenbond:VAL:84>  (47) 
halogenbond:VAL:84    NaN
halogenbond:VAL:84     -1
Name: 46, dtype: object

>  <hbond:VAL:84>  (47) 
hbond:VAL:84    NaN
hbond:VAL:84     -1
Name: 46, dtype: object

>  <hydroph_interaction:GLU:85>  (47) 
hydroph_interaction:GLU:85    0.0
hydroph_interaction:GLU:85      0
Name: 46, dtype: object

>  <hbond:GLU:85>  (47) 
hbond:GLU:85    0.0
hbond:GLU:85      0
Name: 46, dtype: object

>  <halogenbond:GLU:85>  (47) 
halogenbond:GLU:85    NaN
halogenbond:GLU:85     -1
Name: 46, dtype: object

>  <saltbridge:GLU:85>  (47) 
saltbridge:GLU:85    NaN
saltbridge:GLU:85     -1
Name: 46, dtype: object

>  <halogenbond:ALA:86>  (47) 
halogenbond:ALA:86    NaN
halogenbond:ALA:86     -1
Name: 46, dtype: object

>  <hbond:ALA:86>  (47) 
hbond:ALA:86    0.0
hbond:ALA:86      0
Name: 46, dtype: object

>  <hydroph_interaction:ALA:86>  (47) 
hydroph_interaction:ALA:86    NaN
hydroph_interaction:ALA:86     -1
Name: 46, dtype: object

>  <hbond:SER:87>  (47) 
hbond:SER:87    2
hbond:SER:87    2
Name: 46, dtype: object

>  <halogenbond:SER:87>  (47) 
halogenbond:SER:87    NaN
halogenbond:SER:87     -1
Name: 46, dtype: object

>  <hbond:GLU:88>  (47) 
hbond:GLU:88    0.0
hbond:GLU:88      0
Name: 46, dtype: object

>  <hydroph_interaction:GLU:88>  (47) 
hydroph_interaction:GLU:88    0.0
hydroph_interaction:GLU:88      0
Name: 46, dtype: object

>  <halogenbond:GLU:88>  (47) 
halogenbond:GLU:88    NaN
halogenbond:GLU:88     -1
Name: 46, dtype: object

>  <saltbridge:GLU:88>  (47) 
saltbridge:GLU:88    NaN
saltbridge:GLU:88     -1
Name: 46, dtype: object

>  <hydroph_interaction:TYR:89>  (47) 
hydroph_interaction:TYR:89    1.0
hydroph_interaction:TYR:89      1
Name: 46, dtype: object

>  <pistack:TYR:89>  (47) 
pistack:TYR:89    NaN
pistack:TYR:89     -1
Name: 46, dtype: object

>  <hbond:TYR:89>  (47) 
hbond:TYR:89    NaN
hbond:TYR:89     -1
Name: 46, dtype: object

>  <halogenbond:TYR:89>  (47) 
halogenbond:TYR:89    NaN
halogenbond:TYR:89     -1
Name: 46, dtype: object

>  <hydroph_interaction:TYR:90>  (47) 
hydroph_interaction:TYR:90    1.0
hydroph_interaction:TYR:90      1
Name: 46, dtype: object

>  <hbond:TYR:90>  (47) 
hbond:TYR:90    0.0
hbond:TYR:90      0
Name: 46, dtype: object

>  <pistack:TYR:90>  (47) 
pistack:TYR:90    NaN
pistack:TYR:90     -1
Name: 46, dtype: object

>  <halogenbond:TYR:90>  (47) 
halogenbond:TYR:90    NaN
halogenbond:TYR:90     -1
Name: 46, dtype: object

>  <pication:TYR:90>  (47) 
pication:TYR:90    NaN
pication:TYR:90     -1
Name: 46, dtype: object

>  <hbond:PRO:91>  (47) 
hbond:PRO:91    NaN
hbond:PRO:91     -1
Name: 46, dtype: object

>  <hydroph_interaction:PRO:91>  (47) 
hydroph_interaction:PRO:91    NaN
hydroph_interaction:PRO:91     -1
Name: 46, dtype: object

>  <halogenbond:PRO:91>  (47) 
halogenbond:PRO:91    NaN
halogenbond:PRO:91     -1
Name: 46, dtype: object

>  <hbond:ALA:92>  (47) 
hbond:ALA:92    NaN
hbond:ALA:92     -1
Name: 46, dtype: object

>  <hydroph_interaction:ALA:92>  (47) 
hydroph_interaction:ALA:92    NaN
hydroph_interaction:ALA:92     -1
Name: 46, dtype: object

>  <saltbridge:ARG:93>  (47) 
saltbridge:ARG:93    NaN
saltbridge:ARG:93     -1
Name: 46, dtype: object

>  <hbond:ARG:93>  (47) 
hbond:ARG:93    NaN
hbond:ARG:93     -1
Name: 46, dtype: object

>  <hydroph_interaction:ARG:93>  (47) 
hydroph_interaction:ARG:93    NaN
hydroph_interaction:ARG:93     -1
Name: 46, dtype: object

>  <halogenbond:ARG:93>  (47) 
halogenbond:ARG:93    NaN
halogenbond:ARG:93     -1
Name: 46, dtype: object

>  <pication:ARG:93>  (47) 
pication:ARG:93    NaN
pication:ARG:93     -1
Name: 46, dtype: object

>  <hydroph_interaction:TYR:94>  (47) 
hydroph_interaction:TYR:94    NaN
hydroph_interaction:TYR:94     -1
Name: 46, dtype: object

>  <pistack:TYR:94>  (47) 
pistack:TYR:94    NaN
pistack:TYR:94     -1
Name: 46, dtype: object

>  <hbond:TYR:94>  (47) 
hbond:TYR:94    NaN
hbond:TYR:94     -1
Name: 46, dtype: object

>  <hbond:GLN:95>  (47) 
hbond:GLN:95    0.0
hbond:GLN:95      0
Name: 46, dtype: object

>  <hydroph_interaction:GLN:95>  (47) 
hydroph_interaction:GLN:95    NaN
hydroph_interaction:GLN:95     -1
Name: 46, dtype: object

>  <halogenbond:GLN:95>  (47) 
halogenbond:GLN:95    NaN
halogenbond:GLN:95     -1
Name: 46, dtype: object

>  <hbond:SER:96>  (47) 
hbond:SER:96    NaN
hbond:SER:96     -1
Name: 46, dtype: object

>  <halogenbond:HIS:97>  (47) 
halogenbond:HIS:97    NaN
halogenbond:HIS:97     -1
Name: 46, dtype: object

>  <hydroph_interaction:LEU:98>  (47) 
hydroph_interaction:LEU:98    NaN
hydroph_interaction:LEU:98     -1
Name: 46, dtype: object

>  <hbond:LEU:98>  (47) 
hbond:LEU:98    NaN
hbond:LEU:98     -1
Name: 46, dtype: object

>  <halogenbond:LEU:98>  (47) 
halogenbond:LEU:98    NaN
halogenbond:LEU:98     -1
Name: 46, dtype: object

>  <hbond:MET:99>  (47) 
hbond:MET:99    NaN
hbond:MET:99     -1
Name: 46, dtype: object

>  <hydroph_interaction:MET:99>  (47) 
hydroph_interaction:MET:99    NaN
hydroph_interaction:MET:99     -1
Name: 46, dtype: object

>  <halogenbond:MET:99>  (47) 
halogenbond:MET:99    NaN
halogenbond:MET:99     -1
Name: 46, dtype: object

>  <hydroph_interaction:LEU:100>  (47) 
hydroph_interaction:LEU:100    NaN
hydroph_interaction:LEU:100     -1
Name: 46, dtype: object

>  <hbond:LEU:100>  (47) 
hbond:LEU:100    NaN
hbond:LEU:100     -1
Name: 46, dtype: object

>  <hbond:ALA:101>  (47) 
hbond:ALA:101    NaN
hbond:ALA:101     -1
Name: 46, dtype: object

>  <hydroph_interaction:ALA:101>  (47) 
hydroph_interaction:ALA:101    NaN
hydroph_interaction:ALA:101     -1
Name: 46, dtype: object

>  <hydroph_interaction:VAL:102>  (47) 
hydroph_interaction:VAL:102    NaN
hydroph_interaction:VAL:102     -1
Name: 46, dtype: object

>  <hbond:VAL:102>  (47) 
hbond:VAL:102    NaN
hbond:VAL:102     -1
Name: 46, dtype: object

>  <hbond:GLY:103>  (47) 
hbond:GLY:103    NaN
hbond:GLY:103     -1
Name: 46, dtype: object

>  <halogenbond:GLY:103>  (47) 
halogenbond:GLY:103    NaN
halogenbond:GLY:103     -1
Name: 46, dtype: object

>  <hbond:HIS:104>  (47) 
hbond:HIS:104    NaN
hbond:HIS:104     -1
Name: 46, dtype: object

>  <saltbridge:HIS:104>  (47) 
saltbridge:HIS:104    NaN
saltbridge:HIS:104     -1
Name: 46, dtype: object

>  <pication:HIS:104>  (47) 
pication:HIS:104    NaN
pication:HIS:104     -1
Name: 46, dtype: object

>  <halogenbond:HIS:104>  (47) 
halogenbond:HIS:104    NaN
halogenbond:HIS:104     -1
Name: 46, dtype: object

>  <hydroph_interaction:HIS:104>  (47) 
hydroph_interaction:HIS:104    NaN
hydroph_interaction:HIS:104     -1
Name: 46, dtype: object

>  <pistack:HIS:104>  (47) 
pistack:HIS:104    NaN
pistack:HIS:104     -1
Name: 46, dtype: object

>  <halogenbond:SER:105>  (47) 
halogenbond:SER:105    0.0
halogenbond:SER:105      0
Name: 46, dtype: object

>  <hbond:SER:105>  (47) 
hbond:SER:105    0.0
hbond:SER:105      0
Name: 46, dtype: object

>  <hbond:GLU:106>  (47) 
hbond:GLU:106    0.0
hbond:GLU:106      0
Name: 46, dtype: object

>  <hydroph_interaction:GLU:106>  (47) 
hydroph_interaction:GLU:106    NaN
hydroph_interaction:GLU:106     -1
Name: 46, dtype: object

>  <saltbridge:GLU:106>  (47) 
saltbridge:GLU:106    NaN
saltbridge:GLU:106     -1
Name: 46, dtype: object

>  <halogenbond:GLU:106>  (47) 
halogenbond:GLU:106    NaN
halogenbond:GLU:106     -1
Name: 46, dtype: object

>  <hydroph_interaction:PRO:107>  (47) 
hydroph_interaction:PRO:107    0
hydroph_interaction:PRO:107    0
Name: 46, dtype: object

>  <hbond:PRO:107>  (47) 
hbond:PRO:107    0.0
hbond:PRO:107      0
Name: 46, dtype: object

>  <halogenbond:PRO:107>  (47) 
halogenbond:PRO:107    NaN
halogenbond:PRO:107     -1
Name: 46, dtype: object

>  <hbond:GLY:108>  (47) 
hbond:GLY:108    NaN
hbond:GLY:108     -1
Name: 46, dtype: object

>  <halogenbond:GLY:108>  (47) 
halogenbond:GLY:108    NaN
halogenbond:GLY:108     -1
Name: 46, dtype: object

>  <hbond:ASP:109>  (47) 
hbond:ASP:109    0.0
hbond:ASP:109      0
Name: 46, dtype: object

>  <hydroph_interaction:ASP:109>  (47) 
hydroph_interaction:ASP:109    0.0
hydroph_interaction:ASP:109      0
Name: 46, dtype: object

>  <saltbridge:ASP:109>  (47) 
saltbridge:ASP:109    NaN
saltbridge:ASP:109     -1
Name: 46, dtype: object

>  <halogenbond:CYS:110>  (47) 
halogenbond:CYS:110    0.0
halogenbond:CYS:110      0
Name: 46, dtype: object

>  <hbond:CYS:110>  (47) 
hbond:CYS:110    0.0
hbond:CYS:110      0
Name: 46, dtype: object

>  <hbond:GLY:111>  (47) 
hbond:GLY:111    NaN
hbond:GLY:111     -1
Name: 46, dtype: object

>  <hbond:GLY:112>  (47) 
hbond:GLY:112    NaN
hbond:GLY:112     -1
Name: 46, dtype: object

>  <hbond:ILE:113>  (47) 
hbond:ILE:113    NaN
hbond:ILE:113     -1
Name: 46, dtype: object

>  <hydroph_interaction:LEU:114>  (47) 
hydroph_interaction:LEU:114    NaN
hydroph_interaction:LEU:114     -1
Name: 46, dtype: object

>  <hbond:LEU:114>  (47) 
hbond:LEU:114    NaN
hbond:LEU:114     -1
Name: 46, dtype: object

>  <hydroph_interaction:ILE:123>  (47) 
hydroph_interaction:ILE:123    NaN
hydroph_interaction:ILE:123     -1
Name: 46, dtype: object

>  <hbond:ILE:123>  (47) 
hbond:ILE:123    NaN
hbond:ILE:123     -1
Name: 46, dtype: object

>  <hydroph_interaction:VAL:124>  (47) 
hydroph_interaction:VAL:124    0.0
hydroph_interaction:VAL:124      0
Name: 46, dtype: object

>  <hbond:VAL:124>  (47) 
hbond:VAL:124    NaN
hbond:VAL:124     -1
Name: 46, dtype: object

>  <halogenbond:VAL:124>  (47) 
halogenbond:VAL:124    NaN
halogenbond:VAL:124     -1
Name: 46, dtype: object

>  <hbond:SER:125>  (47) 
hbond:SER:125    0
hbond:SER:125    0
Name: 46, dtype: object

>  <halogenbond:SER:125>  (47) 
halogenbond:SER:125    0.0
halogenbond:SER:125      0
Name: 46, dtype: object

>  <hydroph_interaction:THR:126>  (47) 
hydroph_interaction:THR:126    0.0
hydroph_interaction:THR:126      0
Name: 46, dtype: object

>  <hbond:THR:126>  (47) 
hbond:THR:126    0.0
hbond:THR:126      0
Name: 46, dtype: object

>  <halogenbond:THR:126>  (47) 
halogenbond:THR:126    NaN
halogenbond:THR:126     -1
Name: 46, dtype: object

>  <hbond:GLY:127>  (47) 
hbond:GLY:127    0
hbond:GLY:127    0
Name: 46, dtype: object

>  <halogenbond:GLY:127>  (47) 
halogenbond:GLY:127    NaN
halogenbond:GLY:127     -1
Name: 46, dtype: object

>  <hydroph_interaction:GLY:127>  (47) 
hydroph_interaction:GLY:127    NaN
hydroph_interaction:GLY:127     -1
Name: 46, dtype: object

>  <hbond:GLY:128>  (47) 
hbond:GLY:128    NaN
hbond:GLY:128     -1
Name: 46, dtype: object

>  <halogenbond:GLY:128>  (47) 
halogenbond:GLY:128    NaN
halogenbond:GLY:128     -1
Name: 46, dtype: object

>  <hydroph_interaction:GLY:128>  (47) 
hydroph_interaction:GLY:128    NaN
hydroph_interaction:GLY:128     -1
Name: 46, dtype: object

>  <hbond:ASN:129>  (47) 
hbond:ASN:129    NaN
hbond:ASN:129     -1
Name: 46, dtype: object

>  <hydroph_interaction:ASN:129>  (47) 
hydroph_interaction:ASN:129    NaN
hydroph_interaction:ASN:129     -1
Name: 46, dtype: object

>  <halogenbond:ASN:129>  (47) 
halogenbond:ASN:129    NaN
halogenbond:ASN:129     -1
Name: 46, dtype: object

>  <hbond:GLY:130>  (47) 
hbond:GLY:130    NaN
hbond:GLY:130     -1
Name: 46, dtype: object

>  <hbond:LEU:131>  (47) 
hbond:LEU:131    NaN
hbond:LEU:131     -1
Name: 46, dtype: object

>  <hydroph_interaction:LEU:131>  (47) 
hydroph_interaction:LEU:131    NaN
hydroph_interaction:LEU:131     -1
Name: 46, dtype: object

>  <halogenbond:LEU:131>  (47) 
halogenbond:LEU:131    NaN
halogenbond:LEU:131     -1
Name: 46, dtype: object

>  <hydroph_interaction:VAL:132>  (47) 
hydroph_interaction:VAL:132    NaN
hydroph_interaction:VAL:132     -1
Name: 46, dtype: object

>  <hbond:VAL:132>  (47) 
hbond:VAL:132    NaN
hbond:VAL:132     -1
Name: 46, dtype: object

>  <hbond:GLY:133>  (47) 
hbond:GLY:133    NaN
hbond:GLY:133     -1
Name: 46, dtype: object

>  <halogenbond:GLY:133>  (47) 
halogenbond:GLY:133    NaN
halogenbond:GLY:133     -1
Name: 46, dtype: object

>  <hydroph_interaction:PHE:134>  (47) 
hydroph_interaction:PHE:134    NaN
hydroph_interaction:PHE:134     -1
Name: 46, dtype: object

>  <hbond:PHE:134>  (47) 
hbond:PHE:134    NaN
hbond:PHE:134     -1
Name: 46, dtype: object

>  <pistack:PHE:134>  (47) 
pistack:PHE:134    NaN
pistack:PHE:134     -1
Name: 46, dtype: object

>  <pication:PHE:134>  (47) 
pication:PHE:134    NaN
pication:PHE:134     -1
Name: 46, dtype: object

>  <halogenbond:PHE:134>  (47) 
halogenbond:PHE:134    NaN
halogenbond:PHE:134     -1
Name: 46, dtype: object

>  <hydroph_interaction:ALA:135>  (47) 
hydroph_interaction:ALA:135    NaN
hydroph_interaction:ALA:135     -1
Name: 46, dtype: object

>  <hbond:ALA:135>  (47) 
hbond:ALA:135    NaN
hbond:ALA:135     -1
Name: 46, dtype: object

$$$$
Z52680052
     RDKit          3D

 28 29  0  0  0  0  0  0  0  0999 V2000
   12.6260   15.3620   21.8520 C   0  0  0  0  0  0  0  0  0  0  0  0
   11.5600   14.4170   21.9760 O   0  0  0  0  0  0  0  0  0  0  0  0
   11.1350   14.2330   23.2520 C   0  0  0  0  0  0  0  0  0  0  0  0
   11.4990   14.9490   24.1700 O   0  0  0  0  0  0  0  0  0  0  0  0
   10.1920   13.1380   23.5240 C   0  0  0  0  0  0  0  0  0  0  0  0
   10.3600   11.9050   22.9180 C   0  0  0  0  0  0  0  0  0  0  0  0
    9.5170   10.8570   23.4840 N   0  0  0  0  0  0  0  0  0  0  0  0
    9.6600    9.5050   22.9740 C   0  0  0  0  0  0  0  0  0  0  0  0
    8.4740   11.3080   24.2900 C   0  0  0  0  0  0  0  0  0  0  0  0
    7.7050   10.4930   25.1180 C   0  0  0  0  0  0  0  0  0  0  0  0
    6.6820   11.0090   25.9120 C   0  0  0  0  0  0  0  0  0  0  0  0
    6.4090   12.3700   25.8860 C   0  0  0  0  0  0  0  0  0  0  0  0
    7.1550   13.2000   25.0660 C   0  0  0  0  0  0  0  0  0  0  0  0
    8.1670   12.6670   24.2810 C   0  0  0  0  0  0  0  0  0  0  0  0
    8.8440   13.5390   23.5100 O   0  0  0  0  0  0  0  0  0  0  0  0
   12.2680   16.3700   22.0750 H   0  0  0  0  0  0  0  0  0  0  0  0
   13.0490   15.3370   20.8450 H   0  0  0  0  0  0  0  0  0  0  0  0
   13.4000   15.0840   22.5700 H   0  0  0  0  0  0  0  0  0  0  0  0
   10.3710   12.9600   24.5850 H   0  0  0  0  0  0  0  0  0  0  0  0
   10.2620   11.8430   21.8750 H   0  0  0  0  0  0  0  0  0  0  0  0
   11.3770   11.6200   23.1200 H   0  0  0  0  0  0  0  0  0  0  0  0
   10.0140    9.5040   21.9370 H   0  0  0  0  0  0  0  0  0  0  0  0
    8.7130    8.9750   23.0400 H   0  0  0  0  0  0  0  0  0  0  0  0
   10.4070    8.9510   23.5400 H   0  0  0  0  0  0  0  0  0  0  0  0
    7.8950    9.4390   25.1590 H   0  0  0  0  0  0  0  0  0  0  0  0
    6.1010   10.3430   26.5480 H   0  0  0  0  0  0  0  0  0  0  0  0
    5.6160   12.7810   26.5030 H   0  0  0  0  0  0  0  0  0  0  0  0
    6.9460   14.2650   25.0350 H   0  0  0  0  0  0  0  0  0  0  0  0
  1  2  1  0
  2  3  1  0
  3  4  2  0
  3  5  1  0
  5  6  1  0
  6  7  1  0
  7  8  1  0
  7  9  1  0
  9 10  2  0
 10 11  1  0
 11 12  2  0
 12 13  1  0
 13 14  2  0
 14 15  1  0
 15  5  1  0
 14  9  1  0
  1 16  1  0
  1 17  1  0
  1 18  1  0
  5 19  1  0
  6 20  1  0
  6 21  1  0
  8 22  1  0
  8 23  1  0
  8 24  1  0
 10 25  1  0
 11 26  1  0
 12 27  1  0
 13 28  1  0
A    1
 C1 
A    2
 O1 
A    3
 C2 
A    4
 O2 
A    5
 C3 
A    6
 C4 
A    7
 N1 
A    8
 C5 
A    9
 C6 
A   10
 C7 
A   11
 C8 
A   12
 C9 
A   13
 C10
A   14
 C11
A   15
 O3 
A   16
 H1 
A   17
 H2 
A   18
 H3 
A   19
 H4 
A   20
 H5 
A   21
 H6 
A   22
 H7 
A   23
 H8 
A   24
 H9 
A   25
 H10
A   26
 H11
A   27
 H12
A   28
 H13
M  END
>  <ref_pdb>  (48) 
x0310_0A

>  <ref_mols>  (48) 
x0451_0A,x0528_0A

>  <original SMILES>  (48) 
COC(=O)C1CN(C)c2ccccc2O1

>  <rationale>  (48) 
info halogenbond:C110+G127+D39+A86+S125+E85+Q95+E106+E88+T126+P107+H104+Y64+C65+S87+N129+F83+R93+L131+I82+G128+P91+N19+H21+V84+G133+Y90+Y89+H97+L81+F134+L98+R20+G103+S66+S67+S7+G108+R38+V124+M99+S36; hbond:G127+E88+Q95+A86+E85+G108+G103+G128+G130+L131+N129+N19+H104+R68+V124+R93+P91+F83+S67+S7+S66+G112+G133+V132+R20+Y89+S77+A135+Y63+A92+A101+M99+F134+L100+I82+Y64+S36+L98+V84+L81+Y94+S80+R38+S37+V102+G8+I123+G111+I113+L114+C65+L22+S96; hydroph_interaction:T126+E85+E88+D109+N129+D39+L40+I123+A135+Q95+I82+L100+L98+L131+F83+R93+Y63+F134+H104+R20+A86+V74+P91+A101+F76+M99+L114+A92+Y94+R68+Y72+Y64+V18+V102+W28+G127+G128+L81; pication:H104+R93+Y63+F134+Y90+R68+F83+R20; pistack:H21+Y90+H104+F134+Y63+F83+Y94; saltbridge:D39+H21+R93+H104+E106+D109+E85+E88+R68+R20; 

>  <intxn_cluster>  (48) 
-1

>  <intxn_cluster_rank>  (48) 
-1

>  <N_interactions>  (48) 
3

>  <∆∆G>  (48) 
-7.406516

>  <$/mg>  (48) 
163.0

>  <comRMSD>  (48) 
0.918567

>  <N_rotatable_bonds>  (48) 
3

>  <deep_P1_sidechain>  (48) 
nan

>  <farthest_distance_to_substrate>  (48) 
2.727704

>  <hbond:SER:7>  (48) 
hbond:SER:7    NaN
hbond:SER:7     -1
Name: 47, dtype: object

>  <halogenbond:SER:7>  (48) 
halogenbond:SER:7    NaN
halogenbond:SER:7     -1
Name: 47, dtype: object

>  <hbond:GLY:8>  (48) 
hbond:GLY:8    NaN
hbond:GLY:8     -1
Name: 47, dtype: object

>  <hydroph_interaction:VAL:18>  (48) 
hydroph_interaction:VAL:18    NaN
hydroph_interaction:VAL:18     -1
Name: 47, dtype: object

>  <hbond:ASN:19>  (48) 
hbond:ASN:19    NaN
hbond:ASN:19     -1
Name: 47, dtype: object

>  <hydroph_interaction:ASN:19>  (48) 
hydroph_interaction:ASN:19    0.0
hydroph_interaction:ASN:19      0
Name: 47, dtype: object

>  <halogenbond:ASN:19>  (48) 
halogenbond:ASN:19    NaN
halogenbond:ASN:19     -1
Name: 47, dtype: object

>  <hbond:ARG:20>  (48) 
hbond:ARG:20    NaN
hbond:ARG:20     -1
Name: 47, dtype: object

>  <hydroph_interaction:ARG:20>  (48) 
hydroph_interaction:ARG:20    NaN
hydroph_interaction:ARG:20     -1
Name: 47, dtype: object

>  <saltbridge:ARG:20>  (48) 
saltbridge:ARG:20    NaN
saltbridge:ARG:20     -1
Name: 47, dtype: object

>  <halogenbond:ARG:20>  (48) 
halogenbond:ARG:20    NaN
halogenbond:ARG:20     -1
Name: 47, dtype: object

>  <pication:ARG:20>  (48) 
pication:ARG:20    NaN
pication:ARG:20     -1
Name: 47, dtype: object

>  <hbond:HIS:21>  (48) 
hbond:HIS:21    0.0
hbond:HIS:21      0
Name: 47, dtype: object

>  <hydroph_interaction:HIS:21>  (48) 
hydroph_interaction:HIS:21    0.0
hydroph_interaction:HIS:21      0
Name: 47, dtype: object

>  <pistack:HIS:21>  (48) 
pistack:HIS:21    NaN
pistack:HIS:21     -1
Name: 47, dtype: object

>  <pication:HIS:21>  (48) 
pication:HIS:21    0.0
pication:HIS:21      0
Name: 47, dtype: object

>  <saltbridge:HIS:21>  (48) 
saltbridge:HIS:21    1.0
saltbridge:HIS:21      1
Name: 47, dtype: object

>  <halogenbond:HIS:21>  (48) 
halogenbond:HIS:21    NaN
halogenbond:HIS:21     -1
Name: 47, dtype: object

>  <hydroph_interaction:LEU:22>  (48) 
hydroph_interaction:LEU:22    0.0
hydroph_interaction:LEU:22      0
Name: 47, dtype: object

>  <hbond:LEU:22>  (48) 
hbond:LEU:22    NaN
hbond:LEU:22     -1
Name: 47, dtype: object

>  <hydroph_interaction:TRP:28>  (48) 
hydroph_interaction:TRP:28    NaN
hydroph_interaction:TRP:28     -1
Name: 47, dtype: object

>  <hbond:SER:36>  (48) 
hbond:SER:36    NaN
hbond:SER:36     -1
Name: 47, dtype: object

>  <halogenbond:SER:36>  (48) 
halogenbond:SER:36    NaN
halogenbond:SER:36     -1
Name: 47, dtype: object

>  <hbond:SER:37>  (48) 
hbond:SER:37    NaN
hbond:SER:37     -1
Name: 47, dtype: object

>  <hbond:ARG:38>  (48) 
hbond:ARG:38    NaN
hbond:ARG:38     -1
Name: 47, dtype: object

>  <halogenbond:ARG:38>  (48) 
halogenbond:ARG:38    NaN
halogenbond:ARG:38     -1
Name: 47, dtype: object

>  <saltbridge:ASP:39>  (48) 
saltbridge:ASP:39    NaN
saltbridge:ASP:39     -1
Name: 47, dtype: object

>  <halogenbond:ASP:39>  (48) 
halogenbond:ASP:39    NaN
halogenbond:ASP:39     -1
Name: 47, dtype: object

>  <hbond:ASP:39>  (48) 
hbond:ASP:39    0.0
hbond:ASP:39      0
Name: 47, dtype: object

>  <hydroph_interaction:ASP:39>  (48) 
hydroph_interaction:ASP:39    NaN
hydroph_interaction:ASP:39     -1
Name: 47, dtype: object

>  <hydroph_interaction:LEU:40>  (48) 
hydroph_interaction:LEU:40    NaN
hydroph_interaction:LEU:40     -1
Name: 47, dtype: object

>  <hydroph_interaction:TYR:63>  (48) 
hydroph_interaction:TYR:63    NaN
hydroph_interaction:TYR:63     -1
Name: 47, dtype: object

>  <hbond:TYR:63>  (48) 
hbond:TYR:63    NaN
hbond:TYR:63     -1
Name: 47, dtype: object

>  <pistack:TYR:63>  (48) 
pistack:TYR:63    NaN
pistack:TYR:63     -1
Name: 47, dtype: object

>  <pication:TYR:63>  (48) 
pication:TYR:63    NaN
pication:TYR:63     -1
Name: 47, dtype: object

>  <halogenbond:TYR:64>  (48) 
halogenbond:TYR:64    NaN
halogenbond:TYR:64     -1
Name: 47, dtype: object

>  <hbond:TYR:64>  (48) 
hbond:TYR:64    NaN
hbond:TYR:64     -1
Name: 47, dtype: object

>  <hydroph_interaction:TYR:64>  (48) 
hydroph_interaction:TYR:64    NaN
hydroph_interaction:TYR:64     -1
Name: 47, dtype: object

>  <halogenbond:CYS:65>  (48) 
halogenbond:CYS:65    NaN
halogenbond:CYS:65     -1
Name: 47, dtype: object

>  <hbond:CYS:65>  (48) 
hbond:CYS:65    NaN
hbond:CYS:65     -1
Name: 47, dtype: object

>  <hbond:SER:66>  (48) 
hbond:SER:66    NaN
hbond:SER:66     -1
Name: 47, dtype: object

>  <halogenbond:SER:66>  (48) 
halogenbond:SER:66    NaN
halogenbond:SER:66     -1
Name: 47, dtype: object

>  <hbond:SER:67>  (48) 
hbond:SER:67    NaN
hbond:SER:67     -1
Name: 47, dtype: object

>  <halogenbond:SER:67>  (48) 
halogenbond:SER:67    NaN
halogenbond:SER:67     -1
Name: 47, dtype: object

>  <hbond:ARG:68>  (48) 
hbond:ARG:68    NaN
hbond:ARG:68     -1
Name: 47, dtype: object

>  <saltbridge:ARG:68>  (48) 
saltbridge:ARG:68    NaN
saltbridge:ARG:68     -1
Name: 47, dtype: object

>  <hydroph_interaction:ARG:68>  (48) 
hydroph_interaction:ARG:68    NaN
hydroph_interaction:ARG:68     -1
Name: 47, dtype: object

>  <pication:ARG:68>  (48) 
pication:ARG:68    NaN
pication:ARG:68     -1
Name: 47, dtype: object

>  <hydroph_interaction:TYR:72>  (48) 
hydroph_interaction:TYR:72    NaN
hydroph_interaction:TYR:72     -1
Name: 47, dtype: object

>  <hydroph_interaction:VAL:74>  (48) 
hydroph_interaction:VAL:74    NaN
hydroph_interaction:VAL:74     -1
Name: 47, dtype: object

>  <hydroph_interaction:PHE:76>  (48) 
hydroph_interaction:PHE:76    NaN
hydroph_interaction:PHE:76     -1
Name: 47, dtype: object

>  <hbond:SER:77>  (48) 
hbond:SER:77    NaN
hbond:SER:77     -1
Name: 47, dtype: object

>  <hbond:SER:80>  (48) 
hbond:SER:80    NaN
hbond:SER:80     -1
Name: 47, dtype: object

>  <hbond:LEU:81>  (48) 
hbond:LEU:81    NaN
hbond:LEU:81     -1
Name: 47, dtype: object

>  <halogenbond:LEU:81>  (48) 
halogenbond:LEU:81    NaN
halogenbond:LEU:81     -1
Name: 47, dtype: object

>  <hydroph_interaction:LEU:81>  (48) 
hydroph_interaction:LEU:81    NaN
hydroph_interaction:LEU:81     -1
Name: 47, dtype: object

>  <hydroph_interaction:ILE:82>  (48) 
hydroph_interaction:ILE:82    NaN
hydroph_interaction:ILE:82     -1
Name: 47, dtype: object

>  <halogenbond:ILE:82>  (48) 
halogenbond:ILE:82    NaN
halogenbond:ILE:82     -1
Name: 47, dtype: object

>  <hbond:ILE:82>  (48) 
hbond:ILE:82    NaN
hbond:ILE:82     -1
Name: 47, dtype: object

>  <hbond:PHE:83>  (48) 
hbond:PHE:83    NaN
hbond:PHE:83     -1
Name: 47, dtype: object

>  <hydroph_interaction:PHE:83>  (48) 
hydroph_interaction:PHE:83    NaN
hydroph_interaction:PHE:83     -1
Name: 47, dtype: object

>  <halogenbond:PHE:83>  (48) 
halogenbond:PHE:83    NaN
halogenbond:PHE:83     -1
Name: 47, dtype: object

>  <pistack:PHE:83>  (48) 
pistack:PHE:83    NaN
pistack:PHE:83     -1
Name: 47, dtype: object

>  <pication:PHE:83>  (48) 
pication:PHE:83    NaN
pication:PHE:83     -1
Name: 47, dtype: object

>  <hydroph_interaction:VAL:84>  (48) 
hydroph_interaction:VAL:84    0.0
hydroph_interaction:VAL:84      0
Name: 47, dtype: object

>  <halogenbond:VAL:84>  (48) 
halogenbond:VAL:84    NaN
halogenbond:VAL:84     -1
Name: 47, dtype: object

>  <hbond:VAL:84>  (48) 
hbond:VAL:84    NaN
hbond:VAL:84     -1
Name: 47, dtype: object

>  <hydroph_interaction:GLU:85>  (48) 
hydroph_interaction:GLU:85    NaN
hydroph_interaction:GLU:85     -1
Name: 47, dtype: object

>  <hbond:GLU:85>  (48) 
hbond:GLU:85    NaN
hbond:GLU:85     -1
Name: 47, dtype: object

>  <halogenbond:GLU:85>  (48) 
halogenbond:GLU:85    NaN
halogenbond:GLU:85     -1
Name: 47, dtype: object

>  <saltbridge:GLU:85>  (48) 
saltbridge:GLU:85    NaN
saltbridge:GLU:85     -1
Name: 47, dtype: object

>  <halogenbond:ALA:86>  (48) 
halogenbond:ALA:86    NaN
halogenbond:ALA:86     -1
Name: 47, dtype: object

>  <hbond:ALA:86>  (48) 
hbond:ALA:86    NaN
hbond:ALA:86     -1
Name: 47, dtype: object

>  <hydroph_interaction:ALA:86>  (48) 
hydroph_interaction:ALA:86    NaN
hydroph_interaction:ALA:86     -1
Name: 47, dtype: object

>  <hbond:SER:87>  (48) 
hbond:SER:87    0
hbond:SER:87    0
Name: 47, dtype: object

>  <halogenbond:SER:87>  (48) 
halogenbond:SER:87    NaN
halogenbond:SER:87     -1
Name: 47, dtype: object

>  <hbond:GLU:88>  (48) 
hbond:GLU:88    1.0
hbond:GLU:88      1
Name: 47, dtype: object

>  <hydroph_interaction:GLU:88>  (48) 
hydroph_interaction:GLU:88    NaN
hydroph_interaction:GLU:88     -1
Name: 47, dtype: object

>  <halogenbond:GLU:88>  (48) 
halogenbond:GLU:88    NaN
halogenbond:GLU:88     -1
Name: 47, dtype: object

>  <saltbridge:GLU:88>  (48) 
saltbridge:GLU:88    NaN
saltbridge:GLU:88     -1
Name: 47, dtype: object

>  <hydroph_interaction:TYR:89>  (48) 
hydroph_interaction:TYR:89    0.0
hydroph_interaction:TYR:89      0
Name: 47, dtype: object

>  <pistack:TYR:89>  (48) 
pistack:TYR:89    0.0
pistack:TYR:89      0
Name: 47, dtype: object

>  <hbond:TYR:89>  (48) 
hbond:TYR:89    NaN
hbond:TYR:89     -1
Name: 47, dtype: object

>  <halogenbond:TYR:89>  (48) 
halogenbond:TYR:89    NaN
halogenbond:TYR:89     -1
Name: 47, dtype: object

>  <hydroph_interaction:TYR:90>  (48) 
hydroph_interaction:TYR:90    0.0
hydroph_interaction:TYR:90      0
Name: 47, dtype: object

>  <hbond:TYR:90>  (48) 
hbond:TYR:90    0.0
hbond:TYR:90      0
Name: 47, dtype: object

>  <pistack:TYR:90>  (48) 
pistack:TYR:90    NaN
pistack:TYR:90     -1
Name: 47, dtype: object

>  <halogenbond:TYR:90>  (48) 
halogenbond:TYR:90    NaN
halogenbond:TYR:90     -1
Name: 47, dtype: object

>  <pication:TYR:90>  (48) 
pication:TYR:90    NaN
pication:TYR:90     -1
Name: 47, dtype: object

>  <hbond:PRO:91>  (48) 
hbond:PRO:91    NaN
hbond:PRO:91     -1
Name: 47, dtype: object

>  <hydroph_interaction:PRO:91>  (48) 
hydroph_interaction:PRO:91    NaN
hydroph_interaction:PRO:91     -1
Name: 47, dtype: object

>  <halogenbond:PRO:91>  (48) 
halogenbond:PRO:91    NaN
halogenbond:PRO:91     -1
Name: 47, dtype: object

>  <hbond:ALA:92>  (48) 
hbond:ALA:92    NaN
hbond:ALA:92     -1
Name: 47, dtype: object

>  <hydroph_interaction:ALA:92>  (48) 
hydroph_interaction:ALA:92    NaN
hydroph_interaction:ALA:92     -1
Name: 47, dtype: object

>  <saltbridge:ARG:93>  (48) 
saltbridge:ARG:93    NaN
saltbridge:ARG:93     -1
Name: 47, dtype: object

>  <hbond:ARG:93>  (48) 
hbond:ARG:93    NaN
hbond:ARG:93     -1
Name: 47, dtype: object

>  <hydroph_interaction:ARG:93>  (48) 
hydroph_interaction:ARG:93    NaN
hydroph_interaction:ARG:93     -1
Name: 47, dtype: object

>  <halogenbond:ARG:93>  (48) 
halogenbond:ARG:93    NaN
halogenbond:ARG:93     -1
Name: 47, dtype: object

>  <pication:ARG:93>  (48) 
pication:ARG:93    NaN
pication:ARG:93     -1
Name: 47, dtype: object

>  <hydroph_interaction:TYR:94>  (48) 
hydroph_interaction:TYR:94    NaN
hydroph_interaction:TYR:94     -1
Name: 47, dtype: object

>  <pistack:TYR:94>  (48) 
pistack:TYR:94    NaN
pistack:TYR:94     -1
Name: 47, dtype: object

>  <hbond:TYR:94>  (48) 
hbond:TYR:94    NaN
hbond:TYR:94     -1
Name: 47, dtype: object

>  <hbond:GLN:95>  (48) 
hbond:GLN:95    NaN
hbond:GLN:95     -1
Name: 47, dtype: object

>  <hydroph_interaction:GLN:95>  (48) 
hydroph_interaction:GLN:95    NaN
hydroph_interaction:GLN:95     -1
Name: 47, dtype: object

>  <halogenbond:GLN:95>  (48) 
halogenbond:GLN:95    NaN
halogenbond:GLN:95     -1
Name: 47, dtype: object

>  <hbond:SER:96>  (48) 
hbond:SER:96    NaN
hbond:SER:96     -1
Name: 47, dtype: object

>  <halogenbond:HIS:97>  (48) 
halogenbond:HIS:97    NaN
halogenbond:HIS:97     -1
Name: 47, dtype: object

>  <hydroph_interaction:LEU:98>  (48) 
hydroph_interaction:LEU:98    NaN
hydroph_interaction:LEU:98     -1
Name: 47, dtype: object

>  <hbond:LEU:98>  (48) 
hbond:LEU:98    NaN
hbond:LEU:98     -1
Name: 47, dtype: object

>  <halogenbond:LEU:98>  (48) 
halogenbond:LEU:98    NaN
halogenbond:LEU:98     -1
Name: 47, dtype: object

>  <hbond:MET:99>  (48) 
hbond:MET:99    NaN
hbond:MET:99     -1
Name: 47, dtype: object

>  <hydroph_interaction:MET:99>  (48) 
hydroph_interaction:MET:99    NaN
hydroph_interaction:MET:99     -1
Name: 47, dtype: object

>  <halogenbond:MET:99>  (48) 
halogenbond:MET:99    NaN
halogenbond:MET:99     -1
Name: 47, dtype: object

>  <hydroph_interaction:LEU:100>  (48) 
hydroph_interaction:LEU:100    NaN
hydroph_interaction:LEU:100     -1
Name: 47, dtype: object

>  <hbond:LEU:100>  (48) 
hbond:LEU:100    NaN
hbond:LEU:100     -1
Name: 47, dtype: object

>  <hbond:ALA:101>  (48) 
hbond:ALA:101    NaN
hbond:ALA:101     -1
Name: 47, dtype: object

>  <hydroph_interaction:ALA:101>  (48) 
hydroph_interaction:ALA:101    NaN
hydroph_interaction:ALA:101     -1
Name: 47, dtype: object

>  <hydroph_interaction:VAL:102>  (48) 
hydroph_interaction:VAL:102    NaN
hydroph_interaction:VAL:102     -1
Name: 47, dtype: object

>  <hbond:VAL:102>  (48) 
hbond:VAL:102    NaN
hbond:VAL:102     -1
Name: 47, dtype: object

>  <hbond:GLY:103>  (48) 
hbond:GLY:103    NaN
hbond:GLY:103     -1
Name: 47, dtype: object

>  <halogenbond:GLY:103>  (48) 
halogenbond:GLY:103    NaN
halogenbond:GLY:103     -1
Name: 47, dtype: object

>  <hbond:HIS:104>  (48) 
hbond:HIS:104    NaN
hbond:HIS:104     -1
Name: 47, dtype: object

>  <saltbridge:HIS:104>  (48) 
saltbridge:HIS:104    NaN
saltbridge:HIS:104     -1
Name: 47, dtype: object

>  <pication:HIS:104>  (48) 
pication:HIS:104    NaN
pication:HIS:104     -1
Name: 47, dtype: object

>  <halogenbond:HIS:104>  (48) 
halogenbond:HIS:104    NaN
halogenbond:HIS:104     -1
Name: 47, dtype: object

>  <hydroph_interaction:HIS:104>  (48) 
hydroph_interaction:HIS:104    NaN
hydroph_interaction:HIS:104     -1
Name: 47, dtype: object

>  <pistack:HIS:104>  (48) 
pistack:HIS:104    NaN
pistack:HIS:104     -1
Name: 47, dtype: object

>  <halogenbond:SER:105>  (48) 
halogenbond:SER:105    0.0
halogenbond:SER:105      0
Name: 47, dtype: object

>  <hbond:SER:105>  (48) 
hbond:SER:105    0.0
hbond:SER:105      0
Name: 47, dtype: object

>  <hbond:GLU:106>  (48) 
hbond:GLU:106    0.0
hbond:GLU:106      0
Name: 47, dtype: object

>  <hydroph_interaction:GLU:106>  (48) 
hydroph_interaction:GLU:106    0.0
hydroph_interaction:GLU:106      0
Name: 47, dtype: object

>  <saltbridge:GLU:106>  (48) 
saltbridge:GLU:106    NaN
saltbridge:GLU:106     -1
Name: 47, dtype: object

>  <halogenbond:GLU:106>  (48) 
halogenbond:GLU:106    NaN
halogenbond:GLU:106     -1
Name: 47, dtype: object

>  <hydroph_interaction:PRO:107>  (48) 
hydroph_interaction:PRO:107    0
hydroph_interaction:PRO:107    0
Name: 47, dtype: object

>  <hbond:PRO:107>  (48) 
hbond:PRO:107    0.0
hbond:PRO:107      0
Name: 47, dtype: object

>  <halogenbond:PRO:107>  (48) 
halogenbond:PRO:107    NaN
halogenbond:PRO:107     -1
Name: 47, dtype: object

>  <hbond:GLY:108>  (48) 
hbond:GLY:108    NaN
hbond:GLY:108     -1
Name: 47, dtype: object

>  <halogenbond:GLY:108>  (48) 
halogenbond:GLY:108    NaN
halogenbond:GLY:108     -1
Name: 47, dtype: object

>  <hbond:ASP:109>  (48) 
hbond:ASP:109    0.0
hbond:ASP:109      0
Name: 47, dtype: object

>  <hydroph_interaction:ASP:109>  (48) 
hydroph_interaction:ASP:109    NaN
hydroph_interaction:ASP:109     -1
Name: 47, dtype: object

>  <saltbridge:ASP:109>  (48) 
saltbridge:ASP:109    NaN
saltbridge:ASP:109     -1
Name: 47, dtype: object

>  <halogenbond:CYS:110>  (48) 
halogenbond:CYS:110    NaN
halogenbond:CYS:110     -1
Name: 47, dtype: object

>  <hbond:CYS:110>  (48) 
hbond:CYS:110    0.0
hbond:CYS:110      0
Name: 47, dtype: object

>  <hbond:GLY:111>  (48) 
hbond:GLY:111    NaN
hbond:GLY:111     -1
Name: 47, dtype: object

>  <hbond:GLY:112>  (48) 
hbond:GLY:112    NaN
hbond:GLY:112     -1
Name: 47, dtype: object

>  <hbond:ILE:113>  (48) 
hbond:ILE:113    NaN
hbond:ILE:113     -1
Name: 47, dtype: object

>  <hydroph_interaction:LEU:114>  (48) 
hydroph_interaction:LEU:114    NaN
hydroph_interaction:LEU:114     -1
Name: 47, dtype: object

>  <hbond:LEU:114>  (48) 
hbond:LEU:114    NaN
hbond:LEU:114     -1
Name: 47, dtype: object

>  <hydroph_interaction:ILE:123>  (48) 
hydroph_interaction:ILE:123    NaN
hydroph_interaction:ILE:123     -1
Name: 47, dtype: object

>  <hbond:ILE:123>  (48) 
hbond:ILE:123    NaN
hbond:ILE:123     -1
Name: 47, dtype: object

>  <hydroph_interaction:VAL:124>  (48) 
hydroph_interaction:VAL:124    0.0
hydroph_interaction:VAL:124      0
Name: 47, dtype: object

>  <hbond:VAL:124>  (48) 
hbond:VAL:124    NaN
hbond:VAL:124     -1
Name: 47, dtype: object

>  <halogenbond:VAL:124>  (48) 
halogenbond:VAL:124    NaN
halogenbond:VAL:124     -1
Name: 47, dtype: object

>  <hbond:SER:125>  (48) 
hbond:SER:125    0
hbond:SER:125    0
Name: 47, dtype: object

>  <halogenbond:SER:125>  (48) 
halogenbond:SER:125    NaN
halogenbond:SER:125     -1
Name: 47, dtype: object

>  <hydroph_interaction:THR:126>  (48) 
hydroph_interaction:THR:126    NaN
hydroph_interaction:THR:126     -1
Name: 47, dtype: object

>  <hbond:THR:126>  (48) 
hbond:THR:126    0.0
hbond:THR:126      0
Name: 47, dtype: object

>  <halogenbond:THR:126>  (48) 
halogenbond:THR:126    NaN
halogenbond:THR:126     -1
Name: 47, dtype: object

>  <hbond:GLY:127>  (48) 
hbond:GLY:127    1
hbond:GLY:127    1
Name: 47, dtype: object

>  <halogenbond:GLY:127>  (48) 
halogenbond:GLY:127    NaN
halogenbond:GLY:127     -1
Name: 47, dtype: object

>  <hydroph_interaction:GLY:127>  (48) 
hydroph_interaction:GLY:127    NaN
hydroph_interaction:GLY:127     -1
Name: 47, dtype: object

>  <hbond:GLY:128>  (48) 
hbond:GLY:128    NaN
hbond:GLY:128     -1
Name: 47, dtype: object

>  <halogenbond:GLY:128>  (48) 
halogenbond:GLY:128    NaN
halogenbond:GLY:128     -1
Name: 47, dtype: object

>  <hydroph_interaction:GLY:128>  (48) 
hydroph_interaction:GLY:128    NaN
hydroph_interaction:GLY:128     -1
Name: 47, dtype: object

>  <hbond:ASN:129>  (48) 
hbond:ASN:129    NaN
hbond:ASN:129     -1
Name: 47, dtype: object

>  <hydroph_interaction:ASN:129>  (48) 
hydroph_interaction:ASN:129    NaN
hydroph_interaction:ASN:129     -1
Name: 47, dtype: object

>  <halogenbond:ASN:129>  (48) 
halogenbond:ASN:129    NaN
halogenbond:ASN:129     -1
Name: 47, dtype: object

>  <hbond:GLY:130>  (48) 
hbond:GLY:130    NaN
hbond:GLY:130     -1
Name: 47, dtype: object

>  <hbond:LEU:131>  (48) 
hbond:LEU:131    NaN
hbond:LEU:131     -1
Name: 47, dtype: object

>  <hydroph_interaction:LEU:131>  (48) 
hydroph_interaction:LEU:131    NaN
hydroph_interaction:LEU:131     -1
Name: 47, dtype: object

>  <halogenbond:LEU:131>  (48) 
halogenbond:LEU:131    NaN
halogenbond:LEU:131     -1
Name: 47, dtype: object

>  <hydroph_interaction:VAL:132>  (48) 
hydroph_interaction:VAL:132    0.0
hydroph_interaction:VAL:132      0
Name: 47, dtype: object

>  <hbond:VAL:132>  (48) 
hbond:VAL:132    NaN
hbond:VAL:132     -1
Name: 47, dtype: object

>  <hbond:GLY:133>  (48) 
hbond:GLY:133    NaN
hbond:GLY:133     -1
Name: 47, dtype: object

>  <halogenbond:GLY:133>  (48) 
halogenbond:GLY:133    NaN
halogenbond:GLY:133     -1
Name: 47, dtype: object

>  <hydroph_interaction:PHE:134>  (48) 
hydroph_interaction:PHE:134    NaN
hydroph_interaction:PHE:134     -1
Name: 47, dtype: object

>  <hbond:PHE:134>  (48) 
hbond:PHE:134    NaN
hbond:PHE:134     -1
Name: 47, dtype: object

>  <pistack:PHE:134>  (48) 
pistack:PHE:134    NaN
pistack:PHE:134     -1
Name: 47, dtype: object

>  <pication:PHE:134>  (48) 
pication:PHE:134    NaN
pication:PHE:134     -1
Name: 47, dtype: object

>  <halogenbond:PHE:134>  (48) 
halogenbond:PHE:134    NaN
halogenbond:PHE:134     -1
Name: 47, dtype: object

>  <hydroph_interaction:ALA:135>  (48) 
hydroph_interaction:ALA:135    NaN
hydroph_interaction:ALA:135     -1
Name: 47, dtype: object

>  <hbond:ALA:135>  (48) 
hbond:ALA:135    NaN
hbond:ALA:135     -1
Name: 47, dtype: object

$$$$
Z1585135757
     RDKit          3D

 37 37  0  0  0  0  0  0  0  0999 V2000
    6.3920   10.5280   26.0820 C   0  0  0  0  0  0  0  0  0  0  0  0
    7.4850   10.9720   25.1740 C   0  0  0  0  0  0  0  0  0  0  0  0
    8.3660   10.0720   24.4190 C   0  0  0  0  0  0  0  0  0  0  0  0
    9.3570   10.5710   23.5850 C   0  0  0  0  0  0  0  0  0  0  0  0
   10.2300    9.6400   22.8190 C   0  0  0  0  0  0  0  0  0  0  0  0
    9.5050   11.9600   23.4850 C   0  0  0  0  0  0  0  0  0  0  0  0
   10.5180   12.5610   22.6550 N   0  0  0  0  0  0  0  0  0  0  0  0
   11.5660   13.2930   23.1650 C   0  0  0  0  0  0  0  0  0  0  0  0
   11.6650   13.7620   24.2950 O   0  0  0  0  0  0  0  0  0  0  0  0
   12.4930   13.4300   22.1960 N   0  0  0  0  0  0  0  0  0  0  0  0
   13.0160   14.6830   22.1250 C   0  0  1  0  0  0  0  0  0  0  0  0
   13.4620   15.3440   20.8580 C   0  0  0  0  0  0  0  0  0  0  0  0
   11.9380   15.6110   22.5830 C   0  0  0  0  0  0  0  0  0  0  0  0
   10.8930   15.5510   21.6010 O   0  0  0  0  0  0  0  0  0  0  0  0
    8.6550   12.8100   24.2100 C   0  0  0  0  0  0  0  0  0  0  0  0
    8.7230   14.1910   24.1690 C   0  0  0  0  0  0  0  0  0  0  0  0
    7.6670   12.3100   25.0340 C   0  0  0  0  0  0  0  0  0  0  0  0
    5.6870   11.3460   26.2370 H   0  0  0  0  0  0  0  0  0  0  0  0
    5.8610    9.6940   25.6270 H   0  0  0  0  0  0  0  0  0  0  0  0
    6.7820   10.2160   27.0500 H   0  0  0  0  0  0  0  0  0  0  0  0
    8.2440    9.0080   24.5060 H   0  0  0  0  0  0  0  0  0  0  0  0
   10.7430   10.1890   22.0280 H   0  0  0  0  0  0  0  0  0  0  0  0
   10.9660    9.1670   23.4760 H   0  0  0  0  0  0  0  0  0  0  0  0
    9.6360    8.8740   22.3260 H   0  0  0  0  0  0  0  0  0  0  0  0
   10.6670   12.1950   21.7130 H   0  0  0  0  0  0  0  0  0  0  0  0
   12.2380   12.9780   21.2990 H   0  0  0  0  0  0  0  0  0  0  0  0
   13.8530   14.7350   22.8270 H   0  0  0  0  0  0  0  0  0  0  0  0
   12.6370   15.9360   20.4990 H   0  0  0  0  0  0  0  0  0  0  0  0
   13.7030   14.6080   20.0750 H   0  0  0  0  0  0  0  0  0  0  0  0
   14.3090   16.0150   21.0170 H   0  0  0  0  0  0  0  0  0  0  0  0
   12.3140   16.6380   22.6810 H   0  0  0  0  0  0  0  0  0  0  0  0
   11.5390   15.3380   23.5620 H   0  0  0  0  0  0  0  0  0  0  0  0
   11.2420   15.0420   20.8430 H   0  0  0  0  0  0  0  0  0  0  0  0
    7.8470   14.7670   24.4520 H   0  0  0  0  0  0  0  0  0  0  0  0
    9.5760   14.5260   24.7670 H   0  0  0  0  0  0  0  0  0  0  0  0
    8.9260   14.4880   23.1330 H   0  0  0  0  0  0  0  0  0  0  0  0
    7.0230   12.9960   25.5820 H   0  0  0  0  0  0  0  0  0  0  0  0
  1  2  1  0
  2  3  2  0
  3  4  1  0
  4  5  1  0
  4  6  2  0
  6  7  1  0
  7  8  1  0
  8  9  2  0
  8 10  1  0
 10 11  1  0
 11 12  1  0
 11 13  1  0
 13 14  1  0
  6 15  1  0
 15 16  1  0
 15 17  2  0
 17  2  1  0
  1 18  1  0
  1 19  1  0
  1 20  1  0
  3 21  1  0
  5 22  1  0
  5 23  1  0
  5 24  1  0
  7 25  1  0
 10 26  1  0
 11 27  1  1
 12 28  1  0
 12 29  1  0
 12 30  1  0
 13 31  1  0
 13 32  1  0
 14 33  1  0
 16 34  1  0
 16 35  1  0
 16 36  1  0
 17 37  1  0
A    1
 C1 
A    2
 C2 
A    3
 C3 
A    4
 C4 
A    5
 C5 
A    6
 C6 
A    7
 N1 
A    8
 C7 
A    9
 O1 
A   10
 N2 
A   11
 C8 
A   12
 C9 
A   13
 C10
A   14
 O2 
A   15
 C11
A   16
 C12
A   17
 C13
A   18
 H1 
A   19
 H2 
A   20
 H3 
A   21
 H4 
A   22
 H5 
A   23
 H6 
A   24
 H7 
A   25
 H8 
A   26
 H9 
A   27
 H10
A   28
 H11
A   29
 H12
A   30
 H13
A   31
 H14
A   32
 H15
A   33
 H16
A   34
 H17
A   35
 H18
A   36
 H19
A   37
 H20
M  END
>  <ref_pdb>  (49) 
x0310_0A

>  <ref_mols>  (49) 
x0310_0A,x0528_0A

>  <original SMILES>  (49) 
Cc1cc(C)c(NC(=O)N[C@@H](C)CO)c(C)c1

>  <rationale>  (49) 
info halogenbond:C110+G127+D39+A86+S125+Q95+E106+E88+T126+P107+H104+Y64+C65+N129+F83+R93+L131+I82+G128+P91+N19+H21+V84+G133+Y90+Y89+H97+L81+F134+L98+R20+G103+S66+S67+S7+G108+R38+V124+M99+S36; hbond:S87+S125+Q95+G108+G103+L131+R68+R93+P91+F83+S67+S7+S66+G112+V132+R20+Y89+S77+A135+Y63+A92+A101+M99+F134+L100+I82+Y64+S36+L98+V84+L81+Y94+S80+R38+S37+V102+G8+I123+G111+I113+L114+C65+L22+S96; hydroph_interaction:V124+Y90+Y89+H21+L22+N129+N19+L40+I123+A135+Q95+I82+L100+L98+L131+F83+R93+F134+R20+A86+V74+P91+A101+F76+M99+L114+A92+Y94+R68+Y72+Y64+V18+V102+W28+G127+G128+L81; pication:H104+R93+Y63+F134+Y90+R68+F83+R20; pistack:Y89+H104+F134+Y63+F83+Y94; saltbridge:D39+R93+E106+D109+E85+E88+R68+R20; 

>  <intxn_cluster>  (49) 
-1

>  <intxn_cluster_rank>  (49) 
-1

>  <N_interactions>  (49) 
8

>  <∆∆G>  (49) 
-10.563231

>  <$/mg>  (49) 
0.0

>  <comRMSD>  (49) 
0.96211

>  <N_rotatable_bonds>  (49) 
8

>  <deep_P1_sidechain>  (49) 
nan

>  <farthest_distance_to_substrate>  (49) 
3.278848

>  <hbond:SER:7>  (49) 
hbond:SER:7    NaN
hbond:SER:7     -1
Name: 48, dtype: object

>  <halogenbond:SER:7>  (49) 
halogenbond:SER:7    NaN
halogenbond:SER:7     -1
Name: 48, dtype: object

>  <hbond:GLY:8>  (49) 
hbond:GLY:8    NaN
hbond:GLY:8     -1
Name: 48, dtype: object

>  <hydroph_interaction:VAL:18>  (49) 
hydroph_interaction:VAL:18    NaN
hydroph_interaction:VAL:18     -1
Name: 48, dtype: object

>  <hbond:ASN:19>  (49) 
hbond:ASN:19    0.0
hbond:ASN:19      0
Name: 48, dtype: object

>  <hydroph_interaction:ASN:19>  (49) 
hydroph_interaction:ASN:19    NaN
hydroph_interaction:ASN:19     -1
Name: 48, dtype: object

>  <halogenbond:ASN:19>  (49) 
halogenbond:ASN:19    NaN
halogenbond:ASN:19     -1
Name: 48, dtype: object

>  <hbond:ARG:20>  (49) 
hbond:ARG:20    NaN
hbond:ARG:20     -1
Name: 48, dtype: object

>  <hydroph_interaction:ARG:20>  (49) 
hydroph_interaction:ARG:20    NaN
hydroph_interaction:ARG:20     -1
Name: 48, dtype: object

>  <saltbridge:ARG:20>  (49) 
saltbridge:ARG:20    NaN
saltbridge:ARG:20     -1
Name: 48, dtype: object

>  <halogenbond:ARG:20>  (49) 
halogenbond:ARG:20    NaN
halogenbond:ARG:20     -1
Name: 48, dtype: object

>  <pication:ARG:20>  (49) 
pication:ARG:20    NaN
pication:ARG:20     -1
Name: 48, dtype: object

>  <hbond:HIS:21>  (49) 
hbond:HIS:21    0.0
hbond:HIS:21      0
Name: 48, dtype: object

>  <hydroph_interaction:HIS:21>  (49) 
hydroph_interaction:HIS:21    1.0
hydroph_interaction:HIS:21      1
Name: 48, dtype: object

>  <pistack:HIS:21>  (49) 
pistack:HIS:21    0.0
pistack:HIS:21      0
Name: 48, dtype: object

>  <pication:HIS:21>  (49) 
pication:HIS:21    0.0
pication:HIS:21      0
Name: 48, dtype: object

>  <saltbridge:HIS:21>  (49) 
saltbridge:HIS:21    0.0
saltbridge:HIS:21      0
Name: 48, dtype: object

>  <halogenbond:HIS:21>  (49) 
halogenbond:HIS:21    NaN
halogenbond:HIS:21     -1
Name: 48, dtype: object

>  <hydroph_interaction:LEU:22>  (49) 
hydroph_interaction:LEU:22    NaN
hydroph_interaction:LEU:22     -1
Name: 48, dtype: object

>  <hbond:LEU:22>  (49) 
hbond:LEU:22    NaN
hbond:LEU:22     -1
Name: 48, dtype: object

>  <hydroph_interaction:TRP:28>  (49) 
hydroph_interaction:TRP:28    NaN
hydroph_interaction:TRP:28     -1
Name: 48, dtype: object

>  <hbond:SER:36>  (49) 
hbond:SER:36    NaN
hbond:SER:36     -1
Name: 48, dtype: object

>  <halogenbond:SER:36>  (49) 
halogenbond:SER:36    NaN
halogenbond:SER:36     -1
Name: 48, dtype: object

>  <hbond:SER:37>  (49) 
hbond:SER:37    NaN
hbond:SER:37     -1
Name: 48, dtype: object

>  <hbond:ARG:38>  (49) 
hbond:ARG:38    NaN
hbond:ARG:38     -1
Name: 48, dtype: object

>  <halogenbond:ARG:38>  (49) 
halogenbond:ARG:38    NaN
halogenbond:ARG:38     -1
Name: 48, dtype: object

>  <saltbridge:ASP:39>  (49) 
saltbridge:ASP:39    NaN
saltbridge:ASP:39     -1
Name: 48, dtype: object

>  <halogenbond:ASP:39>  (49) 
halogenbond:ASP:39    NaN
halogenbond:ASP:39     -1
Name: 48, dtype: object

>  <hbond:ASP:39>  (49) 
hbond:ASP:39    0.0
hbond:ASP:39      0
Name: 48, dtype: object

>  <hydroph_interaction:ASP:39>  (49) 
hydroph_interaction:ASP:39    0.0
hydroph_interaction:ASP:39      0
Name: 48, dtype: object

>  <hydroph_interaction:LEU:40>  (49) 
hydroph_interaction:LEU:40    NaN
hydroph_interaction:LEU:40     -1
Name: 48, dtype: object

>  <hydroph_interaction:TYR:63>  (49) 
hydroph_interaction:TYR:63    0.0
hydroph_interaction:TYR:63      0
Name: 48, dtype: object

>  <hbond:TYR:63>  (49) 
hbond:TYR:63    NaN
hbond:TYR:63     -1
Name: 48, dtype: object

>  <pistack:TYR:63>  (49) 
pistack:TYR:63    NaN
pistack:TYR:63     -1
Name: 48, dtype: object

>  <pication:TYR:63>  (49) 
pication:TYR:63    NaN
pication:TYR:63     -1
Name: 48, dtype: object

>  <halogenbond:TYR:64>  (49) 
halogenbond:TYR:64    NaN
halogenbond:TYR:64     -1
Name: 48, dtype: object

>  <hbond:TYR:64>  (49) 
hbond:TYR:64    NaN
hbond:TYR:64     -1
Name: 48, dtype: object

>  <hydroph_interaction:TYR:64>  (49) 
hydroph_interaction:TYR:64    NaN
hydroph_interaction:TYR:64     -1
Name: 48, dtype: object

>  <halogenbond:CYS:65>  (49) 
halogenbond:CYS:65    NaN
halogenbond:CYS:65     -1
Name: 48, dtype: object

>  <hbond:CYS:65>  (49) 
hbond:CYS:65    NaN
hbond:CYS:65     -1
Name: 48, dtype: object

>  <hbond:SER:66>  (49) 
hbond:SER:66    NaN
hbond:SER:66     -1
Name: 48, dtype: object

>  <halogenbond:SER:66>  (49) 
halogenbond:SER:66    NaN
halogenbond:SER:66     -1
Name: 48, dtype: object

>  <hbond:SER:67>  (49) 
hbond:SER:67    NaN
hbond:SER:67     -1
Name: 48, dtype: object

>  <halogenbond:SER:67>  (49) 
halogenbond:SER:67    NaN
halogenbond:SER:67     -1
Name: 48, dtype: object

>  <hbond:ARG:68>  (49) 
hbond:ARG:68    NaN
hbond:ARG:68     -1
Name: 48, dtype: object

>  <saltbridge:ARG:68>  (49) 
saltbridge:ARG:68    NaN
saltbridge:ARG:68     -1
Name: 48, dtype: object

>  <hydroph_interaction:ARG:68>  (49) 
hydroph_interaction:ARG:68    NaN
hydroph_interaction:ARG:68     -1
Name: 48, dtype: object

>  <pication:ARG:68>  (49) 
pication:ARG:68    NaN
pication:ARG:68     -1
Name: 48, dtype: object

>  <hydroph_interaction:TYR:72>  (49) 
hydroph_interaction:TYR:72    NaN
hydroph_interaction:TYR:72     -1
Name: 48, dtype: object

>  <hydroph_interaction:VAL:74>  (49) 
hydroph_interaction:VAL:74    NaN
hydroph_interaction:VAL:74     -1
Name: 48, dtype: object

>  <hydroph_interaction:PHE:76>  (49) 
hydroph_interaction:PHE:76    NaN
hydroph_interaction:PHE:76     -1
Name: 48, dtype: object

>  <hbond:SER:77>  (49) 
hbond:SER:77    NaN
hbond:SER:77     -1
Name: 48, dtype: object

>  <hbond:SER:80>  (49) 
hbond:SER:80    NaN
hbond:SER:80     -1
Name: 48, dtype: object

>  <hbond:LEU:81>  (49) 
hbond:LEU:81    NaN
hbond:LEU:81     -1
Name: 48, dtype: object

>  <halogenbond:LEU:81>  (49) 
halogenbond:LEU:81    NaN
halogenbond:LEU:81     -1
Name: 48, dtype: object

>  <hydroph_interaction:LEU:81>  (49) 
hydroph_interaction:LEU:81    NaN
hydroph_interaction:LEU:81     -1
Name: 48, dtype: object

>  <hydroph_interaction:ILE:82>  (49) 
hydroph_interaction:ILE:82    NaN
hydroph_interaction:ILE:82     -1
Name: 48, dtype: object

>  <halogenbond:ILE:82>  (49) 
halogenbond:ILE:82    NaN
halogenbond:ILE:82     -1
Name: 48, dtype: object

>  <hbond:ILE:82>  (49) 
hbond:ILE:82    NaN
hbond:ILE:82     -1
Name: 48, dtype: object

>  <hbond:PHE:83>  (49) 
hbond:PHE:83    NaN
hbond:PHE:83     -1
Name: 48, dtype: object

>  <hydroph_interaction:PHE:83>  (49) 
hydroph_interaction:PHE:83    NaN
hydroph_interaction:PHE:83     -1
Name: 48, dtype: object

>  <halogenbond:PHE:83>  (49) 
halogenbond:PHE:83    NaN
halogenbond:PHE:83     -1
Name: 48, dtype: object

>  <pistack:PHE:83>  (49) 
pistack:PHE:83    NaN
pistack:PHE:83     -1
Name: 48, dtype: object

>  <pication:PHE:83>  (49) 
pication:PHE:83    NaN
pication:PHE:83     -1
Name: 48, dtype: object

>  <hydroph_interaction:VAL:84>  (49) 
hydroph_interaction:VAL:84    0.0
hydroph_interaction:VAL:84      0
Name: 48, dtype: object

>  <halogenbond:VAL:84>  (49) 
halogenbond:VAL:84    NaN
halogenbond:VAL:84     -1
Name: 48, dtype: object

>  <hbond:VAL:84>  (49) 
hbond:VAL:84    NaN
hbond:VAL:84     -1
Name: 48, dtype: object

>  <hydroph_interaction:GLU:85>  (49) 
hydroph_interaction:GLU:85    0.0
hydroph_interaction:GLU:85      0
Name: 48, dtype: object

>  <hbond:GLU:85>  (49) 
hbond:GLU:85    0.0
hbond:GLU:85      0
Name: 48, dtype: object

>  <halogenbond:GLU:85>  (49) 
halogenbond:GLU:85    0.0
halogenbond:GLU:85      0
Name: 48, dtype: object

>  <saltbridge:GLU:85>  (49) 
saltbridge:GLU:85    NaN
saltbridge:GLU:85     -1
Name: 48, dtype: object

>  <halogenbond:ALA:86>  (49) 
halogenbond:ALA:86    NaN
halogenbond:ALA:86     -1
Name: 48, dtype: object

>  <hbond:ALA:86>  (49) 
hbond:ALA:86    0.0
hbond:ALA:86      0
Name: 48, dtype: object

>  <hydroph_interaction:ALA:86>  (49) 
hydroph_interaction:ALA:86    NaN
hydroph_interaction:ALA:86     -1
Name: 48, dtype: object

>  <hbond:SER:87>  (49) 
hbond:SER:87    2
hbond:SER:87    2
Name: 48, dtype: object

>  <halogenbond:SER:87>  (49) 
halogenbond:SER:87    0.0
halogenbond:SER:87      0
Name: 48, dtype: object

>  <hbond:GLU:88>  (49) 
hbond:GLU:88    0.0
hbond:GLU:88      0
Name: 48, dtype: object

>  <hydroph_interaction:GLU:88>  (49) 
hydroph_interaction:GLU:88    0.0
hydroph_interaction:GLU:88      0
Name: 48, dtype: object

>  <halogenbond:GLU:88>  (49) 
halogenbond:GLU:88    NaN
halogenbond:GLU:88     -1
Name: 48, dtype: object

>  <saltbridge:GLU:88>  (49) 
saltbridge:GLU:88    NaN
saltbridge:GLU:88     -1
Name: 48, dtype: object

>  <hydroph_interaction:TYR:89>  (49) 
hydroph_interaction:TYR:89    1.0
hydroph_interaction:TYR:89      1
Name: 48, dtype: object

>  <pistack:TYR:89>  (49) 
pistack:TYR:89    NaN
pistack:TYR:89     -1
Name: 48, dtype: object

>  <hbond:TYR:89>  (49) 
hbond:TYR:89    NaN
hbond:TYR:89     -1
Name: 48, dtype: object

>  <halogenbond:TYR:89>  (49) 
halogenbond:TYR:89    NaN
halogenbond:TYR:89     -1
Name: 48, dtype: object

>  <hydroph_interaction:TYR:90>  (49) 
hydroph_interaction:TYR:90    1.0
hydroph_interaction:TYR:90      1
Name: 48, dtype: object

>  <hbond:TYR:90>  (49) 
hbond:TYR:90    0.0
hbond:TYR:90      0
Name: 48, dtype: object

>  <pistack:TYR:90>  (49) 
pistack:TYR:90    0.0
pistack:TYR:90      0
Name: 48, dtype: object

>  <halogenbond:TYR:90>  (49) 
halogenbond:TYR:90    NaN
halogenbond:TYR:90     -1
Name: 48, dtype: object

>  <pication:TYR:90>  (49) 
pication:TYR:90    NaN
pication:TYR:90     -1
Name: 48, dtype: object

>  <hbond:PRO:91>  (49) 
hbond:PRO:91    NaN
hbond:PRO:91     -1
Name: 48, dtype: object

>  <hydroph_interaction:PRO:91>  (49) 
hydroph_interaction:PRO:91    NaN
hydroph_interaction:PRO:91     -1
Name: 48, dtype: object

>  <halogenbond:PRO:91>  (49) 
halogenbond:PRO:91    NaN
halogenbond:PRO:91     -1
Name: 48, dtype: object

>  <hbond:ALA:92>  (49) 
hbond:ALA:92    NaN
hbond:ALA:92     -1
Name: 48, dtype: object

>  <hydroph_interaction:ALA:92>  (49) 
hydroph_interaction:ALA:92    NaN
hydroph_interaction:ALA:92     -1
Name: 48, dtype: object

>  <saltbridge:ARG:93>  (49) 
saltbridge:ARG:93    NaN
saltbridge:ARG:93     -1
Name: 48, dtype: object

>  <hbond:ARG:93>  (49) 
hbond:ARG:93    NaN
hbond:ARG:93     -1
Name: 48, dtype: object

>  <hydroph_interaction:ARG:93>  (49) 
hydroph_interaction:ARG:93    NaN
hydroph_interaction:ARG:93     -1
Name: 48, dtype: object

>  <halogenbond:ARG:93>  (49) 
halogenbond:ARG:93    NaN
halogenbond:ARG:93     -1
Name: 48, dtype: object

>  <pication:ARG:93>  (49) 
pication:ARG:93    NaN
pication:ARG:93     -1
Name: 48, dtype: object

>  <hydroph_interaction:TYR:94>  (49) 
hydroph_interaction:TYR:94    NaN
hydroph_interaction:TYR:94     -1
Name: 48, dtype: object

>  <pistack:TYR:94>  (49) 
pistack:TYR:94    NaN
pistack:TYR:94     -1
Name: 48, dtype: object

>  <hbond:TYR:94>  (49) 
hbond:TYR:94    NaN
hbond:TYR:94     -1
Name: 48, dtype: object

>  <hbond:GLN:95>  (49) 
hbond:GLN:95    NaN
hbond:GLN:95     -1
Name: 48, dtype: object

>  <hydroph_interaction:GLN:95>  (49) 
hydroph_interaction:GLN:95    NaN
hydroph_interaction:GLN:95     -1
Name: 48, dtype: object

>  <halogenbond:GLN:95>  (49) 
halogenbond:GLN:95    NaN
halogenbond:GLN:95     -1
Name: 48, dtype: object

>  <hbond:SER:96>  (49) 
hbond:SER:96    NaN
hbond:SER:96     -1
Name: 48, dtype: object

>  <halogenbond:HIS:97>  (49) 
halogenbond:HIS:97    NaN
halogenbond:HIS:97     -1
Name: 48, dtype: object

>  <hydroph_interaction:LEU:98>  (49) 
hydroph_interaction:LEU:98    NaN
hydroph_interaction:LEU:98     -1
Name: 48, dtype: object

>  <hbond:LEU:98>  (49) 
hbond:LEU:98    NaN
hbond:LEU:98     -1
Name: 48, dtype: object

>  <halogenbond:LEU:98>  (49) 
halogenbond:LEU:98    NaN
halogenbond:LEU:98     -1
Name: 48, dtype: object

>  <hbond:MET:99>  (49) 
hbond:MET:99    NaN
hbond:MET:99     -1
Name: 48, dtype: object

>  <hydroph_interaction:MET:99>  (49) 
hydroph_interaction:MET:99    NaN
hydroph_interaction:MET:99     -1
Name: 48, dtype: object

>  <halogenbond:MET:99>  (49) 
halogenbond:MET:99    NaN
halogenbond:MET:99     -1
Name: 48, dtype: object

>  <hydroph_interaction:LEU:100>  (49) 
hydroph_interaction:LEU:100    NaN
hydroph_interaction:LEU:100     -1
Name: 48, dtype: object

>  <hbond:LEU:100>  (49) 
hbond:LEU:100    NaN
hbond:LEU:100     -1
Name: 48, dtype: object

>  <hbond:ALA:101>  (49) 
hbond:ALA:101    NaN
hbond:ALA:101     -1
Name: 48, dtype: object

>  <hydroph_interaction:ALA:101>  (49) 
hydroph_interaction:ALA:101    NaN
hydroph_interaction:ALA:101     -1
Name: 48, dtype: object

>  <hydroph_interaction:VAL:102>  (49) 
hydroph_interaction:VAL:102    NaN
hydroph_interaction:VAL:102     -1
Name: 48, dtype: object

>  <hbond:VAL:102>  (49) 
hbond:VAL:102    NaN
hbond:VAL:102     -1
Name: 48, dtype: object

>  <hbond:GLY:103>  (49) 
hbond:GLY:103    NaN
hbond:GLY:103     -1
Name: 48, dtype: object

>  <halogenbond:GLY:103>  (49) 
halogenbond:GLY:103    NaN
halogenbond:GLY:103     -1
Name: 48, dtype: object

>  <hbond:HIS:104>  (49) 
hbond:HIS:104    0.0
hbond:HIS:104      0
Name: 48, dtype: object

>  <saltbridge:HIS:104>  (49) 
saltbridge:HIS:104    0.0
saltbridge:HIS:104      0
Name: 48, dtype: object

>  <pication:HIS:104>  (49) 
pication:HIS:104    NaN
pication:HIS:104     -1
Name: 48, dtype: object

>  <halogenbond:HIS:104>  (49) 
halogenbond:HIS:104    NaN
halogenbond:HIS:104     -1
Name: 48, dtype: object

>  <hydroph_interaction:HIS:104>  (49) 
hydroph_interaction:HIS:104    0.0
hydroph_interaction:HIS:104      0
Name: 48, dtype: object

>  <pistack:HIS:104>  (49) 
pistack:HIS:104    NaN
pistack:HIS:104     -1
Name: 48, dtype: object

>  <halogenbond:SER:105>  (49) 
halogenbond:SER:105    0.0
halogenbond:SER:105      0
Name: 48, dtype: object

>  <hbond:SER:105>  (49) 
hbond:SER:105    0.0
hbond:SER:105      0
Name: 48, dtype: object

>  <hbond:GLU:106>  (49) 
hbond:GLU:106    0.0
hbond:GLU:106      0
Name: 48, dtype: object

>  <hydroph_interaction:GLU:106>  (49) 
hydroph_interaction:GLU:106    0.0
hydroph_interaction:GLU:106      0
Name: 48, dtype: object

>  <saltbridge:GLU:106>  (49) 
saltbridge:GLU:106    NaN
saltbridge:GLU:106     -1
Name: 48, dtype: object

>  <halogenbond:GLU:106>  (49) 
halogenbond:GLU:106    NaN
halogenbond:GLU:106     -1
Name: 48, dtype: object

>  <hydroph_interaction:PRO:107>  (49) 
hydroph_interaction:PRO:107    0
hydroph_interaction:PRO:107    0
Name: 48, dtype: object

>  <hbond:PRO:107>  (49) 
hbond:PRO:107    0.0
hbond:PRO:107      0
Name: 48, dtype: object

>  <halogenbond:PRO:107>  (49) 
halogenbond:PRO:107    NaN
halogenbond:PRO:107     -1
Name: 48, dtype: object

>  <hbond:GLY:108>  (49) 
hbond:GLY:108    NaN
hbond:GLY:108     -1
Name: 48, dtype: object

>  <halogenbond:GLY:108>  (49) 
halogenbond:GLY:108    NaN
halogenbond:GLY:108     -1
Name: 48, dtype: object

>  <hbond:ASP:109>  (49) 
hbond:ASP:109    0.0
hbond:ASP:109      0
Name: 48, dtype: object

>  <hydroph_interaction:ASP:109>  (49) 
hydroph_interaction:ASP:109    0.0
hydroph_interaction:ASP:109      0
Name: 48, dtype: object

>  <saltbridge:ASP:109>  (49) 
saltbridge:ASP:109    NaN
saltbridge:ASP:109     -1
Name: 48, dtype: object

>  <halogenbond:CYS:110>  (49) 
halogenbond:CYS:110    NaN
halogenbond:CYS:110     -1
Name: 48, dtype: object

>  <hbond:CYS:110>  (49) 
hbond:CYS:110    0.0
hbond:CYS:110      0
Name: 48, dtype: object

>  <hbond:GLY:111>  (49) 
hbond:GLY:111    NaN
hbond:GLY:111     -1
Name: 48, dtype: object

>  <hbond:GLY:112>  (49) 
hbond:GLY:112    NaN
hbond:GLY:112     -1
Name: 48, dtype: object

>  <hbond:ILE:113>  (49) 
hbond:ILE:113    NaN
hbond:ILE:113     -1
Name: 48, dtype: object

>  <hydroph_interaction:LEU:114>  (49) 
hydroph_interaction:LEU:114    NaN
hydroph_interaction:LEU:114     -1
Name: 48, dtype: object

>  <hbond:LEU:114>  (49) 
hbond:LEU:114    NaN
hbond:LEU:114     -1
Name: 48, dtype: object

>  <hydroph_interaction:ILE:123>  (49) 
hydroph_interaction:ILE:123    NaN
hydroph_interaction:ILE:123     -1
Name: 48, dtype: object

>  <hbond:ILE:123>  (49) 
hbond:ILE:123    NaN
hbond:ILE:123     -1
Name: 48, dtype: object

>  <hydroph_interaction:VAL:124>  (49) 
hydroph_interaction:VAL:124    1.0
hydroph_interaction:VAL:124      1
Name: 48, dtype: object

>  <hbond:VAL:124>  (49) 
hbond:VAL:124    0.0
hbond:VAL:124      0
Name: 48, dtype: object

>  <halogenbond:VAL:124>  (49) 
halogenbond:VAL:124    NaN
halogenbond:VAL:124     -1
Name: 48, dtype: object

>  <hbond:SER:125>  (49) 
hbond:SER:125    2
hbond:SER:125    2
Name: 48, dtype: object

>  <halogenbond:SER:125>  (49) 
halogenbond:SER:125    NaN
halogenbond:SER:125     -1
Name: 48, dtype: object

>  <hydroph_interaction:THR:126>  (49) 
hydroph_interaction:THR:126    0.0
hydroph_interaction:THR:126      0
Name: 48, dtype: object

>  <hbond:THR:126>  (49) 
hbond:THR:126    0.0
hbond:THR:126      0
Name: 48, dtype: object

>  <halogenbond:THR:126>  (49) 
halogenbond:THR:126    NaN
halogenbond:THR:126     -1
Name: 48, dtype: object

>  <hbond:GLY:127>  (49) 
hbond:GLY:127    0
hbond:GLY:127    0
Name: 48, dtype: object

>  <halogenbond:GLY:127>  (49) 
halogenbond:GLY:127    NaN
halogenbond:GLY:127     -1
Name: 48, dtype: object

>  <hydroph_interaction:GLY:127>  (49) 
hydroph_interaction:GLY:127    NaN
hydroph_interaction:GLY:127     -1
Name: 48, dtype: object

>  <hbond:GLY:128>  (49) 
hbond:GLY:128    0.0
hbond:GLY:128      0
Name: 48, dtype: object

>  <halogenbond:GLY:128>  (49) 
halogenbond:GLY:128    NaN
halogenbond:GLY:128     -1
Name: 48, dtype: object

>  <hydroph_interaction:GLY:128>  (49) 
hydroph_interaction:GLY:128    NaN
hydroph_interaction:GLY:128     -1
Name: 48, dtype: object

>  <hbond:ASN:129>  (49) 
hbond:ASN:129    0.0
hbond:ASN:129      0
Name: 48, dtype: object

>  <hydroph_interaction:ASN:129>  (49) 
hydroph_interaction:ASN:129    NaN
hydroph_interaction:ASN:129     -1
Name: 48, dtype: object

>  <halogenbond:ASN:129>  (49) 
halogenbond:ASN:129    NaN
halogenbond:ASN:129     -1
Name: 48, dtype: object

>  <hbond:GLY:130>  (49) 
hbond:GLY:130    0.0
hbond:GLY:130      0
Name: 48, dtype: object

>  <hbond:LEU:131>  (49) 
hbond:LEU:131    NaN
hbond:LEU:131     -1
Name: 48, dtype: object

>  <hydroph_interaction:LEU:131>  (49) 
hydroph_interaction:LEU:131    NaN
hydroph_interaction:LEU:131     -1
Name: 48, dtype: object

>  <halogenbond:LEU:131>  (49) 
halogenbond:LEU:131    NaN
halogenbond:LEU:131     -1
Name: 48, dtype: object

>  <hydroph_interaction:VAL:132>  (49) 
hydroph_interaction:VAL:132    0.0
hydroph_interaction:VAL:132      0
Name: 48, dtype: object

>  <hbond:VAL:132>  (49) 
hbond:VAL:132    NaN
hbond:VAL:132     -1
Name: 48, dtype: object

>  <hbond:GLY:133>  (49) 
hbond:GLY:133    0.0
hbond:GLY:133      0
Name: 48, dtype: object

>  <halogenbond:GLY:133>  (49) 
halogenbond:GLY:133    NaN
halogenbond:GLY:133     -1
Name: 48, dtype: object

>  <hydroph_interaction:PHE:134>  (49) 
hydroph_interaction:PHE:134    NaN
hydroph_interaction:PHE:134     -1
Name: 48, dtype: object

>  <hbond:PHE:134>  (49) 
hbond:PHE:134    NaN
hbond:PHE:134     -1
Name: 48, dtype: object

>  <pistack:PHE:134>  (49) 
pistack:PHE:134    NaN
pistack:PHE:134     -1
Name: 48, dtype: object

>  <pication:PHE:134>  (49) 
pication:PHE:134    NaN
pication:PHE:134     -1
Name: 48, dtype: object

>  <halogenbond:PHE:134>  (49) 
halogenbond:PHE:134    NaN
halogenbond:PHE:134     -1
Name: 48, dtype: object

>  <hydroph_interaction:ALA:135>  (49) 
hydroph_interaction:ALA:135    NaN
hydroph_interaction:ALA:135     -1
Name: 48, dtype: object

>  <hbond:ALA:135>  (49) 
hbond:ALA:135    NaN
hbond:ALA:135     -1
Name: 48, dtype: object

$$$$
Z3576392937
     RDKit          3D

 31 31  0  0  0  0  0  0  0  0999 V2000
   13.0570   15.4730   21.0240 C   0  0  0  0  0  0  0  0  0  0  0  0
   12.2130   15.7450   22.2180 C   0  0  0  0  0  0  0  0  0  0  0  0
   12.5190   15.1950   23.4010 C   0  0  1  0  0  0  0  0  0  0  0  0
   11.8930   15.9160   24.4380 O   0  0  0  0  0  0  0  0  0  0  0  0
   12.2970   13.7580   23.6660 C   0  0  0  0  0  0  0  0  0  0  0  0
   13.1810   12.9410   23.7910 O   0  0  0  0  0  0  0  0  0  0  0  0
   10.9620   13.5440   23.7940 O   0  0  0  0  0  0  0  0  0  0  0  0
   10.3750   12.6800   22.8330 C   0  0  0  0  0  0  0  0  0  0  0  0
    9.4680   11.7750   23.5580 C   0  0  0  0  0  0  0  0  0  0  0  0
    8.3530   12.1220   24.5350 C   0  0  0  0  0  0  0  0  0  0  0  0
    7.7700   13.6100   25.1120 Cl  0  0  0  0  0  0  0  0  0  0  0  0
    7.8210   10.9490   24.9290 N   0  0  0  0  0  0  0  0  0  0  0  0
    6.7240   10.7530   25.8490 C   0  0  0  0  0  0  0  0  0  0  0  0
    8.4240    9.8820   24.3560 N   0  0  0  0  0  0  0  0  0  0  0  0
    9.4020   10.3630   23.5280 C   0  0  0  0  0  0  0  0  0  0  0  0
   10.2630    9.4230   22.7060 C   0  0  0  0  0  0  0  0  0  0  0  0
   13.6180   14.5540   21.1890 H   0  0  0  0  0  0  0  0  0  0  0  0
   13.7600   16.2670   20.7770 H   0  0  0  0  0  0  0  0  0  0  0  0
   12.4150   15.3130   20.1550 H   0  0  0  0  0  0  0  0  0  0  0  0
   11.1800   15.5780   21.9220 H   0  0  0  0  0  0  0  0  0  0  0  0
   12.2430   16.8300   22.3630 H   0  0  0  0  0  0  0  0  0  0  0  0
   13.5850   15.3750   23.5520 H   0  0  0  0  0  0  0  0  0  0  0  0
   12.5510   16.5700   24.7280 H   0  0  0  0  0  0  0  0  0  0  0  0
    9.8300   13.2740   22.0890 H   0  0  0  0  0  0  0  0  0  0  0  0
   11.1430   12.1020   22.3200 H   0  0  0  0  0  0  0  0  0  0  0  0
    6.1560    9.8760   25.5490 H   0  0  0  0  0  0  0  0  0  0  0  0
    6.0760   11.6340   25.8050 H   0  0  0  0  0  0  0  0  0  0  0  0
    7.1070   10.6100   26.8550 H   0  0  0  0  0  0  0  0  0  0  0  0
   10.9700    8.8750   23.3320 H   0  0  0  0  0  0  0  0  0  0  0  0
   10.8260    9.9810   21.9620 H   0  0  0  0  0  0  0  0  0  0  0  0
    9.6470    8.7090   22.1560 H   0  0  0  0  0  0  0  0  0  0  0  0
  1  2  1  0
  2  3  1  0
  3  4  1  0
  3  5  1  0
  5  6  2  0
  5  7  1  0
  7  8  1  0
  8  9  1  0
  9 10  2  0
 10 11  1  0
 10 12  1  0
 12 13  1  0
 12 14  1  0
 14 15  2  0
 15 16  1  0
 15  9  1  0
  1 17  1  0
  1 18  1  0
  1 19  1  0
  2 20  1  0
  2 21  1  0
  3 22  1  1
  4 23  1  0
  8 24  1  0
  8 25  1  0
 13 26  1  0
 13 27  1  0
 13 28  1  0
 16 29  1  0
 16 30  1  0
 16 31  1  0
A    1
 C1 
A    2
 C2 
A    3
 C3 
A    4
 O1 
A    5
 C4 
A    6
 O2 
A    7
 O3 
A    8
 C5 
A    9
 C6 
A   10
 C7 
A   11
CL1 
A   12
 N1 
A   13
 C8 
A   14
 N2 
A   15
 C9 
A   16
 C10
A   17
 H1 
A   18
 H2 
A   19
 H3 
A   20
 H4 
A   21
 H5 
A   22
 H6 
A   23
 H7 
A   24
 H8 
A   25
 H9 
A   26
 H10
A   27
 H11
A   28
 H12
A   29
 H13
A   30
 H14
A   31
 H15
M  END
>  <ref_pdb>  (50) 
x0310_0A

>  <ref_mols>  (50) 
x0310_0A,x0451_0A,x0719_0A

>  <original SMILES>  (50) 
CC[C@@H](O)C(=O)OCc1c(C)nn(C)c1Cl

>  <rationale>  (50) 
info halogenbond:G127+A86+E85+E106+T126+H104+Y64+C65+S87+N129+F83+R93+L131+I82+G128+P91+N19+H21+V84+G133+Y90+Y89+H97+L81+F134+L98+R20+G103+S66+S67+S7+G108+R38+V124+M99+S36; hbond:E88+Q95+A86+C110+D109+G108+G103+G128+G130+L131+N129+N19+H104+R68+V124+R93+P91+F83+S67+S7+S66+G112+G133+V132+R20+Y89+S77+A135+Y63+A92+A101+M99+F134+L100+I82+Y64+S36+L98+V84+L81+Y94+S80+R38+S37+V102+G8+I123+G111+I113+L114+C65+L22+S96; hydroph_interaction:V124+Y90+Y89+E106+D109+N129+D39+N19+L40+I123+A135+Q95+I82+L100+L98+L131+F83+R93+V132+Y63+F134+H104+R20+A86+V74+P91+A101+F76+M99+L114+A92+Y94+R68+Y72+Y64+V18+V102+W28+G127+G128+L81; pication:H104+R93+Y63+F134+Y90+R68+F83+R20; pistack:Y89+Y90+H104+F134+Y63+F83+Y94; saltbridge:H21+R93+H104+E106+D109+E85+E88+R68+R20; 

>  <intxn_cluster>  (50) 
-1

>  <intxn_cluster_rank>  (50) 
-1

>  <N_interactions>  (50) 
6

>  <∆∆G>  (50) 
-9.908491

>  <$/mg>  (50) 
0.0

>  <comRMSD>  (50) 
0.865637

>  <N_rotatable_bonds>  (50) 
8

>  <deep_P1_sidechain>  (50) 
nan

>  <farthest_distance_to_substrate>  (50) 
2.879321

>  <hbond:SER:7>  (50) 
hbond:SER:7    NaN
hbond:SER:7     -1
Name: 49, dtype: object

>  <halogenbond:SER:7>  (50) 
halogenbond:SER:7    NaN
halogenbond:SER:7     -1
Name: 49, dtype: object

>  <hbond:GLY:8>  (50) 
hbond:GLY:8    NaN
hbond:GLY:8     -1
Name: 49, dtype: object

>  <hydroph_interaction:VAL:18>  (50) 
hydroph_interaction:VAL:18    NaN
hydroph_interaction:VAL:18     -1
Name: 49, dtype: object

>  <hbond:ASN:19>  (50) 
hbond:ASN:19    NaN
hbond:ASN:19     -1
Name: 49, dtype: object

>  <hydroph_interaction:ASN:19>  (50) 
hydroph_interaction:ASN:19    NaN
hydroph_interaction:ASN:19     -1
Name: 49, dtype: object

>  <halogenbond:ASN:19>  (50) 
halogenbond:ASN:19    NaN
halogenbond:ASN:19     -1
Name: 49, dtype: object

>  <hbond:ARG:20>  (50) 
hbond:ARG:20    NaN
hbond:ARG:20     -1
Name: 49, dtype: object

>  <hydroph_interaction:ARG:20>  (50) 
hydroph_interaction:ARG:20    NaN
hydroph_interaction:ARG:20     -1
Name: 49, dtype: object

>  <saltbridge:ARG:20>  (50) 
saltbridge:ARG:20    NaN
saltbridge:ARG:20     -1
Name: 49, dtype: object

>  <halogenbond:ARG:20>  (50) 
halogenbond:ARG:20    NaN
halogenbond:ARG:20     -1
Name: 49, dtype: object

>  <pication:ARG:20>  (50) 
pication:ARG:20    NaN
pication:ARG:20     -1
Name: 49, dtype: object

>  <hbond:HIS:21>  (50) 
hbond:HIS:21    0.0
hbond:HIS:21      0
Name: 49, dtype: object

>  <hydroph_interaction:HIS:21>  (50) 
hydroph_interaction:HIS:21    0.0
hydroph_interaction:HIS:21      0
Name: 49, dtype: object

>  <pistack:HIS:21>  (50) 
pistack:HIS:21    0.0
pistack:HIS:21      0
Name: 49, dtype: object

>  <pication:HIS:21>  (50) 
pication:HIS:21    0.0
pication:HIS:21      0
Name: 49, dtype: object

>  <saltbridge:HIS:21>  (50) 
saltbridge:HIS:21    1.0
saltbridge:HIS:21      1
Name: 49, dtype: object

>  <halogenbond:HIS:21>  (50) 
halogenbond:HIS:21    NaN
halogenbond:HIS:21     -1
Name: 49, dtype: object

>  <hydroph_interaction:LEU:22>  (50) 
hydroph_interaction:LEU:22    0.0
hydroph_interaction:LEU:22      0
Name: 49, dtype: object

>  <hbond:LEU:22>  (50) 
hbond:LEU:22    NaN
hbond:LEU:22     -1
Name: 49, dtype: object

>  <hydroph_interaction:TRP:28>  (50) 
hydroph_interaction:TRP:28    NaN
hydroph_interaction:TRP:28     -1
Name: 49, dtype: object

>  <hbond:SER:36>  (50) 
hbond:SER:36    NaN
hbond:SER:36     -1
Name: 49, dtype: object

>  <halogenbond:SER:36>  (50) 
halogenbond:SER:36    NaN
halogenbond:SER:36     -1
Name: 49, dtype: object

>  <hbond:SER:37>  (50) 
hbond:SER:37    NaN
hbond:SER:37     -1
Name: 49, dtype: object

>  <hbond:ARG:38>  (50) 
hbond:ARG:38    NaN
hbond:ARG:38     -1
Name: 49, dtype: object

>  <halogenbond:ARG:38>  (50) 
halogenbond:ARG:38    NaN
halogenbond:ARG:38     -1
Name: 49, dtype: object

>  <saltbridge:ASP:39>  (50) 
saltbridge:ASP:39    0.0
saltbridge:ASP:39      0
Name: 49, dtype: object

>  <halogenbond:ASP:39>  (50) 
halogenbond:ASP:39    0.0
halogenbond:ASP:39      0
Name: 49, dtype: object

>  <hbond:ASP:39>  (50) 
hbond:ASP:39    0.0
hbond:ASP:39      0
Name: 49, dtype: object

>  <hydroph_interaction:ASP:39>  (50) 
hydroph_interaction:ASP:39    NaN
hydroph_interaction:ASP:39     -1
Name: 49, dtype: object

>  <hydroph_interaction:LEU:40>  (50) 
hydroph_interaction:LEU:40    NaN
hydroph_interaction:LEU:40     -1
Name: 49, dtype: object

>  <hydroph_interaction:TYR:63>  (50) 
hydroph_interaction:TYR:63    NaN
hydroph_interaction:TYR:63     -1
Name: 49, dtype: object

>  <hbond:TYR:63>  (50) 
hbond:TYR:63    NaN
hbond:TYR:63     -1
Name: 49, dtype: object

>  <pistack:TYR:63>  (50) 
pistack:TYR:63    NaN
pistack:TYR:63     -1
Name: 49, dtype: object

>  <pication:TYR:63>  (50) 
pication:TYR:63    NaN
pication:TYR:63     -1
Name: 49, dtype: object

>  <halogenbond:TYR:64>  (50) 
halogenbond:TYR:64    NaN
halogenbond:TYR:64     -1
Name: 49, dtype: object

>  <hbond:TYR:64>  (50) 
hbond:TYR:64    NaN
hbond:TYR:64     -1
Name: 49, dtype: object

>  <hydroph_interaction:TYR:64>  (50) 
hydroph_interaction:TYR:64    NaN
hydroph_interaction:TYR:64     -1
Name: 49, dtype: object

>  <halogenbond:CYS:65>  (50) 
halogenbond:CYS:65    NaN
halogenbond:CYS:65     -1
Name: 49, dtype: object

>  <hbond:CYS:65>  (50) 
hbond:CYS:65    NaN
hbond:CYS:65     -1
Name: 49, dtype: object

>  <hbond:SER:66>  (50) 
hbond:SER:66    NaN
hbond:SER:66     -1
Name: 49, dtype: object

>  <halogenbond:SER:66>  (50) 
halogenbond:SER:66    NaN
halogenbond:SER:66     -1
Name: 49, dtype: object

>  <hbond:SER:67>  (50) 
hbond:SER:67    NaN
hbond:SER:67     -1
Name: 49, dtype: object

>  <halogenbond:SER:67>  (50) 
halogenbond:SER:67    NaN
halogenbond:SER:67     -1
Name: 49, dtype: object

>  <hbond:ARG:68>  (50) 
hbond:ARG:68    NaN
hbond:ARG:68     -1
Name: 49, dtype: object

>  <saltbridge:ARG:68>  (50) 
saltbridge:ARG:68    NaN
saltbridge:ARG:68     -1
Name: 49, dtype: object

>  <hydroph_interaction:ARG:68>  (50) 
hydroph_interaction:ARG:68    NaN
hydroph_interaction:ARG:68     -1
Name: 49, dtype: object

>  <pication:ARG:68>  (50) 
pication:ARG:68    NaN
pication:ARG:68     -1
Name: 49, dtype: object

>  <hydroph_interaction:TYR:72>  (50) 
hydroph_interaction:TYR:72    NaN
hydroph_interaction:TYR:72     -1
Name: 49, dtype: object

>  <hydroph_interaction:VAL:74>  (50) 
hydroph_interaction:VAL:74    NaN
hydroph_interaction:VAL:74     -1
Name: 49, dtype: object

>  <hydroph_interaction:PHE:76>  (50) 
hydroph_interaction:PHE:76    NaN
hydroph_interaction:PHE:76     -1
Name: 49, dtype: object

>  <hbond:SER:77>  (50) 
hbond:SER:77    NaN
hbond:SER:77     -1
Name: 49, dtype: object

>  <hbond:SER:80>  (50) 
hbond:SER:80    NaN
hbond:SER:80     -1
Name: 49, dtype: object

>  <hbond:LEU:81>  (50) 
hbond:LEU:81    NaN
hbond:LEU:81     -1
Name: 49, dtype: object

>  <halogenbond:LEU:81>  (50) 
halogenbond:LEU:81    NaN
halogenbond:LEU:81     -1
Name: 49, dtype: object

>  <hydroph_interaction:LEU:81>  (50) 
hydroph_interaction:LEU:81    NaN
hydroph_interaction:LEU:81     -1
Name: 49, dtype: object

>  <hydroph_interaction:ILE:82>  (50) 
hydroph_interaction:ILE:82    NaN
hydroph_interaction:ILE:82     -1
Name: 49, dtype: object

>  <halogenbond:ILE:82>  (50) 
halogenbond:ILE:82    NaN
halogenbond:ILE:82     -1
Name: 49, dtype: object

>  <hbond:ILE:82>  (50) 
hbond:ILE:82    NaN
hbond:ILE:82     -1
Name: 49, dtype: object

>  <hbond:PHE:83>  (50) 
hbond:PHE:83    NaN
hbond:PHE:83     -1
Name: 49, dtype: object

>  <hydroph_interaction:PHE:83>  (50) 
hydroph_interaction:PHE:83    NaN
hydroph_interaction:PHE:83     -1
Name: 49, dtype: object

>  <halogenbond:PHE:83>  (50) 
halogenbond:PHE:83    NaN
halogenbond:PHE:83     -1
Name: 49, dtype: object

>  <pistack:PHE:83>  (50) 
pistack:PHE:83    NaN
pistack:PHE:83     -1
Name: 49, dtype: object

>  <pication:PHE:83>  (50) 
pication:PHE:83    NaN
pication:PHE:83     -1
Name: 49, dtype: object

>  <hydroph_interaction:VAL:84>  (50) 
hydroph_interaction:VAL:84    0.0
hydroph_interaction:VAL:84      0
Name: 49, dtype: object

>  <halogenbond:VAL:84>  (50) 
halogenbond:VAL:84    NaN
halogenbond:VAL:84     -1
Name: 49, dtype: object

>  <hbond:VAL:84>  (50) 
hbond:VAL:84    NaN
hbond:VAL:84     -1
Name: 49, dtype: object

>  <hydroph_interaction:GLU:85>  (50) 
hydroph_interaction:GLU:85    0.0
hydroph_interaction:GLU:85      0
Name: 49, dtype: object

>  <hbond:GLU:85>  (50) 
hbond:GLU:85    0.0
hbond:GLU:85      0
Name: 49, dtype: object

>  <halogenbond:GLU:85>  (50) 
halogenbond:GLU:85    NaN
halogenbond:GLU:85     -1
Name: 49, dtype: object

>  <saltbridge:GLU:85>  (50) 
saltbridge:GLU:85    NaN
saltbridge:GLU:85     -1
Name: 49, dtype: object

>  <halogenbond:ALA:86>  (50) 
halogenbond:ALA:86    NaN
halogenbond:ALA:86     -1
Name: 49, dtype: object

>  <hbond:ALA:86>  (50) 
hbond:ALA:86    NaN
hbond:ALA:86     -1
Name: 49, dtype: object

>  <hydroph_interaction:ALA:86>  (50) 
hydroph_interaction:ALA:86    NaN
hydroph_interaction:ALA:86     -1
Name: 49, dtype: object

>  <hbond:SER:87>  (50) 
hbond:SER:87    0
hbond:SER:87    0
Name: 49, dtype: object

>  <halogenbond:SER:87>  (50) 
halogenbond:SER:87    NaN
halogenbond:SER:87     -1
Name: 49, dtype: object

>  <hbond:GLU:88>  (50) 
hbond:GLU:88    2.0
hbond:GLU:88      2
Name: 49, dtype: object

>  <hydroph_interaction:GLU:88>  (50) 
hydroph_interaction:GLU:88    0.0
hydroph_interaction:GLU:88      0
Name: 49, dtype: object

>  <halogenbond:GLU:88>  (50) 
halogenbond:GLU:88    0.0
halogenbond:GLU:88      0
Name: 49, dtype: object

>  <saltbridge:GLU:88>  (50) 
saltbridge:GLU:88    NaN
saltbridge:GLU:88     -1
Name: 49, dtype: object

>  <hydroph_interaction:TYR:89>  (50) 
hydroph_interaction:TYR:89    1.0
hydroph_interaction:TYR:89      1
Name: 49, dtype: object

>  <pistack:TYR:89>  (50) 
pistack:TYR:89    NaN
pistack:TYR:89     -1
Name: 49, dtype: object

>  <hbond:TYR:89>  (50) 
hbond:TYR:89    NaN
hbond:TYR:89     -1
Name: 49, dtype: object

>  <halogenbond:TYR:89>  (50) 
halogenbond:TYR:89    NaN
halogenbond:TYR:89     -1
Name: 49, dtype: object

>  <hydroph_interaction:TYR:90>  (50) 
hydroph_interaction:TYR:90    1.0
hydroph_interaction:TYR:90      1
Name: 49, dtype: object

>  <hbond:TYR:90>  (50) 
hbond:TYR:90    0.0
hbond:TYR:90      0
Name: 49, dtype: object

>  <pistack:TYR:90>  (50) 
pistack:TYR:90    NaN
pistack:TYR:90     -1
Name: 49, dtype: object

>  <halogenbond:TYR:90>  (50) 
halogenbond:TYR:90    NaN
halogenbond:TYR:90     -1
Name: 49, dtype: object

>  <pication:TYR:90>  (50) 
pication:TYR:90    NaN
pication:TYR:90     -1
Name: 49, dtype: object

>  <hbond:PRO:91>  (50) 
hbond:PRO:91    NaN
hbond:PRO:91     -1
Name: 49, dtype: object

>  <hydroph_interaction:PRO:91>  (50) 
hydroph_interaction:PRO:91    NaN
hydroph_interaction:PRO:91     -1
Name: 49, dtype: object

>  <halogenbond:PRO:91>  (50) 
halogenbond:PRO:91    NaN
halogenbond:PRO:91     -1
Name: 49, dtype: object

>  <hbond:ALA:92>  (50) 
hbond:ALA:92    NaN
hbond:ALA:92     -1
Name: 49, dtype: object

>  <hydroph_interaction:ALA:92>  (50) 
hydroph_interaction:ALA:92    NaN
hydroph_interaction:ALA:92     -1
Name: 49, dtype: object

>  <saltbridge:ARG:93>  (50) 
saltbridge:ARG:93    NaN
saltbridge:ARG:93     -1
Name: 49, dtype: object

>  <hbond:ARG:93>  (50) 
hbond:ARG:93    NaN
hbond:ARG:93     -1
Name: 49, dtype: object

>  <hydroph_interaction:ARG:93>  (50) 
hydroph_interaction:ARG:93    NaN
hydroph_interaction:ARG:93     -1
Name: 49, dtype: object

>  <halogenbond:ARG:93>  (50) 
halogenbond:ARG:93    NaN
halogenbond:ARG:93     -1
Name: 49, dtype: object

>  <pication:ARG:93>  (50) 
pication:ARG:93    NaN
pication:ARG:93     -1
Name: 49, dtype: object

>  <hydroph_interaction:TYR:94>  (50) 
hydroph_interaction:TYR:94    NaN
hydroph_interaction:TYR:94     -1
Name: 49, dtype: object

>  <pistack:TYR:94>  (50) 
pistack:TYR:94    NaN
pistack:TYR:94     -1
Name: 49, dtype: object

>  <hbond:TYR:94>  (50) 
hbond:TYR:94    NaN
hbond:TYR:94     -1
Name: 49, dtype: object

>  <hbond:GLN:95>  (50) 
hbond:GLN:95    NaN
hbond:GLN:95     -1
Name: 49, dtype: object

>  <hydroph_interaction:GLN:95>  (50) 
hydroph_interaction:GLN:95    NaN
hydroph_interaction:GLN:95     -1
Name: 49, dtype: object

>  <halogenbond:GLN:95>  (50) 
halogenbond:GLN:95    0.0
halogenbond:GLN:95      0
Name: 49, dtype: object

>  <hbond:SER:96>  (50) 
hbond:SER:96    NaN
hbond:SER:96     -1
Name: 49, dtype: object

>  <halogenbond:HIS:97>  (50) 
halogenbond:HIS:97    NaN
halogenbond:HIS:97     -1
Name: 49, dtype: object

>  <hydroph_interaction:LEU:98>  (50) 
hydroph_interaction:LEU:98    NaN
hydroph_interaction:LEU:98     -1
Name: 49, dtype: object

>  <hbond:LEU:98>  (50) 
hbond:LEU:98    NaN
hbond:LEU:98     -1
Name: 49, dtype: object

>  <halogenbond:LEU:98>  (50) 
halogenbond:LEU:98    NaN
halogenbond:LEU:98     -1
Name: 49, dtype: object

>  <hbond:MET:99>  (50) 
hbond:MET:99    NaN
hbond:MET:99     -1
Name: 49, dtype: object

>  <hydroph_interaction:MET:99>  (50) 
hydroph_interaction:MET:99    NaN
hydroph_interaction:MET:99     -1
Name: 49, dtype: object

>  <halogenbond:MET:99>  (50) 
halogenbond:MET:99    NaN
halogenbond:MET:99     -1
Name: 49, dtype: object

>  <hydroph_interaction:LEU:100>  (50) 
hydroph_interaction:LEU:100    NaN
hydroph_interaction:LEU:100     -1
Name: 49, dtype: object

>  <hbond:LEU:100>  (50) 
hbond:LEU:100    NaN
hbond:LEU:100     -1
Name: 49, dtype: object

>  <hbond:ALA:101>  (50) 
hbond:ALA:101    NaN
hbond:ALA:101     -1
Name: 49, dtype: object

>  <hydroph_interaction:ALA:101>  (50) 
hydroph_interaction:ALA:101    NaN
hydroph_interaction:ALA:101     -1
Name: 49, dtype: object

>  <hydroph_interaction:VAL:102>  (50) 
hydroph_interaction:VAL:102    NaN
hydroph_interaction:VAL:102     -1
Name: 49, dtype: object

>  <hbond:VAL:102>  (50) 
hbond:VAL:102    NaN
hbond:VAL:102     -1
Name: 49, dtype: object

>  <hbond:GLY:103>  (50) 
hbond:GLY:103    NaN
hbond:GLY:103     -1
Name: 49, dtype: object

>  <halogenbond:GLY:103>  (50) 
halogenbond:GLY:103    NaN
halogenbond:GLY:103     -1
Name: 49, dtype: object

>  <hbond:HIS:104>  (50) 
hbond:HIS:104    NaN
hbond:HIS:104     -1
Name: 49, dtype: object

>  <saltbridge:HIS:104>  (50) 
saltbridge:HIS:104    NaN
saltbridge:HIS:104     -1
Name: 49, dtype: object

>  <pication:HIS:104>  (50) 
pication:HIS:104    NaN
pication:HIS:104     -1
Name: 49, dtype: object

>  <halogenbond:HIS:104>  (50) 
halogenbond:HIS:104    NaN
halogenbond:HIS:104     -1
Name: 49, dtype: object

>  <hydroph_interaction:HIS:104>  (50) 
hydroph_interaction:HIS:104    NaN
hydroph_interaction:HIS:104     -1
Name: 49, dtype: object

>  <pistack:HIS:104>  (50) 
pistack:HIS:104    NaN
pistack:HIS:104     -1
Name: 49, dtype: object

>  <halogenbond:SER:105>  (50) 
halogenbond:SER:105    0.0
halogenbond:SER:105      0
Name: 49, dtype: object

>  <hbond:SER:105>  (50) 
hbond:SER:105    0.0
hbond:SER:105      0
Name: 49, dtype: object

>  <hbond:GLU:106>  (50) 
hbond:GLU:106    0.0
hbond:GLU:106      0
Name: 49, dtype: object

>  <hydroph_interaction:GLU:106>  (50) 
hydroph_interaction:GLU:106    NaN
hydroph_interaction:GLU:106     -1
Name: 49, dtype: object

>  <saltbridge:GLU:106>  (50) 
saltbridge:GLU:106    NaN
saltbridge:GLU:106     -1
Name: 49, dtype: object

>  <halogenbond:GLU:106>  (50) 
halogenbond:GLU:106    NaN
halogenbond:GLU:106     -1
Name: 49, dtype: object

>  <hydroph_interaction:PRO:107>  (50) 
hydroph_interaction:PRO:107    0
hydroph_interaction:PRO:107    0
Name: 49, dtype: object

>  <hbond:PRO:107>  (50) 
hbond:PRO:107    0.0
hbond:PRO:107      0
Name: 49, dtype: object

>  <halogenbond:PRO:107>  (50) 
halogenbond:PRO:107    0.0
halogenbond:PRO:107      0
Name: 49, dtype: object

>  <hbond:GLY:108>  (50) 
hbond:GLY:108    NaN
hbond:GLY:108     -1
Name: 49, dtype: object

>  <halogenbond:GLY:108>  (50) 
halogenbond:GLY:108    NaN
halogenbond:GLY:108     -1
Name: 49, dtype: object

>  <hbond:ASP:109>  (50) 
hbond:ASP:109    NaN
hbond:ASP:109     -1
Name: 49, dtype: object

>  <hydroph_interaction:ASP:109>  (50) 
hydroph_interaction:ASP:109    NaN
hydroph_interaction:ASP:109     -1
Name: 49, dtype: object

>  <saltbridge:ASP:109>  (50) 
saltbridge:ASP:109    NaN
saltbridge:ASP:109     -1
Name: 49, dtype: object

>  <halogenbond:CYS:110>  (50) 
halogenbond:CYS:110    0.0
halogenbond:CYS:110      0
Name: 49, dtype: object

>  <hbond:CYS:110>  (50) 
hbond:CYS:110    NaN
hbond:CYS:110     -1
Name: 49, dtype: object

>  <hbond:GLY:111>  (50) 
hbond:GLY:111    NaN
hbond:GLY:111     -1
Name: 49, dtype: object

>  <hbond:GLY:112>  (50) 
hbond:GLY:112    NaN
hbond:GLY:112     -1
Name: 49, dtype: object

>  <hbond:ILE:113>  (50) 
hbond:ILE:113    NaN
hbond:ILE:113     -1
Name: 49, dtype: object

>  <hydroph_interaction:LEU:114>  (50) 
hydroph_interaction:LEU:114    NaN
hydroph_interaction:LEU:114     -1
Name: 49, dtype: object

>  <hbond:LEU:114>  (50) 
hbond:LEU:114    NaN
hbond:LEU:114     -1
Name: 49, dtype: object

>  <hydroph_interaction:ILE:123>  (50) 
hydroph_interaction:ILE:123    NaN
hydroph_interaction:ILE:123     -1
Name: 49, dtype: object

>  <hbond:ILE:123>  (50) 
hbond:ILE:123    NaN
hbond:ILE:123     -1
Name: 49, dtype: object

>  <hydroph_interaction:VAL:124>  (50) 
hydroph_interaction:VAL:124    1.0
hydroph_interaction:VAL:124      1
Name: 49, dtype: object

>  <hbond:VAL:124>  (50) 
hbond:VAL:124    NaN
hbond:VAL:124     -1
Name: 49, dtype: object

>  <halogenbond:VAL:124>  (50) 
halogenbond:VAL:124    NaN
halogenbond:VAL:124     -1
Name: 49, dtype: object

>  <hbond:SER:125>  (50) 
hbond:SER:125    0
hbond:SER:125    0
Name: 49, dtype: object

>  <halogenbond:SER:125>  (50) 
halogenbond:SER:125    0.0
halogenbond:SER:125      0
Name: 49, dtype: object

>  <hydroph_interaction:THR:126>  (50) 
hydroph_interaction:THR:126    0.0
hydroph_interaction:THR:126      0
Name: 49, dtype: object

>  <hbond:THR:126>  (50) 
hbond:THR:126    0.0
hbond:THR:126      0
Name: 49, dtype: object

>  <halogenbond:THR:126>  (50) 
halogenbond:THR:126    NaN
halogenbond:THR:126     -1
Name: 49, dtype: object

>  <hbond:GLY:127>  (50) 
hbond:GLY:127    0
hbond:GLY:127    0
Name: 49, dtype: object

>  <halogenbond:GLY:127>  (50) 
halogenbond:GLY:127    NaN
halogenbond:GLY:127     -1
Name: 49, dtype: object

>  <hydroph_interaction:GLY:127>  (50) 
hydroph_interaction:GLY:127    NaN
hydroph_interaction:GLY:127     -1
Name: 49, dtype: object

>  <hbond:GLY:128>  (50) 
hbond:GLY:128    NaN
hbond:GLY:128     -1
Name: 49, dtype: object

>  <halogenbond:GLY:128>  (50) 
halogenbond:GLY:128    NaN
halogenbond:GLY:128     -1
Name: 49, dtype: object

>  <hydroph_interaction:GLY:128>  (50) 
hydroph_interaction:GLY:128    NaN
hydroph_interaction:GLY:128     -1
Name: 49, dtype: object

>  <hbond:ASN:129>  (50) 
hbond:ASN:129    NaN
hbond:ASN:129     -1
Name: 49, dtype: object

>  <hydroph_interaction:ASN:129>  (50) 
hydroph_interaction:ASN:129    NaN
hydroph_interaction:ASN:129     -1
Name: 49, dtype: object

>  <halogenbond:ASN:129>  (50) 
halogenbond:ASN:129    NaN
halogenbond:ASN:129     -1
Name: 49, dtype: object

>  <hbond:GLY:130>  (50) 
hbond:GLY:130    NaN
hbond:GLY:130     -1
Name: 49, dtype: object

>  <hbond:LEU:131>  (50) 
hbond:LEU:131    NaN
hbond:LEU:131     -1
Name: 49, dtype: object

>  <hydroph_interaction:LEU:131>  (50) 
hydroph_interaction:LEU:131    NaN
hydroph_interaction:LEU:131     -1
Name: 49, dtype: object

>  <halogenbond:LEU:131>  (50) 
halogenbond:LEU:131    NaN
halogenbond:LEU:131     -1
Name: 49, dtype: object

>  <hydroph_interaction:VAL:132>  (50) 
hydroph_interaction:VAL:132    NaN
hydroph_interaction:VAL:132     -1
Name: 49, dtype: object

>  <hbond:VAL:132>  (50) 
hbond:VAL:132    NaN
hbond:VAL:132     -1
Name: 49, dtype: object

>  <hbond:GLY:133>  (50) 
hbond:GLY:133    NaN
hbond:GLY:133     -1
Name: 49, dtype: object

>  <halogenbond:GLY:133>  (50) 
halogenbond:GLY:133    NaN
halogenbond:GLY:133     -1
Name: 49, dtype: object

>  <hydroph_interaction:PHE:134>  (50) 
hydroph_interaction:PHE:134    NaN
hydroph_interaction:PHE:134     -1
Name: 49, dtype: object

>  <hbond:PHE:134>  (50) 
hbond:PHE:134    NaN
hbond:PHE:134     -1
Name: 49, dtype: object

>  <pistack:PHE:134>  (50) 
pistack:PHE:134    NaN
pistack:PHE:134     -1
Name: 49, dtype: object

>  <pication:PHE:134>  (50) 
pication:PHE:134    NaN
pication:PHE:134     -1
Name: 49, dtype: object

>  <halogenbond:PHE:134>  (50) 
halogenbond:PHE:134    NaN
halogenbond:PHE:134     -1
Name: 49, dtype: object

>  <hydroph_interaction:ALA:135>  (50) 
hydroph_interaction:ALA:135    NaN
hydroph_interaction:ALA:135     -1
Name: 49, dtype: object

>  <hbond:ALA:135>  (50) 
hbond:ALA:135    NaN
hbond:ALA:135     -1
Name: 49, dtype: object

$$$$
Z1022803666
     RDKit          3D

 28 29  0  0  0  0  0  0  0  0999 V2000
   10.1240    8.7100   22.8790 C   0  0  0  0  0  0  0  0  0  0  0  0
    9.6070   10.0220   23.3210 C   0  0  0  0  0  0  0  0  0  0  0  0
    8.6320   10.0810   24.2950 C   0  0  0  0  0  0  0  0  0  0  0  0
    8.1930   11.4870   24.6520 C   0  0  0  0  0  0  0  0  0  0  0  0
    7.1650   11.9010   25.6600 C   0  0  0  0  0  0  0  0  0  0  0  0
    7.1130   13.2410   25.6300 N   0  0  0  0  0  0  0  0  0  0  0  0
    7.9930   13.7690   24.7090 N   0  0  0  0  0  0  0  0  0  0  0  0
    8.6730   12.6860   24.0920 C   0  0  0  0  0  0  0  0  0  0  0  0
    9.7160   12.5230   23.0460 C   0  0  0  0  0  0  0  0  0  0  0  0
   10.3030   13.7070   22.3490 C   0  0  0  0  0  0  0  0  0  0  0  0
    9.5890   14.3870   21.3890 O   0  0  0  0  0  0  0  0  0  0  0  0
   11.5530   14.1130   22.6890 N   0  0  0  0  0  0  0  0  0  0  0  0
   12.3960   14.9260   21.8260 C   0  0  0  0  0  0  0  0  0  0  0  0
   11.8600   14.2050   24.0930 C   0  0  0  0  0  0  0  0  0  0  0  0
   10.1210   11.1970   22.7310 C   0  0  0  0  0  0  0  0  0  0  0  0
   11.1520    8.8080   22.5330 H   0  0  0  0  0  0  0  0  0  0  0  0
   10.1300    8.0380   23.7070 H   0  0  0  0  0  0  0  0  0  0  0  0
    9.5000    8.3290   22.0710 H   0  0  0  0  0  0  0  0  0  0  0  0
    8.1400    9.2770   24.8360 H   0  0  0  0  0  0  0  0  0  0  0  0
    6.5350   11.3340   26.3310 H   0  0  0  0  0  0  0  0  0  0  0  0
    6.5310   13.8710   26.1770 H   0  0  0  0  0  0  0  0  0  0  0  0
   11.9220   15.8760   21.5560 H   0  0  0  0  0  0  0  0  0  0  0  0
   12.5950   14.3700   20.8980 H   0  0  0  0  0  0  0  0  0  0  0  0
   13.3430   15.1180   22.3390 H   0  0  0  0  0  0  0  0  0  0  0  0
   12.6870   13.5200   24.3100 H   0  0  0  0  0  0  0  0  0  0  0  0
   11.0130   13.9310   24.7290 H   0  0  0  0  0  0  0  0  0  0  0  0
   12.1640   15.2360   24.3270 H   0  0  0  0  0  0  0  0  0  0  0  0
   10.8820   11.0820   21.9740 H   0  0  0  0  0  0  0  0  0  0  0  0
  1  2  1  0
  2  3  2  0
  3  4  1  0
  4  5  2  0
  5  6  1  0
  6  7  1  0
  7  8  2  0
  8  9  1  0
  9 10  1  0
 10 11  2  0
 10 12  1  0
 12 13  1  0
 12 14  1  0
  9 15  2  0
 15  2  1  0
  8  4  1  0
  1 16  1  0
  1 17  1  0
  1 18  1  0
  3 19  1  0
  5 20  1  0
  6 21  1  0
 13 22  1  0
 13 23  1  0
 13 24  1  0
 14 25  1  0
 14 26  1  0
 14 27  1  0
 15 28  1  0
A    1
 C1 
A    2
 C2 
A    3
 C3 
A    4
 C4 
A    5
 C5 
A    6
 N1 
A    7
 N2 
A    8
 C6 
A    9
 C7 
A   10
 C8 
A   11
 O1 
A   12
 N3 
A   13
 C9 
A   14
 C10
A   15
 C11
A   16
 H1 
A   17
 H2 
A   18
 H3 
A   19
 H4 
A   20
 H5 
A   21
 H6 
A   22
 H7 
A   23
 H8 
A   24
 H9 
A   25
 H10
A   26
 H11
A   27
 H12
A   28
 H13
M  END
>  <ref_pdb>  (51) 
x0310_0A

>  <ref_mols>  (51) 
x0554_0A,x0739_0A

>  <original SMILES>  (51) 
Cc1cc(C(=O)N(C)C)c2n[nH]cc2c1

>  <rationale>  (51) 
info halogenbond:C110+G127+A86+S125+E85+Q95+E106+E88+T126+P107+H104+Y64+C65+S87+N129+F83+R93+L131+I82+G128+P91+N19+H21+V84+G133+Y90+Y89+H97+L81+F134+L98+R20+G103+S66+S67+S7+G108+R38+V124+M99+S36; hbond:S87+Q95+D39+A86+C110+D109+E85+G108+G103+G128+G130+L131+N129+N19+H104+R68+V124+P91+F83+S67+S7+S66+G112+G133+V132+R20+Y89+S77+A135+Y63+A92+A101+M99+F134+L100+I82+Y64+S36+L98+V84+L81+Y94+S80+R38+S37+V102+G8+I123+G111+I113+L114+C65+L22+S96; hydroph_interaction:V84+V124+E85+E88+D109+N129+L40+I123+A135+Q95+I82+L100+L98+L131+F83+R93+V132+Y63+F134+H104+R20+A86+V74+P91+A101+F76+M99+L114+A92+Y94+R68+Y72+Y64+V18+V102+W28+G127+G128+L81; pication:H104+R93+Y63+F134+Y90+R68+F83+R20; pistack:H21+Y89+Y90+H104+F134+Y63+F83+Y94; saltbridge:D39+R93+H104+E106+D109+E85+E88+R68+R20; 

>  <intxn_cluster>  (51) 
-1

>  <intxn_cluster_rank>  (51) 
-1

>  <N_interactions>  (51) 
2

>  <∆∆G>  (51) 
-12.071066

>  <$/mg>  (51) 
163.0

>  <comRMSD>  (51) 
0.725752

>  <N_rotatable_bonds>  (51) 
4

>  <deep_P1_sidechain>  (51) 
nan

>  <farthest_distance_to_substrate>  (51) 
2.358605

>  <hbond:SER:7>  (51) 
hbond:SER:7    NaN
hbond:SER:7     -1
Name: 50, dtype: object

>  <halogenbond:SER:7>  (51) 
halogenbond:SER:7    NaN
halogenbond:SER:7     -1
Name: 50, dtype: object

>  <hbond:GLY:8>  (51) 
hbond:GLY:8    NaN
hbond:GLY:8     -1
Name: 50, dtype: object

>  <hydroph_interaction:VAL:18>  (51) 
hydroph_interaction:VAL:18    NaN
hydroph_interaction:VAL:18     -1
Name: 50, dtype: object

>  <hbond:ASN:19>  (51) 
hbond:ASN:19    NaN
hbond:ASN:19     -1
Name: 50, dtype: object

>  <hydroph_interaction:ASN:19>  (51) 
hydroph_interaction:ASN:19    0.0
hydroph_interaction:ASN:19      0
Name: 50, dtype: object

>  <halogenbond:ASN:19>  (51) 
halogenbond:ASN:19    NaN
halogenbond:ASN:19     -1
Name: 50, dtype: object

>  <hbond:ARG:20>  (51) 
hbond:ARG:20    NaN
hbond:ARG:20     -1
Name: 50, dtype: object

>  <hydroph_interaction:ARG:20>  (51) 
hydroph_interaction:ARG:20    NaN
hydroph_interaction:ARG:20     -1
Name: 50, dtype: object

>  <saltbridge:ARG:20>  (51) 
saltbridge:ARG:20    NaN
saltbridge:ARG:20     -1
Name: 50, dtype: object

>  <halogenbond:ARG:20>  (51) 
halogenbond:ARG:20    NaN
halogenbond:ARG:20     -1
Name: 50, dtype: object

>  <pication:ARG:20>  (51) 
pication:ARG:20    NaN
pication:ARG:20     -1
Name: 50, dtype: object

>  <hbond:HIS:21>  (51) 
hbond:HIS:21    0.0
hbond:HIS:21      0
Name: 50, dtype: object

>  <hydroph_interaction:HIS:21>  (51) 
hydroph_interaction:HIS:21    0.0
hydroph_interaction:HIS:21      0
Name: 50, dtype: object

>  <pistack:HIS:21>  (51) 
pistack:HIS:21    NaN
pistack:HIS:21     -1
Name: 50, dtype: object

>  <pication:HIS:21>  (51) 
pication:HIS:21    0.0
pication:HIS:21      0
Name: 50, dtype: object

>  <saltbridge:HIS:21>  (51) 
saltbridge:HIS:21    0.0
saltbridge:HIS:21      0
Name: 50, dtype: object

>  <halogenbond:HIS:21>  (51) 
halogenbond:HIS:21    NaN
halogenbond:HIS:21     -1
Name: 50, dtype: object

>  <hydroph_interaction:LEU:22>  (51) 
hydroph_interaction:LEU:22    0.0
hydroph_interaction:LEU:22      0
Name: 50, dtype: object

>  <hbond:LEU:22>  (51) 
hbond:LEU:22    NaN
hbond:LEU:22     -1
Name: 50, dtype: object

>  <hydroph_interaction:TRP:28>  (51) 
hydroph_interaction:TRP:28    NaN
hydroph_interaction:TRP:28     -1
Name: 50, dtype: object

>  <hbond:SER:36>  (51) 
hbond:SER:36    NaN
hbond:SER:36     -1
Name: 50, dtype: object

>  <halogenbond:SER:36>  (51) 
halogenbond:SER:36    NaN
halogenbond:SER:36     -1
Name: 50, dtype: object

>  <hbond:SER:37>  (51) 
hbond:SER:37    NaN
hbond:SER:37     -1
Name: 50, dtype: object

>  <hbond:ARG:38>  (51) 
hbond:ARG:38    NaN
hbond:ARG:38     -1
Name: 50, dtype: object

>  <halogenbond:ARG:38>  (51) 
halogenbond:ARG:38    NaN
halogenbond:ARG:38     -1
Name: 50, dtype: object

>  <saltbridge:ASP:39>  (51) 
saltbridge:ASP:39    NaN
saltbridge:ASP:39     -1
Name: 50, dtype: object

>  <halogenbond:ASP:39>  (51) 
halogenbond:ASP:39    0.0
halogenbond:ASP:39      0
Name: 50, dtype: object

>  <hbond:ASP:39>  (51) 
hbond:ASP:39    NaN
hbond:ASP:39     -1
Name: 50, dtype: object

>  <hydroph_interaction:ASP:39>  (51) 
hydroph_interaction:ASP:39    0.0
hydroph_interaction:ASP:39      0
Name: 50, dtype: object

>  <hydroph_interaction:LEU:40>  (51) 
hydroph_interaction:LEU:40    NaN
hydroph_interaction:LEU:40     -1
Name: 50, dtype: object

>  <hydroph_interaction:TYR:63>  (51) 
hydroph_interaction:TYR:63    NaN
hydroph_interaction:TYR:63     -1
Name: 50, dtype: object

>  <hbond:TYR:63>  (51) 
hbond:TYR:63    NaN
hbond:TYR:63     -1
Name: 50, dtype: object

>  <pistack:TYR:63>  (51) 
pistack:TYR:63    NaN
pistack:TYR:63     -1
Name: 50, dtype: object

>  <pication:TYR:63>  (51) 
pication:TYR:63    NaN
pication:TYR:63     -1
Name: 50, dtype: object

>  <halogenbond:TYR:64>  (51) 
halogenbond:TYR:64    NaN
halogenbond:TYR:64     -1
Name: 50, dtype: object

>  <hbond:TYR:64>  (51) 
hbond:TYR:64    NaN
hbond:TYR:64     -1
Name: 50, dtype: object

>  <hydroph_interaction:TYR:64>  (51) 
hydroph_interaction:TYR:64    NaN
hydroph_interaction:TYR:64     -1
Name: 50, dtype: object

>  <halogenbond:CYS:65>  (51) 
halogenbond:CYS:65    NaN
halogenbond:CYS:65     -1
Name: 50, dtype: object

>  <hbond:CYS:65>  (51) 
hbond:CYS:65    NaN
hbond:CYS:65     -1
Name: 50, dtype: object

>  <hbond:SER:66>  (51) 
hbond:SER:66    NaN
hbond:SER:66     -1
Name: 50, dtype: object

>  <halogenbond:SER:66>  (51) 
halogenbond:SER:66    NaN
halogenbond:SER:66     -1
Name: 50, dtype: object

>  <hbond:SER:67>  (51) 
hbond:SER:67    NaN
hbond:SER:67     -1
Name: 50, dtype: object

>  <halogenbond:SER:67>  (51) 
halogenbond:SER:67    NaN
halogenbond:SER:67     -1
Name: 50, dtype: object

>  <hbond:ARG:68>  (51) 
hbond:ARG:68    NaN
hbond:ARG:68     -1
Name: 50, dtype: object

>  <saltbridge:ARG:68>  (51) 
saltbridge:ARG:68    NaN
saltbridge:ARG:68     -1
Name: 50, dtype: object

>  <hydroph_interaction:ARG:68>  (51) 
hydroph_interaction:ARG:68    NaN
hydroph_interaction:ARG:68     -1
Name: 50, dtype: object

>  <pication:ARG:68>  (51) 
pication:ARG:68    NaN
pication:ARG:68     -1
Name: 50, dtype: object

>  <hydroph_interaction:TYR:72>  (51) 
hydroph_interaction:TYR:72    NaN
hydroph_interaction:TYR:72     -1
Name: 50, dtype: object

>  <hydroph_interaction:VAL:74>  (51) 
hydroph_interaction:VAL:74    NaN
hydroph_interaction:VAL:74     -1
Name: 50, dtype: object

>  <hydroph_interaction:PHE:76>  (51) 
hydroph_interaction:PHE:76    NaN
hydroph_interaction:PHE:76     -1
Name: 50, dtype: object

>  <hbond:SER:77>  (51) 
hbond:SER:77    NaN
hbond:SER:77     -1
Name: 50, dtype: object

>  <hbond:SER:80>  (51) 
hbond:SER:80    NaN
hbond:SER:80     -1
Name: 50, dtype: object

>  <hbond:LEU:81>  (51) 
hbond:LEU:81    NaN
hbond:LEU:81     -1
Name: 50, dtype: object

>  <halogenbond:LEU:81>  (51) 
halogenbond:LEU:81    NaN
halogenbond:LEU:81     -1
Name: 50, dtype: object

>  <hydroph_interaction:LEU:81>  (51) 
hydroph_interaction:LEU:81    NaN
hydroph_interaction:LEU:81     -1
Name: 50, dtype: object

>  <hydroph_interaction:ILE:82>  (51) 
hydroph_interaction:ILE:82    NaN
hydroph_interaction:ILE:82     -1
Name: 50, dtype: object

>  <halogenbond:ILE:82>  (51) 
halogenbond:ILE:82    NaN
halogenbond:ILE:82     -1
Name: 50, dtype: object

>  <hbond:ILE:82>  (51) 
hbond:ILE:82    NaN
hbond:ILE:82     -1
Name: 50, dtype: object

>  <hbond:PHE:83>  (51) 
hbond:PHE:83    NaN
hbond:PHE:83     -1
Name: 50, dtype: object

>  <hydroph_interaction:PHE:83>  (51) 
hydroph_interaction:PHE:83    NaN
hydroph_interaction:PHE:83     -1
Name: 50, dtype: object

>  <halogenbond:PHE:83>  (51) 
halogenbond:PHE:83    NaN
halogenbond:PHE:83     -1
Name: 50, dtype: object

>  <pistack:PHE:83>  (51) 
pistack:PHE:83    NaN
pistack:PHE:83     -1
Name: 50, dtype: object

>  <pication:PHE:83>  (51) 
pication:PHE:83    NaN
pication:PHE:83     -1
Name: 50, dtype: object

>  <hydroph_interaction:VAL:84>  (51) 
hydroph_interaction:VAL:84    NaN
hydroph_interaction:VAL:84     -1
Name: 50, dtype: object

>  <halogenbond:VAL:84>  (51) 
halogenbond:VAL:84    NaN
halogenbond:VAL:84     -1
Name: 50, dtype: object

>  <hbond:VAL:84>  (51) 
hbond:VAL:84    NaN
hbond:VAL:84     -1
Name: 50, dtype: object

>  <hydroph_interaction:GLU:85>  (51) 
hydroph_interaction:GLU:85    NaN
hydroph_interaction:GLU:85     -1
Name: 50, dtype: object

>  <hbond:GLU:85>  (51) 
hbond:GLU:85    NaN
hbond:GLU:85     -1
Name: 50, dtype: object

>  <halogenbond:GLU:85>  (51) 
halogenbond:GLU:85    NaN
halogenbond:GLU:85     -1
Name: 50, dtype: object

>  <saltbridge:GLU:85>  (51) 
saltbridge:GLU:85    NaN
saltbridge:GLU:85     -1
Name: 50, dtype: object

>  <halogenbond:ALA:86>  (51) 
halogenbond:ALA:86    NaN
halogenbond:ALA:86     -1
Name: 50, dtype: object

>  <hbond:ALA:86>  (51) 
hbond:ALA:86    NaN
hbond:ALA:86     -1
Name: 50, dtype: object

>  <hydroph_interaction:ALA:86>  (51) 
hydroph_interaction:ALA:86    NaN
hydroph_interaction:ALA:86     -1
Name: 50, dtype: object

>  <hbond:SER:87>  (51) 
hbond:SER:87    1
hbond:SER:87    1
Name: 50, dtype: object

>  <halogenbond:SER:87>  (51) 
halogenbond:SER:87    NaN
halogenbond:SER:87     -1
Name: 50, dtype: object

>  <hbond:GLU:88>  (51) 
hbond:GLU:88    0.0
hbond:GLU:88      0
Name: 50, dtype: object

>  <hydroph_interaction:GLU:88>  (51) 
hydroph_interaction:GLU:88    NaN
hydroph_interaction:GLU:88     -1
Name: 50, dtype: object

>  <halogenbond:GLU:88>  (51) 
halogenbond:GLU:88    NaN
halogenbond:GLU:88     -1
Name: 50, dtype: object

>  <saltbridge:GLU:88>  (51) 
saltbridge:GLU:88    NaN
saltbridge:GLU:88     -1
Name: 50, dtype: object

>  <hydroph_interaction:TYR:89>  (51) 
hydroph_interaction:TYR:89    0.0
hydroph_interaction:TYR:89      0
Name: 50, dtype: object

>  <pistack:TYR:89>  (51) 
pistack:TYR:89    NaN
pistack:TYR:89     -1
Name: 50, dtype: object

>  <hbond:TYR:89>  (51) 
hbond:TYR:89    NaN
hbond:TYR:89     -1
Name: 50, dtype: object

>  <halogenbond:TYR:89>  (51) 
halogenbond:TYR:89    NaN
halogenbond:TYR:89     -1
Name: 50, dtype: object

>  <hydroph_interaction:TYR:90>  (51) 
hydroph_interaction:TYR:90    0.0
hydroph_interaction:TYR:90      0
Name: 50, dtype: object

>  <hbond:TYR:90>  (51) 
hbond:TYR:90    0.0
hbond:TYR:90      0
Name: 50, dtype: object

>  <pistack:TYR:90>  (51) 
pistack:TYR:90    NaN
pistack:TYR:90     -1
Name: 50, dtype: object

>  <halogenbond:TYR:90>  (51) 
halogenbond:TYR:90    NaN
halogenbond:TYR:90     -1
Name: 50, dtype: object

>  <pication:TYR:90>  (51) 
pication:TYR:90    NaN
pication:TYR:90     -1
Name: 50, dtype: object

>  <hbond:PRO:91>  (51) 
hbond:PRO:91    NaN
hbond:PRO:91     -1
Name: 50, dtype: object

>  <hydroph_interaction:PRO:91>  (51) 
hydroph_interaction:PRO:91    NaN
hydroph_interaction:PRO:91     -1
Name: 50, dtype: object

>  <halogenbond:PRO:91>  (51) 
halogenbond:PRO:91    NaN
halogenbond:PRO:91     -1
Name: 50, dtype: object

>  <hbond:ALA:92>  (51) 
hbond:ALA:92    NaN
hbond:ALA:92     -1
Name: 50, dtype: object

>  <hydroph_interaction:ALA:92>  (51) 
hydroph_interaction:ALA:92    NaN
hydroph_interaction:ALA:92     -1
Name: 50, dtype: object

>  <saltbridge:ARG:93>  (51) 
saltbridge:ARG:93    NaN
saltbridge:ARG:93     -1
Name: 50, dtype: object

>  <hbond:ARG:93>  (51) 
hbond:ARG:93    0.0
hbond:ARG:93      0
Name: 50, dtype: object

>  <hydroph_interaction:ARG:93>  (51) 
hydroph_interaction:ARG:93    NaN
hydroph_interaction:ARG:93     -1
Name: 50, dtype: object

>  <halogenbond:ARG:93>  (51) 
halogenbond:ARG:93    NaN
halogenbond:ARG:93     -1
Name: 50, dtype: object

>  <pication:ARG:93>  (51) 
pication:ARG:93    NaN
pication:ARG:93     -1
Name: 50, dtype: object

>  <hydroph_interaction:TYR:94>  (51) 
hydroph_interaction:TYR:94    NaN
hydroph_interaction:TYR:94     -1
Name: 50, dtype: object

>  <pistack:TYR:94>  (51) 
pistack:TYR:94    NaN
pistack:TYR:94     -1
Name: 50, dtype: object

>  <hbond:TYR:94>  (51) 
hbond:TYR:94    NaN
hbond:TYR:94     -1
Name: 50, dtype: object

>  <hbond:GLN:95>  (51) 
hbond:GLN:95    NaN
hbond:GLN:95     -1
Name: 50, dtype: object

>  <hydroph_interaction:GLN:95>  (51) 
hydroph_interaction:GLN:95    NaN
hydroph_interaction:GLN:95     -1
Name: 50, dtype: object

>  <halogenbond:GLN:95>  (51) 
halogenbond:GLN:95    NaN
halogenbond:GLN:95     -1
Name: 50, dtype: object

>  <hbond:SER:96>  (51) 
hbond:SER:96    NaN
hbond:SER:96     -1
Name: 50, dtype: object

>  <halogenbond:HIS:97>  (51) 
halogenbond:HIS:97    NaN
halogenbond:HIS:97     -1
Name: 50, dtype: object

>  <hydroph_interaction:LEU:98>  (51) 
hydroph_interaction:LEU:98    NaN
hydroph_interaction:LEU:98     -1
Name: 50, dtype: object

>  <hbond:LEU:98>  (51) 
hbond:LEU:98    NaN
hbond:LEU:98     -1
Name: 50, dtype: object

>  <halogenbond:LEU:98>  (51) 
halogenbond:LEU:98    NaN
halogenbond:LEU:98     -1
Name: 50, dtype: object

>  <hbond:MET:99>  (51) 
hbond:MET:99    NaN
hbond:MET:99     -1
Name: 50, dtype: object

>  <hydroph_interaction:MET:99>  (51) 
hydroph_interaction:MET:99    NaN
hydroph_interaction:MET:99     -1
Name: 50, dtype: object

>  <halogenbond:MET:99>  (51) 
halogenbond:MET:99    NaN
halogenbond:MET:99     -1
Name: 50, dtype: object

>  <hydroph_interaction:LEU:100>  (51) 
hydroph_interaction:LEU:100    NaN
hydroph_interaction:LEU:100     -1
Name: 50, dtype: object

>  <hbond:LEU:100>  (51) 
hbond:LEU:100    NaN
hbond:LEU:100     -1
Name: 50, dtype: object

>  <hbond:ALA:101>  (51) 
hbond:ALA:101    NaN
hbond:ALA:101     -1
Name: 50, dtype: object

>  <hydroph_interaction:ALA:101>  (51) 
hydroph_interaction:ALA:101    NaN
hydroph_interaction:ALA:101     -1
Name: 50, dtype: object

>  <hydroph_interaction:VAL:102>  (51) 
hydroph_interaction:VAL:102    NaN
hydroph_interaction:VAL:102     -1
Name: 50, dtype: object

>  <hbond:VAL:102>  (51) 
hbond:VAL:102    NaN
hbond:VAL:102     -1
Name: 50, dtype: object

>  <hbond:GLY:103>  (51) 
hbond:GLY:103    NaN
hbond:GLY:103     -1
Name: 50, dtype: object

>  <halogenbond:GLY:103>  (51) 
halogenbond:GLY:103    NaN
halogenbond:GLY:103     -1
Name: 50, dtype: object

>  <hbond:HIS:104>  (51) 
hbond:HIS:104    NaN
hbond:HIS:104     -1
Name: 50, dtype: object

>  <saltbridge:HIS:104>  (51) 
saltbridge:HIS:104    NaN
saltbridge:HIS:104     -1
Name: 50, dtype: object

>  <pication:HIS:104>  (51) 
pication:HIS:104    NaN
pication:HIS:104     -1
Name: 50, dtype: object

>  <halogenbond:HIS:104>  (51) 
halogenbond:HIS:104    NaN
halogenbond:HIS:104     -1
Name: 50, dtype: object

>  <hydroph_interaction:HIS:104>  (51) 
hydroph_interaction:HIS:104    NaN
hydroph_interaction:HIS:104     -1
Name: 50, dtype: object

>  <pistack:HIS:104>  (51) 
pistack:HIS:104    NaN
pistack:HIS:104     -1
Name: 50, dtype: object

>  <halogenbond:SER:105>  (51) 
halogenbond:SER:105    0.0
halogenbond:SER:105      0
Name: 50, dtype: object

>  <hbond:SER:105>  (51) 
hbond:SER:105    0.0
hbond:SER:105      0
Name: 50, dtype: object

>  <hbond:GLU:106>  (51) 
hbond:GLU:106    0.0
hbond:GLU:106      0
Name: 50, dtype: object

>  <hydroph_interaction:GLU:106>  (51) 
hydroph_interaction:GLU:106    0.0
hydroph_interaction:GLU:106      0
Name: 50, dtype: object

>  <saltbridge:GLU:106>  (51) 
saltbridge:GLU:106    NaN
saltbridge:GLU:106     -1
Name: 50, dtype: object

>  <halogenbond:GLU:106>  (51) 
halogenbond:GLU:106    NaN
halogenbond:GLU:106     -1
Name: 50, dtype: object

>  <hydroph_interaction:PRO:107>  (51) 
hydroph_interaction:PRO:107    0
hydroph_interaction:PRO:107    0
Name: 50, dtype: object

>  <hbond:PRO:107>  (51) 
hbond:PRO:107    0.0
hbond:PRO:107      0
Name: 50, dtype: object

>  <halogenbond:PRO:107>  (51) 
halogenbond:PRO:107    NaN
halogenbond:PRO:107     -1
Name: 50, dtype: object

>  <hbond:GLY:108>  (51) 
hbond:GLY:108    NaN
hbond:GLY:108     -1
Name: 50, dtype: object

>  <halogenbond:GLY:108>  (51) 
halogenbond:GLY:108    NaN
halogenbond:GLY:108     -1
Name: 50, dtype: object

>  <hbond:ASP:109>  (51) 
hbond:ASP:109    NaN
hbond:ASP:109     -1
Name: 50, dtype: object

>  <hydroph_interaction:ASP:109>  (51) 
hydroph_interaction:ASP:109    NaN
hydroph_interaction:ASP:109     -1
Name: 50, dtype: object

>  <saltbridge:ASP:109>  (51) 
saltbridge:ASP:109    NaN
saltbridge:ASP:109     -1
Name: 50, dtype: object

>  <halogenbond:CYS:110>  (51) 
halogenbond:CYS:110    NaN
halogenbond:CYS:110     -1
Name: 50, dtype: object

>  <hbond:CYS:110>  (51) 
hbond:CYS:110    NaN
hbond:CYS:110     -1
Name: 50, dtype: object

>  <hbond:GLY:111>  (51) 
hbond:GLY:111    NaN
hbond:GLY:111     -1
Name: 50, dtype: object

>  <hbond:GLY:112>  (51) 
hbond:GLY:112    NaN
hbond:GLY:112     -1
Name: 50, dtype: object

>  <hbond:ILE:113>  (51) 
hbond:ILE:113    NaN
hbond:ILE:113     -1
Name: 50, dtype: object

>  <hydroph_interaction:LEU:114>  (51) 
hydroph_interaction:LEU:114    NaN
hydroph_interaction:LEU:114     -1
Name: 50, dtype: object

>  <hbond:LEU:114>  (51) 
hbond:LEU:114    NaN
hbond:LEU:114     -1
Name: 50, dtype: object

>  <hydroph_interaction:ILE:123>  (51) 
hydroph_interaction:ILE:123    NaN
hydroph_interaction:ILE:123     -1
Name: 50, dtype: object

>  <hbond:ILE:123>  (51) 
hbond:ILE:123    NaN
hbond:ILE:123     -1
Name: 50, dtype: object

>  <hydroph_interaction:VAL:124>  (51) 
hydroph_interaction:VAL:124    1.0
hydroph_interaction:VAL:124      1
Name: 50, dtype: object

>  <hbond:VAL:124>  (51) 
hbond:VAL:124    NaN
hbond:VAL:124     -1
Name: 50, dtype: object

>  <halogenbond:VAL:124>  (51) 
halogenbond:VAL:124    NaN
halogenbond:VAL:124     -1
Name: 50, dtype: object

>  <hbond:SER:125>  (51) 
hbond:SER:125    0
hbond:SER:125    0
Name: 50, dtype: object

>  <halogenbond:SER:125>  (51) 
halogenbond:SER:125    NaN
halogenbond:SER:125     -1
Name: 50, dtype: object

>  <hydroph_interaction:THR:126>  (51) 
hydroph_interaction:THR:126    0.0
hydroph_interaction:THR:126      0
Name: 50, dtype: object

>  <hbond:THR:126>  (51) 
hbond:THR:126    0.0
hbond:THR:126      0
Name: 50, dtype: object

>  <halogenbond:THR:126>  (51) 
halogenbond:THR:126    NaN
halogenbond:THR:126     -1
Name: 50, dtype: object

>  <hbond:GLY:127>  (51) 
hbond:GLY:127    0
hbond:GLY:127    0
Name: 50, dtype: object

>  <halogenbond:GLY:127>  (51) 
halogenbond:GLY:127    NaN
halogenbond:GLY:127     -1
Name: 50, dtype: object

>  <hydroph_interaction:GLY:127>  (51) 
hydroph_interaction:GLY:127    NaN
hydroph_interaction:GLY:127     -1
Name: 50, dtype: object

>  <hbond:GLY:128>  (51) 
hbond:GLY:128    NaN
hbond:GLY:128     -1
Name: 50, dtype: object

>  <halogenbond:GLY:128>  (51) 
halogenbond:GLY:128    NaN
halogenbond:GLY:128     -1
Name: 50, dtype: object

>  <hydroph_interaction:GLY:128>  (51) 
hydroph_interaction:GLY:128    NaN
hydroph_interaction:GLY:128     -1
Name: 50, dtype: object

>  <hbond:ASN:129>  (51) 
hbond:ASN:129    NaN
hbond:ASN:129     -1
Name: 50, dtype: object

>  <hydroph_interaction:ASN:129>  (51) 
hydroph_interaction:ASN:129    NaN
hydroph_interaction:ASN:129     -1
Name: 50, dtype: object

>  <halogenbond:ASN:129>  (51) 
halogenbond:ASN:129    NaN
halogenbond:ASN:129     -1
Name: 50, dtype: object

>  <hbond:GLY:130>  (51) 
hbond:GLY:130    NaN
hbond:GLY:130     -1
Name: 50, dtype: object

>  <hbond:LEU:131>  (51) 
hbond:LEU:131    NaN
hbond:LEU:131     -1
Name: 50, dtype: object

>  <hydroph_interaction:LEU:131>  (51) 
hydroph_interaction:LEU:131    NaN
hydroph_interaction:LEU:131     -1
Name: 50, dtype: object

>  <halogenbond:LEU:131>  (51) 
halogenbond:LEU:131    NaN
halogenbond:LEU:131     -1
Name: 50, dtype: object

>  <hydroph_interaction:VAL:132>  (51) 
hydroph_interaction:VAL:132    NaN
hydroph_interaction:VAL:132     -1
Name: 50, dtype: object

>  <hbond:VAL:132>  (51) 
hbond:VAL:132    NaN
hbond:VAL:132     -1
Name: 50, dtype: object

>  <hbond:GLY:133>  (51) 
hbond:GLY:133    NaN
hbond:GLY:133     -1
Name: 50, dtype: object

>  <halogenbond:GLY:133>  (51) 
halogenbond:GLY:133    NaN
halogenbond:GLY:133     -1
Name: 50, dtype: object

>  <hydroph_interaction:PHE:134>  (51) 
hydroph_interaction:PHE:134    NaN
hydroph_interaction:PHE:134     -1
Name: 50, dtype: object

>  <hbond:PHE:134>  (51) 
hbond:PHE:134    NaN
hbond:PHE:134     -1
Name: 50, dtype: object

>  <pistack:PHE:134>  (51) 
pistack:PHE:134    NaN
pistack:PHE:134     -1
Name: 50, dtype: object

>  <pication:PHE:134>  (51) 
pication:PHE:134    NaN
pication:PHE:134     -1
Name: 50, dtype: object

>  <halogenbond:PHE:134>  (51) 
halogenbond:PHE:134    NaN
halogenbond:PHE:134     -1
Name: 50, dtype: object

>  <hydroph_interaction:ALA:135>  (51) 
hydroph_interaction:ALA:135    NaN
hydroph_interaction:ALA:135     -1
Name: 50, dtype: object

>  <hbond:ALA:135>  (51) 
hbond:ALA:135    NaN
hbond:ALA:135     -1
Name: 50, dtype: object

$$$$
PV_002713694213
     RDKit          3D

 26 27  0  0  0  0  0  0  0  0999 V2000
   12.2290   14.5030   20.7390 C   0  0  0  0  0  0  0  0  0  0  0  0
   11.7000   14.7980   22.0450 N   0  0  0  0  0  0  0  0  0  0  0  0
   11.4660   13.7750   22.9510 C   0  0  0  0  0  0  0  0  0  0  0  0
   11.9960   13.7430   24.0560 O   0  0  0  0  0  0  0  0  0  0  0  0
   10.5730   12.8470   22.4340 N   0  0  0  0  0  0  0  0  0  0  0  0
    9.7210   12.0230   23.2180 C   0  0  0  0  0  0  0  0  0  0  0  0
    8.7800   12.5510   24.1210 C   0  0  0  0  0  0  0  0  0  0  0  0
    8.4490   13.8380   24.4650 N   0  0  0  0  0  0  0  0  0  0  0  0
    7.4800   13.8130   25.3780 N   0  0  0  0  0  0  0  0  0  0  0  0
    7.1920   12.5340   25.6180 N   0  0  0  0  0  0  0  0  0  0  0  0
    7.9620   11.7100   24.8730 C   0  0  0  0  0  0  0  0  0  0  0  0
    8.0380   10.3580   24.7690 C   0  0  0  0  0  0  0  0  0  0  0  0
    8.9400    9.8200   23.8960 C   0  0  0  0  0  0  0  0  0  0  0  0
    9.7710   10.6020   23.1250 C   0  0  0  0  0  0  0  0  0  0  0  0
   10.5140    9.5070   22.3690 C   0  0  0  0  0  0  0  0  0  0  0  0
   11.4410   14.5250   19.9810 H   0  0  0  0  0  0  0  0  0  0  0  0
   12.6760   13.5090   20.7540 H   0  0  0  0  0  0  0  0  0  0  0  0
   13.0060   15.2260   20.4710 H   0  0  0  0  0  0  0  0  0  0  0  0
   11.2050   15.6770   22.1390 H   0  0  0  0  0  0  0  0  0  0  0  0
   10.8440   12.5110   21.5130 H   0  0  0  0  0  0  0  0  0  0  0  0
    6.4700   12.3080   26.2920 H   0  0  0  0  0  0  0  0  0  0  0  0
    7.3990    9.7270   25.3580 H   0  0  0  0  0  0  0  0  0  0  0  0
    8.9940    8.7670   23.8180 H   0  0  0  0  0  0  0  0  0  0  0  0
   11.0770    9.6810   21.4800 H   0  0  0  0  0  0  0  0  0  0  0  0
   11.2050    8.9980   23.0550 H   0  0  0  0  0  0  0  0  0  0  0  0
    9.7740    8.7490   22.1040 H   0  0  0  0  0  0  0  0  0  0  0  0
  1  2  1  0
  2  3  1  0
  3  4  2  0
  3  5  1  0
  5  6  1  0
  6  7  2  0
  7  8  1  0
  8  9  2  0
  9 10  1  0
 10 11  1  0
 11 12  2  0
 12 13  1  0
 13 14  2  0
 14 15  1  0
 14  6  1  0
 11  7  1  0
  1 16  1  0
  1 17  1  0
  1 18  1  0
  2 19  1  0
  5 20  1  0
 10 21  1  0
 12 22  1  0
 13 23  1  0
 15 24  1  0
 15 25  1  0
 15 26  1  0
A    1
 C1 
A    2
 N1 
A    3
 C2 
A    4
 O1 
A    5
 N2 
A    6
 C3 
A    7
 C4 
A    8
 N3 
A    9
 N4 
A   10
 N5 
A   11
 C5 
A   12
 C6 
A   13
 C7 
A   14
 C8 
A   15
 C9 
A   16
 H1 
A   17
 H2 
A   18
 H3 
A   19
 H4 
A   20
 H5 
A   21
 H6 
A   22
 H7 
A   23
 H8 
A   24
 H9 
A   25
 H10
A   26
 H11
M  END
>  <ref_pdb>  (52) 
x0310_0A

>  <ref_mols>  (52) 
x0554_0A,x0922_0A

>  <original SMILES>  (52) 
CNC(=O)Nc1c(C)ccc2[nH]nnc12

>  <rationale>  (52) 
info halogenbond:C110+G127+A86+S125+E85+Q95+E106+E88+T126+P107+H104+Y64+C65+S87+N129+F83+R93+L131+I82+G128+P91+N19+H21+V84+G133+Y90+Y89+H97+L81+F134+L98+R20+G103+S66+S67+S7+G108+R38+V124+M99+S36; hbond:S87+S125+Y90+Q95+T126+C110+D109+E85+G108+G103+G128+G130+L131+N129+N19+H104+R68+V124+R93+P91+F83+S67+S7+S66+G112+G133+V132+R20+Y89+S77+A135+Y63+A92+A101+M99+F134+L100+I82+Y64+S36+L98+V84+L81+Y94+S80+R38+S37+V102+G8+I123+G111+I113+L114+C65+L22+S96; hydroph_interaction:V84+V124+T126+L22+E85+E106+E88+D109+N129+L40+I123+A135+Q95+I82+L100+L98+L131+F83+R93+V132+Y63+F134+H104+R20+A86+V74+P91+A101+F76+M99+L114+A92+Y94+R68+Y72+Y64+V18+V102+W28+G127+G128+L81; pication:H21+H104+R93+Y63+F134+Y90+R68+F83+R20; pistack:H21+Y89+Y90+H104+F134+Y63+F83+Y94; saltbridge:D39+R93+H104+E106+D109+E85+E88+R68+R20; 

>  <intxn_cluster>  (52) 
-1

>  <intxn_cluster_rank>  (52) 
-1

>  <N_interactions>  (52) 
4

>  <∆∆G>  (52) 
-10.154623

>  <$/mg>  (52) 
0.0

>  <comRMSD>  (52) 
0.64739

>  <N_rotatable_bonds>  (52) 
3

>  <deep_P1_sidechain>  (52) 
nan

>  <farthest_distance_to_substrate>  (52) 
2.771379

>  <hbond:SER:7>  (52) 
hbond:SER:7    NaN
hbond:SER:7     -1
Name: 51, dtype: object

>  <halogenbond:SER:7>  (52) 
halogenbond:SER:7    NaN
halogenbond:SER:7     -1
Name: 51, dtype: object

>  <hbond:GLY:8>  (52) 
hbond:GLY:8    NaN
hbond:GLY:8     -1
Name: 51, dtype: object

>  <hydroph_interaction:VAL:18>  (52) 
hydroph_interaction:VAL:18    NaN
hydroph_interaction:VAL:18     -1
Name: 51, dtype: object

>  <hbond:ASN:19>  (52) 
hbond:ASN:19    NaN
hbond:ASN:19     -1
Name: 51, dtype: object

>  <hydroph_interaction:ASN:19>  (52) 
hydroph_interaction:ASN:19    0.0
hydroph_interaction:ASN:19      0
Name: 51, dtype: object

>  <halogenbond:ASN:19>  (52) 
halogenbond:ASN:19    NaN
halogenbond:ASN:19     -1
Name: 51, dtype: object

>  <hbond:ARG:20>  (52) 
hbond:ARG:20    NaN
hbond:ARG:20     -1
Name: 51, dtype: object

>  <hydroph_interaction:ARG:20>  (52) 
hydroph_interaction:ARG:20    NaN
hydroph_interaction:ARG:20     -1
Name: 51, dtype: object

>  <saltbridge:ARG:20>  (52) 
saltbridge:ARG:20    NaN
saltbridge:ARG:20     -1
Name: 51, dtype: object

>  <halogenbond:ARG:20>  (52) 
halogenbond:ARG:20    NaN
halogenbond:ARG:20     -1
Name: 51, dtype: object

>  <pication:ARG:20>  (52) 
pication:ARG:20    NaN
pication:ARG:20     -1
Name: 51, dtype: object

>  <hbond:HIS:21>  (52) 
hbond:HIS:21    0.0
hbond:HIS:21      0
Name: 51, dtype: object

>  <hydroph_interaction:HIS:21>  (52) 
hydroph_interaction:HIS:21    0.0
hydroph_interaction:HIS:21      0
Name: 51, dtype: object

>  <pistack:HIS:21>  (52) 
pistack:HIS:21    NaN
pistack:HIS:21     -1
Name: 51, dtype: object

>  <pication:HIS:21>  (52) 
pication:HIS:21    NaN
pication:HIS:21     -1
Name: 51, dtype: object

>  <saltbridge:HIS:21>  (52) 
saltbridge:HIS:21    0.0
saltbridge:HIS:21      0
Name: 51, dtype: object

>  <halogenbond:HIS:21>  (52) 
halogenbond:HIS:21    NaN
halogenbond:HIS:21     -1
Name: 51, dtype: object

>  <hydroph_interaction:LEU:22>  (52) 
hydroph_interaction:LEU:22    NaN
hydroph_interaction:LEU:22     -1
Name: 51, dtype: object

>  <hbond:LEU:22>  (52) 
hbond:LEU:22    NaN
hbond:LEU:22     -1
Name: 51, dtype: object

>  <hydroph_interaction:TRP:28>  (52) 
hydroph_interaction:TRP:28    NaN
hydroph_interaction:TRP:28     -1
Name: 51, dtype: object

>  <hbond:SER:36>  (52) 
hbond:SER:36    NaN
hbond:SER:36     -1
Name: 51, dtype: object

>  <halogenbond:SER:36>  (52) 
halogenbond:SER:36    NaN
halogenbond:SER:36     -1
Name: 51, dtype: object

>  <hbond:SER:37>  (52) 
hbond:SER:37    NaN
hbond:SER:37     -1
Name: 51, dtype: object

>  <hbond:ARG:38>  (52) 
hbond:ARG:38    NaN
hbond:ARG:38     -1
Name: 51, dtype: object

>  <halogenbond:ARG:38>  (52) 
halogenbond:ARG:38    NaN
halogenbond:ARG:38     -1
Name: 51, dtype: object

>  <saltbridge:ASP:39>  (52) 
saltbridge:ASP:39    NaN
saltbridge:ASP:39     -1
Name: 51, dtype: object

>  <halogenbond:ASP:39>  (52) 
halogenbond:ASP:39    0.0
halogenbond:ASP:39      0
Name: 51, dtype: object

>  <hbond:ASP:39>  (52) 
hbond:ASP:39    0.0
hbond:ASP:39      0
Name: 51, dtype: object

>  <hydroph_interaction:ASP:39>  (52) 
hydroph_interaction:ASP:39    0.0
hydroph_interaction:ASP:39      0
Name: 51, dtype: object

>  <hydroph_interaction:LEU:40>  (52) 
hydroph_interaction:LEU:40    NaN
hydroph_interaction:LEU:40     -1
Name: 51, dtype: object

>  <hydroph_interaction:TYR:63>  (52) 
hydroph_interaction:TYR:63    NaN
hydroph_interaction:TYR:63     -1
Name: 51, dtype: object

>  <hbond:TYR:63>  (52) 
hbond:TYR:63    NaN
hbond:TYR:63     -1
Name: 51, dtype: object

>  <pistack:TYR:63>  (52) 
pistack:TYR:63    NaN
pistack:TYR:63     -1
Name: 51, dtype: object

>  <pication:TYR:63>  (52) 
pication:TYR:63    NaN
pication:TYR:63     -1
Name: 51, dtype: object

>  <halogenbond:TYR:64>  (52) 
halogenbond:TYR:64    NaN
halogenbond:TYR:64     -1
Name: 51, dtype: object

>  <hbond:TYR:64>  (52) 
hbond:TYR:64    NaN
hbond:TYR:64     -1
Name: 51, dtype: object

>  <hydroph_interaction:TYR:64>  (52) 
hydroph_interaction:TYR:64    NaN
hydroph_interaction:TYR:64     -1
Name: 51, dtype: object

>  <halogenbond:CYS:65>  (52) 
halogenbond:CYS:65    NaN
halogenbond:CYS:65     -1
Name: 51, dtype: object

>  <hbond:CYS:65>  (52) 
hbond:CYS:65    NaN
hbond:CYS:65     -1
Name: 51, dtype: object

>  <hbond:SER:66>  (52) 
hbond:SER:66    NaN
hbond:SER:66     -1
Name: 51, dtype: object

>  <halogenbond:SER:66>  (52) 
halogenbond:SER:66    NaN
halogenbond:SER:66     -1
Name: 51, dtype: object

>  <hbond:SER:67>  (52) 
hbond:SER:67    NaN
hbond:SER:67     -1
Name: 51, dtype: object

>  <halogenbond:SER:67>  (52) 
halogenbond:SER:67    NaN
halogenbond:SER:67     -1
Name: 51, dtype: object

>  <hbond:ARG:68>  (52) 
hbond:ARG:68    NaN
hbond:ARG:68     -1
Name: 51, dtype: object

>  <saltbridge:ARG:68>  (52) 
saltbridge:ARG:68    NaN
saltbridge:ARG:68     -1
Name: 51, dtype: object

>  <hydroph_interaction:ARG:68>  (52) 
hydroph_interaction:ARG:68    NaN
hydroph_interaction:ARG:68     -1
Name: 51, dtype: object

>  <pication:ARG:68>  (52) 
pication:ARG:68    NaN
pication:ARG:68     -1
Name: 51, dtype: object

>  <hydroph_interaction:TYR:72>  (52) 
hydroph_interaction:TYR:72    NaN
hydroph_interaction:TYR:72     -1
Name: 51, dtype: object

>  <hydroph_interaction:VAL:74>  (52) 
hydroph_interaction:VAL:74    NaN
hydroph_interaction:VAL:74     -1
Name: 51, dtype: object

>  <hydroph_interaction:PHE:76>  (52) 
hydroph_interaction:PHE:76    NaN
hydroph_interaction:PHE:76     -1
Name: 51, dtype: object

>  <hbond:SER:77>  (52) 
hbond:SER:77    NaN
hbond:SER:77     -1
Name: 51, dtype: object

>  <hbond:SER:80>  (52) 
hbond:SER:80    NaN
hbond:SER:80     -1
Name: 51, dtype: object

>  <hbond:LEU:81>  (52) 
hbond:LEU:81    NaN
hbond:LEU:81     -1
Name: 51, dtype: object

>  <halogenbond:LEU:81>  (52) 
halogenbond:LEU:81    NaN
halogenbond:LEU:81     -1
Name: 51, dtype: object

>  <hydroph_interaction:LEU:81>  (52) 
hydroph_interaction:LEU:81    NaN
hydroph_interaction:LEU:81     -1
Name: 51, dtype: object

>  <hydroph_interaction:ILE:82>  (52) 
hydroph_interaction:ILE:82    NaN
hydroph_interaction:ILE:82     -1
Name: 51, dtype: object

>  <halogenbond:ILE:82>  (52) 
halogenbond:ILE:82    NaN
halogenbond:ILE:82     -1
Name: 51, dtype: object

>  <hbond:ILE:82>  (52) 
hbond:ILE:82    NaN
hbond:ILE:82     -1
Name: 51, dtype: object

>  <hbond:PHE:83>  (52) 
hbond:PHE:83    NaN
hbond:PHE:83     -1
Name: 51, dtype: object

>  <hydroph_interaction:PHE:83>  (52) 
hydroph_interaction:PHE:83    NaN
hydroph_interaction:PHE:83     -1
Name: 51, dtype: object

>  <halogenbond:PHE:83>  (52) 
halogenbond:PHE:83    NaN
halogenbond:PHE:83     -1
Name: 51, dtype: object

>  <pistack:PHE:83>  (52) 
pistack:PHE:83    NaN
pistack:PHE:83     -1
Name: 51, dtype: object

>  <pication:PHE:83>  (52) 
pication:PHE:83    NaN
pication:PHE:83     -1
Name: 51, dtype: object

>  <hydroph_interaction:VAL:84>  (52) 
hydroph_interaction:VAL:84    NaN
hydroph_interaction:VAL:84     -1
Name: 51, dtype: object

>  <halogenbond:VAL:84>  (52) 
halogenbond:VAL:84    NaN
halogenbond:VAL:84     -1
Name: 51, dtype: object

>  <hbond:VAL:84>  (52) 
hbond:VAL:84    NaN
hbond:VAL:84     -1
Name: 51, dtype: object

>  <hydroph_interaction:GLU:85>  (52) 
hydroph_interaction:GLU:85    NaN
hydroph_interaction:GLU:85     -1
Name: 51, dtype: object

>  <hbond:GLU:85>  (52) 
hbond:GLU:85    NaN
hbond:GLU:85     -1
Name: 51, dtype: object

>  <halogenbond:GLU:85>  (52) 
halogenbond:GLU:85    NaN
halogenbond:GLU:85     -1
Name: 51, dtype: object

>  <saltbridge:GLU:85>  (52) 
saltbridge:GLU:85    NaN
saltbridge:GLU:85     -1
Name: 51, dtype: object

>  <halogenbond:ALA:86>  (52) 
halogenbond:ALA:86    NaN
halogenbond:ALA:86     -1
Name: 51, dtype: object

>  <hbond:ALA:86>  (52) 
hbond:ALA:86    0.0
hbond:ALA:86      0
Name: 51, dtype: object

>  <hydroph_interaction:ALA:86>  (52) 
hydroph_interaction:ALA:86    NaN
hydroph_interaction:ALA:86     -1
Name: 51, dtype: object

>  <hbond:SER:87>  (52) 
hbond:SER:87    2
hbond:SER:87    2
Name: 51, dtype: object

>  <halogenbond:SER:87>  (52) 
halogenbond:SER:87    NaN
halogenbond:SER:87     -1
Name: 51, dtype: object

>  <hbond:GLU:88>  (52) 
hbond:GLU:88    0.0
hbond:GLU:88      0
Name: 51, dtype: object

>  <hydroph_interaction:GLU:88>  (52) 
hydroph_interaction:GLU:88    NaN
hydroph_interaction:GLU:88     -1
Name: 51, dtype: object

>  <halogenbond:GLU:88>  (52) 
halogenbond:GLU:88    NaN
halogenbond:GLU:88     -1
Name: 51, dtype: object

>  <saltbridge:GLU:88>  (52) 
saltbridge:GLU:88    NaN
saltbridge:GLU:88     -1
Name: 51, dtype: object

>  <hydroph_interaction:TYR:89>  (52) 
hydroph_interaction:TYR:89    0.0
hydroph_interaction:TYR:89      0
Name: 51, dtype: object

>  <pistack:TYR:89>  (52) 
pistack:TYR:89    NaN
pistack:TYR:89     -1
Name: 51, dtype: object

>  <hbond:TYR:89>  (52) 
hbond:TYR:89    NaN
hbond:TYR:89     -1
Name: 51, dtype: object

>  <halogenbond:TYR:89>  (52) 
halogenbond:TYR:89    NaN
halogenbond:TYR:89     -1
Name: 51, dtype: object

>  <hydroph_interaction:TYR:90>  (52) 
hydroph_interaction:TYR:90    0.0
hydroph_interaction:TYR:90      0
Name: 51, dtype: object

>  <hbond:TYR:90>  (52) 
hbond:TYR:90    NaN
hbond:TYR:90     -1
Name: 51, dtype: object

>  <pistack:TYR:90>  (52) 
pistack:TYR:90    NaN
pistack:TYR:90     -1
Name: 51, dtype: object

>  <halogenbond:TYR:90>  (52) 
halogenbond:TYR:90    NaN
halogenbond:TYR:90     -1
Name: 51, dtype: object

>  <pication:TYR:90>  (52) 
pication:TYR:90    NaN
pication:TYR:90     -1
Name: 51, dtype: object

>  <hbond:PRO:91>  (52) 
hbond:PRO:91    NaN
hbond:PRO:91     -1
Name: 51, dtype: object

>  <hydroph_interaction:PRO:91>  (52) 
hydroph_interaction:PRO:91    NaN
hydroph_interaction:PRO:91     -1
Name: 51, dtype: object

>  <halogenbond:PRO:91>  (52) 
halogenbond:PRO:91    NaN
halogenbond:PRO:91     -1
Name: 51, dtype: object

>  <hbond:ALA:92>  (52) 
hbond:ALA:92    NaN
hbond:ALA:92     -1
Name: 51, dtype: object

>  <hydroph_interaction:ALA:92>  (52) 
hydroph_interaction:ALA:92    NaN
hydroph_interaction:ALA:92     -1
Name: 51, dtype: object

>  <saltbridge:ARG:93>  (52) 
saltbridge:ARG:93    NaN
saltbridge:ARG:93     -1
Name: 51, dtype: object

>  <hbond:ARG:93>  (52) 
hbond:ARG:93    NaN
hbond:ARG:93     -1
Name: 51, dtype: object

>  <hydroph_interaction:ARG:93>  (52) 
hydroph_interaction:ARG:93    NaN
hydroph_interaction:ARG:93     -1
Name: 51, dtype: object

>  <halogenbond:ARG:93>  (52) 
halogenbond:ARG:93    NaN
halogenbond:ARG:93     -1
Name: 51, dtype: object

>  <pication:ARG:93>  (52) 
pication:ARG:93    NaN
pication:ARG:93     -1
Name: 51, dtype: object

>  <hydroph_interaction:TYR:94>  (52) 
hydroph_interaction:TYR:94    NaN
hydroph_interaction:TYR:94     -1
Name: 51, dtype: object

>  <pistack:TYR:94>  (52) 
pistack:TYR:94    NaN
pistack:TYR:94     -1
Name: 51, dtype: object

>  <hbond:TYR:94>  (52) 
hbond:TYR:94    NaN
hbond:TYR:94     -1
Name: 51, dtype: object

>  <hbond:GLN:95>  (52) 
hbond:GLN:95    NaN
hbond:GLN:95     -1
Name: 51, dtype: object

>  <hydroph_interaction:GLN:95>  (52) 
hydroph_interaction:GLN:95    NaN
hydroph_interaction:GLN:95     -1
Name: 51, dtype: object

>  <halogenbond:GLN:95>  (52) 
halogenbond:GLN:95    NaN
halogenbond:GLN:95     -1
Name: 51, dtype: object

>  <hbond:SER:96>  (52) 
hbond:SER:96    NaN
hbond:SER:96     -1
Name: 51, dtype: object

>  <halogenbond:HIS:97>  (52) 
halogenbond:HIS:97    NaN
halogenbond:HIS:97     -1
Name: 51, dtype: object

>  <hydroph_interaction:LEU:98>  (52) 
hydroph_interaction:LEU:98    NaN
hydroph_interaction:LEU:98     -1
Name: 51, dtype: object

>  <hbond:LEU:98>  (52) 
hbond:LEU:98    NaN
hbond:LEU:98     -1
Name: 51, dtype: object

>  <halogenbond:LEU:98>  (52) 
halogenbond:LEU:98    NaN
halogenbond:LEU:98     -1
Name: 51, dtype: object

>  <hbond:MET:99>  (52) 
hbond:MET:99    NaN
hbond:MET:99     -1
Name: 51, dtype: object

>  <hydroph_interaction:MET:99>  (52) 
hydroph_interaction:MET:99    NaN
hydroph_interaction:MET:99     -1
Name: 51, dtype: object

>  <halogenbond:MET:99>  (52) 
halogenbond:MET:99    NaN
halogenbond:MET:99     -1
Name: 51, dtype: object

>  <hydroph_interaction:LEU:100>  (52) 
hydroph_interaction:LEU:100    NaN
hydroph_interaction:LEU:100     -1
Name: 51, dtype: object

>  <hbond:LEU:100>  (52) 
hbond:LEU:100    NaN
hbond:LEU:100     -1
Name: 51, dtype: object

>  <hbond:ALA:101>  (52) 
hbond:ALA:101    NaN
hbond:ALA:101     -1
Name: 51, dtype: object

>  <hydroph_interaction:ALA:101>  (52) 
hydroph_interaction:ALA:101    NaN
hydroph_interaction:ALA:101     -1
Name: 51, dtype: object

>  <hydroph_interaction:VAL:102>  (52) 
hydroph_interaction:VAL:102    NaN
hydroph_interaction:VAL:102     -1
Name: 51, dtype: object

>  <hbond:VAL:102>  (52) 
hbond:VAL:102    NaN
hbond:VAL:102     -1
Name: 51, dtype: object

>  <hbond:GLY:103>  (52) 
hbond:GLY:103    NaN
hbond:GLY:103     -1
Name: 51, dtype: object

>  <halogenbond:GLY:103>  (52) 
halogenbond:GLY:103    NaN
halogenbond:GLY:103     -1
Name: 51, dtype: object

>  <hbond:HIS:104>  (52) 
hbond:HIS:104    NaN
hbond:HIS:104     -1
Name: 51, dtype: object

>  <saltbridge:HIS:104>  (52) 
saltbridge:HIS:104    NaN
saltbridge:HIS:104     -1
Name: 51, dtype: object

>  <pication:HIS:104>  (52) 
pication:HIS:104    NaN
pication:HIS:104     -1
Name: 51, dtype: object

>  <halogenbond:HIS:104>  (52) 
halogenbond:HIS:104    NaN
halogenbond:HIS:104     -1
Name: 51, dtype: object

>  <hydroph_interaction:HIS:104>  (52) 
hydroph_interaction:HIS:104    NaN
hydroph_interaction:HIS:104     -1
Name: 51, dtype: object

>  <pistack:HIS:104>  (52) 
pistack:HIS:104    NaN
pistack:HIS:104     -1
Name: 51, dtype: object

>  <halogenbond:SER:105>  (52) 
halogenbond:SER:105    0.0
halogenbond:SER:105      0
Name: 51, dtype: object

>  <hbond:SER:105>  (52) 
hbond:SER:105    0.0
hbond:SER:105      0
Name: 51, dtype: object

>  <hbond:GLU:106>  (52) 
hbond:GLU:106    0.0
hbond:GLU:106      0
Name: 51, dtype: object

>  <hydroph_interaction:GLU:106>  (52) 
hydroph_interaction:GLU:106    NaN
hydroph_interaction:GLU:106     -1
Name: 51, dtype: object

>  <saltbridge:GLU:106>  (52) 
saltbridge:GLU:106    NaN
saltbridge:GLU:106     -1
Name: 51, dtype: object

>  <halogenbond:GLU:106>  (52) 
halogenbond:GLU:106    NaN
halogenbond:GLU:106     -1
Name: 51, dtype: object

>  <hydroph_interaction:PRO:107>  (52) 
hydroph_interaction:PRO:107    0
hydroph_interaction:PRO:107    0
Name: 51, dtype: object

>  <hbond:PRO:107>  (52) 
hbond:PRO:107    0.0
hbond:PRO:107      0
Name: 51, dtype: object

>  <halogenbond:PRO:107>  (52) 
halogenbond:PRO:107    NaN
halogenbond:PRO:107     -1
Name: 51, dtype: object

>  <hbond:GLY:108>  (52) 
hbond:GLY:108    NaN
hbond:GLY:108     -1
Name: 51, dtype: object

>  <halogenbond:GLY:108>  (52) 
halogenbond:GLY:108    NaN
halogenbond:GLY:108     -1
Name: 51, dtype: object

>  <hbond:ASP:109>  (52) 
hbond:ASP:109    NaN
hbond:ASP:109     -1
Name: 51, dtype: object

>  <hydroph_interaction:ASP:109>  (52) 
hydroph_interaction:ASP:109    NaN
hydroph_interaction:ASP:109     -1
Name: 51, dtype: object

>  <saltbridge:ASP:109>  (52) 
saltbridge:ASP:109    NaN
saltbridge:ASP:109     -1
Name: 51, dtype: object

>  <halogenbond:CYS:110>  (52) 
halogenbond:CYS:110    NaN
halogenbond:CYS:110     -1
Name: 51, dtype: object

>  <hbond:CYS:110>  (52) 
hbond:CYS:110    NaN
hbond:CYS:110     -1
Name: 51, dtype: object

>  <hbond:GLY:111>  (52) 
hbond:GLY:111    NaN
hbond:GLY:111     -1
Name: 51, dtype: object

>  <hbond:GLY:112>  (52) 
hbond:GLY:112    NaN
hbond:GLY:112     -1
Name: 51, dtype: object

>  <hbond:ILE:113>  (52) 
hbond:ILE:113    NaN
hbond:ILE:113     -1
Name: 51, dtype: object

>  <hydroph_interaction:LEU:114>  (52) 
hydroph_interaction:LEU:114    NaN
hydroph_interaction:LEU:114     -1
Name: 51, dtype: object

>  <hbond:LEU:114>  (52) 
hbond:LEU:114    NaN
hbond:LEU:114     -1
Name: 51, dtype: object

>  <hydroph_interaction:ILE:123>  (52) 
hydroph_interaction:ILE:123    NaN
hydroph_interaction:ILE:123     -1
Name: 51, dtype: object

>  <hbond:ILE:123>  (52) 
hbond:ILE:123    NaN
hbond:ILE:123     -1
Name: 51, dtype: object

>  <hydroph_interaction:VAL:124>  (52) 
hydroph_interaction:VAL:124    1.0
hydroph_interaction:VAL:124      1
Name: 51, dtype: object

>  <hbond:VAL:124>  (52) 
hbond:VAL:124    NaN
hbond:VAL:124     -1
Name: 51, dtype: object

>  <halogenbond:VAL:124>  (52) 
halogenbond:VAL:124    NaN
halogenbond:VAL:124     -1
Name: 51, dtype: object

>  <hbond:SER:125>  (52) 
hbond:SER:125    1
hbond:SER:125    1
Name: 51, dtype: object

>  <halogenbond:SER:125>  (52) 
halogenbond:SER:125    NaN
halogenbond:SER:125     -1
Name: 51, dtype: object

>  <hydroph_interaction:THR:126>  (52) 
hydroph_interaction:THR:126    NaN
hydroph_interaction:THR:126     -1
Name: 51, dtype: object

>  <hbond:THR:126>  (52) 
hbond:THR:126    NaN
hbond:THR:126     -1
Name: 51, dtype: object

>  <halogenbond:THR:126>  (52) 
halogenbond:THR:126    NaN
halogenbond:THR:126     -1
Name: 51, dtype: object

>  <hbond:GLY:127>  (52) 
hbond:GLY:127    0
hbond:GLY:127    0
Name: 51, dtype: object

>  <halogenbond:GLY:127>  (52) 
halogenbond:GLY:127    NaN
halogenbond:GLY:127     -1
Name: 51, dtype: object

>  <hydroph_interaction:GLY:127>  (52) 
hydroph_interaction:GLY:127    NaN
hydroph_interaction:GLY:127     -1
Name: 51, dtype: object

>  <hbond:GLY:128>  (52) 
hbond:GLY:128    NaN
hbond:GLY:128     -1
Name: 51, dtype: object

>  <halogenbond:GLY:128>  (52) 
halogenbond:GLY:128    NaN
halogenbond:GLY:128     -1
Name: 51, dtype: object

>  <hydroph_interaction:GLY:128>  (52) 
hydroph_interaction:GLY:128    NaN
hydroph_interaction:GLY:128     -1
Name: 51, dtype: object

>  <hbond:ASN:129>  (52) 
hbond:ASN:129    NaN
hbond:ASN:129     -1
Name: 51, dtype: object

>  <hydroph_interaction:ASN:129>  (52) 
hydroph_interaction:ASN:129    NaN
hydroph_interaction:ASN:129     -1
Name: 51, dtype: object

>  <halogenbond:ASN:129>  (52) 
halogenbond:ASN:129    NaN
halogenbond:ASN:129     -1
Name: 51, dtype: object

>  <hbond:GLY:130>  (52) 
hbond:GLY:130    NaN
hbond:GLY:130     -1
Name: 51, dtype: object

>  <hbond:LEU:131>  (52) 
hbond:LEU:131    NaN
hbond:LEU:131     -1
Name: 51, dtype: object

>  <hydroph_interaction:LEU:131>  (52) 
hydroph_interaction:LEU:131    NaN
hydroph_interaction:LEU:131     -1
Name: 51, dtype: object

>  <halogenbond:LEU:131>  (52) 
halogenbond:LEU:131    NaN
halogenbond:LEU:131     -1
Name: 51, dtype: object

>  <hydroph_interaction:VAL:132>  (52) 
hydroph_interaction:VAL:132    NaN
hydroph_interaction:VAL:132     -1
Name: 51, dtype: object

>  <hbond:VAL:132>  (52) 
hbond:VAL:132    NaN
hbond:VAL:132     -1
Name: 51, dtype: object

>  <hbond:GLY:133>  (52) 
hbond:GLY:133    NaN
hbond:GLY:133     -1
Name: 51, dtype: object

>  <halogenbond:GLY:133>  (52) 
halogenbond:GLY:133    NaN
halogenbond:GLY:133     -1
Name: 51, dtype: object

>  <hydroph_interaction:PHE:134>  (52) 
hydroph_interaction:PHE:134    NaN
hydroph_interaction:PHE:134     -1
Name: 51, dtype: object

>  <hbond:PHE:134>  (52) 
hbond:PHE:134    NaN
hbond:PHE:134     -1
Name: 51, dtype: object

>  <pistack:PHE:134>  (52) 
pistack:PHE:134    NaN
pistack:PHE:134     -1
Name: 51, dtype: object

>  <pication:PHE:134>  (52) 
pication:PHE:134    NaN
pication:PHE:134     -1
Name: 51, dtype: object

>  <halogenbond:PHE:134>  (52) 
halogenbond:PHE:134    NaN
halogenbond:PHE:134     -1
Name: 51, dtype: object

>  <hydroph_interaction:ALA:135>  (52) 
hydroph_interaction:ALA:135    NaN
hydroph_interaction:ALA:135     -1
Name: 51, dtype: object

>  <hbond:ALA:135>  (52) 
hbond:ALA:135    NaN
hbond:ALA:135     -1
Name: 51, dtype: object

$$$$
PV_006518381459
     RDKit          3D

 32 33  0  0  0  0  0  0  0  0999 V2000
    9.8580    9.0550   22.7210 C   0  0  0  0  0  0  0  0  0  0  0  0
    9.6100   10.3840   23.1990 N   0  0  0  0  0  0  0  0  0  0  0  0
    8.7260   10.7780   24.1750 C   0  0  0  0  0  0  0  0  0  0  0  0
    8.8510   12.1460   24.2610 C   0  0  0  0  0  0  0  0  0  0  0  0
    9.8310   12.4650   23.2990 C   0  0  0  0  0  0  0  0  0  0  0  0
   10.2680   13.7680   23.0500 C   0  0  0  0  0  0  0  0  0  0  0  0
   11.0280   14.0650   21.9760 N   0  0  0  0  0  0  0  0  0  0  0  0
   12.1990   14.7300   22.2460 C   0  0  0  0  0  0  0  0  0  0  0  0
   12.5980   15.7780   21.6250 N   0  0  0  0  0  0  0  0  0  0  0  0
   12.8190   14.0850   23.2920 N   0  0  0  0  0  0  0  0  0  0  0  0
   14.1510   14.0750   23.7780 C   0  0  0  0  0  0  0  0  0  0  0  0
   15.1800   15.1360   23.6150 C   0  0  0  0  0  0  0  0  0  0  0  0
   16.4620   15.0250   24.1400 C   0  0  0  0  0  0  0  0  0  0  0  0
   16.8760   13.9150   24.8500 C   0  0  0  0  0  0  0  0  0  0  0  0
   15.8880   12.8240   25.0360 C   0  0  0  0  0  0  0  0  0  0  0  0
   14.6000   12.9710   24.4960 C   0  0  0  0  0  0  0  0  0  0  0  0
   10.2940   11.3960   22.6540 N   0  0  0  0  0  0  0  0  0  0  0  0
   10.4330    9.1350   21.7970 H   0  0  0  0  0  0  0  0  0  0  0  0
    8.9000    8.5880   22.5300 H   0  0  0  0  0  0  0  0  0  0  0  0
   10.4240    8.4840   23.4510 H   0  0  0  0  0  0  0  0  0  0  0  0
    8.0990   10.0760   24.7100 H   0  0  0  0  0  0  0  0  0  0  0  0
    8.3110   12.8110   24.9220 H   0  0  0  0  0  0  0  0  0  0  0  0
   10.7980   14.2390   23.8790 H   0  0  0  0  0  0  0  0  0  0  0  0
    9.3640   14.3810   22.9850 H   0  0  0  0  0  0  0  0  0  0  0  0
   11.1480   13.2360   21.3800 H   0  0  0  0  0  0  0  0  0  0  0  0
   11.9420   16.0320   20.8940 H   0  0  0  0  0  0  0  0  0  0  0  0
   12.2820   13.2970   23.6170 H   0  0  0  0  0  0  0  0  0  0  0  0
   14.9120   16.0200   23.0640 H   0  0  0  0  0  0  0  0  0  0  0  0
   17.1700   15.8420   23.9850 H   0  0  0  0  0  0  0  0  0  0  0  0
   17.8860   13.8760   25.2380 H   0  0  0  0  0  0  0  0  0  0  0  0
   16.1470   11.9210   25.5820 H   0  0  0  0  0  0  0  0  0  0  0  0
   13.9780   12.1230   24.6960 H   0  0  0  0  0  0  0  0  0  0  0  0
  1  2  1  0
  2  3  1  0
  3  4  2  0
  4  5  1  0
  5  6  1  0
  6  7  1  0
  7  8  1  0
  8  9  2  3
  8 10  1  0
 10 11  1  0
 11 12  2  0
 12 13  1  0
 13 14  2  0
 14 15  1  0
 15 16  2  0
  5 17  2  0
 17  2  1  0
 16 11  1  0
  1 18  1  0
  1 19  1  0
  1 20  1  0
  3 21  1  0
  4 22  1  0
  6 23  1  0
  6 24  1  0
  7 25  1  0
  9 26  1  0
 10 27  1  0
 12 28  1  0
 13 29  1  0
 14 30  1  0
 15 31  1  0
 16 32  1  0
A    1
 C1 
A    2
 N1 
A    3
 C2 
A    4
 C3 
A    5
 C4 
A    6
 C5 
A    7
 N2 
A    8
 C6 
A    9
 N3 
A   10
 N4 
A   11
 C7 
A   12
 C8 
A   13
 C9 
A   14
 C10
A   15
 C11
A   16
 C12
A   17
 N5 
A   18
 H1 
A   19
 H2 
A   20
 H3 
A   21
 H4 
A   22
 H5 
A   23
 H6 
A   24
 H7 
A   25
 H8 
A   26
 H9 
A   27
 H10
A   28
 H11
A   29
 H12
A   30
 H13
A   31
 H14
A   32
 H15
M  END
>  <ref_pdb>  (53) 
x0310_0A

>  <ref_mols>  (53) 
x0451_0A,x0416_0A

>  <original SMILES>  (53) 
Cn1ccc(CNC(=N)Nc2ccccc2)n1

>  <rationale>  (53) 
info halogenbond:C110+G127+D39+S125+E85+E106+T126+P107+H104+Y64+C65+S87+N129+F83+R93+L131+I82+G128+P91+N19+H21+V84+G133+Y90+Y89+H97+L81+F134+L98+R20+G103+S66+S67+S7+G108+R38+V124+M99+S36; hbond:S87+S125+Y90+P107+Q95+C110+D109+E85+G108+G103+G128+G130+L131+N129+H104+R68+V124+P91+F83+S67+S7+S66+G112+G133+V132+R20+Y89+S77+A135+Y63+A92+A101+M99+F134+L100+I82+Y64+S36+L98+V84+L81+Y94+S80+R38+S37+V102+G8+I123+G111+I113+L114+C65+L22+S96; hydroph_interaction:Y89+H21+P107+L22+D109+N129+L40+I123+A135+Q95+I82+L100+L98+L131+F83+V132+Y63+F134+H104+V74+P91+A101+F76+M99+L114+A92+Y94+R68+Y72+Y64+V18+V102+W28+G127+G128+L81; pication:H104+R93+Y63+F134+Y90+R68+F83+R20; pistack:H21+H104+F134+Y63+F83+Y94; saltbridge:R93+H104+E106+D109+E85+R68+R20; 

>  <intxn_cluster>  (53) 
-1

>  <intxn_cluster_rank>  (53) 
-1

>  <N_interactions>  (53) 
9

>  <∆∆G>  (53) 
-10.074436

>  <$/mg>  (53) 
163.0

>  <comRMSD>  (53) 
0.732984

>  <N_rotatable_bonds>  (53) 
4

>  <deep_P1_sidechain>  (53) 
nan

>  <farthest_distance_to_substrate>  (53) 
2.309722

>  <hbond:SER:7>  (53) 
hbond:SER:7    NaN
hbond:SER:7     -1
Name: 52, dtype: object

>  <halogenbond:SER:7>  (53) 
halogenbond:SER:7    NaN
halogenbond:SER:7     -1
Name: 52, dtype: object

>  <hbond:GLY:8>  (53) 
hbond:GLY:8    NaN
hbond:GLY:8     -1
Name: 52, dtype: object

>  <hydroph_interaction:VAL:18>  (53) 
hydroph_interaction:VAL:18    NaN
hydroph_interaction:VAL:18     -1
Name: 52, dtype: object

>  <hbond:ASN:19>  (53) 
hbond:ASN:19    0.0
hbond:ASN:19      0
Name: 52, dtype: object

>  <hydroph_interaction:ASN:19>  (53) 
hydroph_interaction:ASN:19    0.0
hydroph_interaction:ASN:19      0
Name: 52, dtype: object

>  <halogenbond:ASN:19>  (53) 
halogenbond:ASN:19    NaN
halogenbond:ASN:19     -1
Name: 52, dtype: object

>  <hbond:ARG:20>  (53) 
hbond:ARG:20    NaN
hbond:ARG:20     -1
Name: 52, dtype: object

>  <hydroph_interaction:ARG:20>  (53) 
hydroph_interaction:ARG:20    0.0
hydroph_interaction:ARG:20      0
Name: 52, dtype: object

>  <saltbridge:ARG:20>  (53) 
saltbridge:ARG:20    NaN
saltbridge:ARG:20     -1
Name: 52, dtype: object

>  <halogenbond:ARG:20>  (53) 
halogenbond:ARG:20    NaN
halogenbond:ARG:20     -1
Name: 52, dtype: object

>  <pication:ARG:20>  (53) 
pication:ARG:20    NaN
pication:ARG:20     -1
Name: 52, dtype: object

>  <hbond:HIS:21>  (53) 
hbond:HIS:21    0.0
hbond:HIS:21      0
Name: 52, dtype: object

>  <hydroph_interaction:HIS:21>  (53) 
hydroph_interaction:HIS:21    1.0
hydroph_interaction:HIS:21      1
Name: 52, dtype: object

>  <pistack:HIS:21>  (53) 
pistack:HIS:21    1.0
pistack:HIS:21      1
Name: 52, dtype: object

>  <pication:HIS:21>  (53) 
pication:HIS:21    0.0
pication:HIS:21      0
Name: 52, dtype: object

>  <saltbridge:HIS:21>  (53) 
saltbridge:HIS:21    0.0
saltbridge:HIS:21      0
Name: 52, dtype: object

>  <halogenbond:HIS:21>  (53) 
halogenbond:HIS:21    NaN
halogenbond:HIS:21     -1
Name: 52, dtype: object

>  <hydroph_interaction:LEU:22>  (53) 
hydroph_interaction:LEU:22    1.0
hydroph_interaction:LEU:22      1
Name: 52, dtype: object

>  <hbond:LEU:22>  (53) 
hbond:LEU:22    NaN
hbond:LEU:22     -1
Name: 52, dtype: object

>  <hydroph_interaction:TRP:28>  (53) 
hydroph_interaction:TRP:28    NaN
hydroph_interaction:TRP:28     -1
Name: 52, dtype: object

>  <hbond:SER:36>  (53) 
hbond:SER:36    NaN
hbond:SER:36     -1
Name: 52, dtype: object

>  <halogenbond:SER:36>  (53) 
halogenbond:SER:36    NaN
halogenbond:SER:36     -1
Name: 52, dtype: object

>  <hbond:SER:37>  (53) 
hbond:SER:37    NaN
hbond:SER:37     -1
Name: 52, dtype: object

>  <hbond:ARG:38>  (53) 
hbond:ARG:38    NaN
hbond:ARG:38     -1
Name: 52, dtype: object

>  <halogenbond:ARG:38>  (53) 
halogenbond:ARG:38    NaN
halogenbond:ARG:38     -1
Name: 52, dtype: object

>  <saltbridge:ASP:39>  (53) 
saltbridge:ASP:39    0.0
saltbridge:ASP:39      0
Name: 52, dtype: object

>  <halogenbond:ASP:39>  (53) 
halogenbond:ASP:39    NaN
halogenbond:ASP:39     -1
Name: 52, dtype: object

>  <hbond:ASP:39>  (53) 
hbond:ASP:39    0.0
hbond:ASP:39      0
Name: 52, dtype: object

>  <hydroph_interaction:ASP:39>  (53) 
hydroph_interaction:ASP:39    0.0
hydroph_interaction:ASP:39      0
Name: 52, dtype: object

>  <hydroph_interaction:LEU:40>  (53) 
hydroph_interaction:LEU:40    NaN
hydroph_interaction:LEU:40     -1
Name: 52, dtype: object

>  <hydroph_interaction:TYR:63>  (53) 
hydroph_interaction:TYR:63    NaN
hydroph_interaction:TYR:63     -1
Name: 52, dtype: object

>  <hbond:TYR:63>  (53) 
hbond:TYR:63    NaN
hbond:TYR:63     -1
Name: 52, dtype: object

>  <pistack:TYR:63>  (53) 
pistack:TYR:63    NaN
pistack:TYR:63     -1
Name: 52, dtype: object

>  <pication:TYR:63>  (53) 
pication:TYR:63    NaN
pication:TYR:63     -1
Name: 52, dtype: object

>  <halogenbond:TYR:64>  (53) 
halogenbond:TYR:64    NaN
halogenbond:TYR:64     -1
Name: 52, dtype: object

>  <hbond:TYR:64>  (53) 
hbond:TYR:64    NaN
hbond:TYR:64     -1
Name: 52, dtype: object

>  <hydroph_interaction:TYR:64>  (53) 
hydroph_interaction:TYR:64    NaN
hydroph_interaction:TYR:64     -1
Name: 52, dtype: object

>  <halogenbond:CYS:65>  (53) 
halogenbond:CYS:65    NaN
halogenbond:CYS:65     -1
Name: 52, dtype: object

>  <hbond:CYS:65>  (53) 
hbond:CYS:65    NaN
hbond:CYS:65     -1
Name: 52, dtype: object

>  <hbond:SER:66>  (53) 
hbond:SER:66    NaN
hbond:SER:66     -1
Name: 52, dtype: object

>  <halogenbond:SER:66>  (53) 
halogenbond:SER:66    NaN
halogenbond:SER:66     -1
Name: 52, dtype: object

>  <hbond:SER:67>  (53) 
hbond:SER:67    NaN
hbond:SER:67     -1
Name: 52, dtype: object

>  <halogenbond:SER:67>  (53) 
halogenbond:SER:67    NaN
halogenbond:SER:67     -1
Name: 52, dtype: object

>  <hbond:ARG:68>  (53) 
hbond:ARG:68    NaN
hbond:ARG:68     -1
Name: 52, dtype: object

>  <saltbridge:ARG:68>  (53) 
saltbridge:ARG:68    NaN
saltbridge:ARG:68     -1
Name: 52, dtype: object

>  <hydroph_interaction:ARG:68>  (53) 
hydroph_interaction:ARG:68    NaN
hydroph_interaction:ARG:68     -1
Name: 52, dtype: object

>  <pication:ARG:68>  (53) 
pication:ARG:68    NaN
pication:ARG:68     -1
Name: 52, dtype: object

>  <hydroph_interaction:TYR:72>  (53) 
hydroph_interaction:TYR:72    NaN
hydroph_interaction:TYR:72     -1
Name: 52, dtype: object

>  <hydroph_interaction:VAL:74>  (53) 
hydroph_interaction:VAL:74    NaN
hydroph_interaction:VAL:74     -1
Name: 52, dtype: object

>  <hydroph_interaction:PHE:76>  (53) 
hydroph_interaction:PHE:76    NaN
hydroph_interaction:PHE:76     -1
Name: 52, dtype: object

>  <hbond:SER:77>  (53) 
hbond:SER:77    NaN
hbond:SER:77     -1
Name: 52, dtype: object

>  <hbond:SER:80>  (53) 
hbond:SER:80    NaN
hbond:SER:80     -1
Name: 52, dtype: object

>  <hbond:LEU:81>  (53) 
hbond:LEU:81    NaN
hbond:LEU:81     -1
Name: 52, dtype: object

>  <halogenbond:LEU:81>  (53) 
halogenbond:LEU:81    NaN
halogenbond:LEU:81     -1
Name: 52, dtype: object

>  <hydroph_interaction:LEU:81>  (53) 
hydroph_interaction:LEU:81    NaN
hydroph_interaction:LEU:81     -1
Name: 52, dtype: object

>  <hydroph_interaction:ILE:82>  (53) 
hydroph_interaction:ILE:82    NaN
hydroph_interaction:ILE:82     -1
Name: 52, dtype: object

>  <halogenbond:ILE:82>  (53) 
halogenbond:ILE:82    NaN
halogenbond:ILE:82     -1
Name: 52, dtype: object

>  <hbond:ILE:82>  (53) 
hbond:ILE:82    NaN
hbond:ILE:82     -1
Name: 52, dtype: object

>  <hbond:PHE:83>  (53) 
hbond:PHE:83    NaN
hbond:PHE:83     -1
Name: 52, dtype: object

>  <hydroph_interaction:PHE:83>  (53) 
hydroph_interaction:PHE:83    NaN
hydroph_interaction:PHE:83     -1
Name: 52, dtype: object

>  <halogenbond:PHE:83>  (53) 
halogenbond:PHE:83    NaN
halogenbond:PHE:83     -1
Name: 52, dtype: object

>  <pistack:PHE:83>  (53) 
pistack:PHE:83    NaN
pistack:PHE:83     -1
Name: 52, dtype: object

>  <pication:PHE:83>  (53) 
pication:PHE:83    NaN
pication:PHE:83     -1
Name: 52, dtype: object

>  <hydroph_interaction:VAL:84>  (53) 
hydroph_interaction:VAL:84    0.0
hydroph_interaction:VAL:84      0
Name: 52, dtype: object

>  <halogenbond:VAL:84>  (53) 
halogenbond:VAL:84    NaN
halogenbond:VAL:84     -1
Name: 52, dtype: object

>  <hbond:VAL:84>  (53) 
hbond:VAL:84    NaN
hbond:VAL:84     -1
Name: 52, dtype: object

>  <hydroph_interaction:GLU:85>  (53) 
hydroph_interaction:GLU:85    0.0
hydroph_interaction:GLU:85      0
Name: 52, dtype: object

>  <hbond:GLU:85>  (53) 
hbond:GLU:85    NaN
hbond:GLU:85     -1
Name: 52, dtype: object

>  <halogenbond:GLU:85>  (53) 
halogenbond:GLU:85    NaN
halogenbond:GLU:85     -1
Name: 52, dtype: object

>  <saltbridge:GLU:85>  (53) 
saltbridge:GLU:85    NaN
saltbridge:GLU:85     -1
Name: 52, dtype: object

>  <halogenbond:ALA:86>  (53) 
halogenbond:ALA:86    0.0
halogenbond:ALA:86      0
Name: 52, dtype: object

>  <hbond:ALA:86>  (53) 
hbond:ALA:86    0.0
hbond:ALA:86      0
Name: 52, dtype: object

>  <hydroph_interaction:ALA:86>  (53) 
hydroph_interaction:ALA:86    0.0
hydroph_interaction:ALA:86      0
Name: 52, dtype: object

>  <hbond:SER:87>  (53) 
hbond:SER:87    1
hbond:SER:87    1
Name: 52, dtype: object

>  <halogenbond:SER:87>  (53) 
halogenbond:SER:87    NaN
halogenbond:SER:87     -1
Name: 52, dtype: object

>  <hbond:GLU:88>  (53) 
hbond:GLU:88    0.0
hbond:GLU:88      0
Name: 52, dtype: object

>  <hydroph_interaction:GLU:88>  (53) 
hydroph_interaction:GLU:88    0.0
hydroph_interaction:GLU:88      0
Name: 52, dtype: object

>  <halogenbond:GLU:88>  (53) 
halogenbond:GLU:88    0.0
halogenbond:GLU:88      0
Name: 52, dtype: object

>  <saltbridge:GLU:88>  (53) 
saltbridge:GLU:88    0.0
saltbridge:GLU:88      0
Name: 52, dtype: object

>  <hydroph_interaction:TYR:89>  (53) 
hydroph_interaction:TYR:89    2.0
hydroph_interaction:TYR:89      2
Name: 52, dtype: object

>  <pistack:TYR:89>  (53) 
pistack:TYR:89    0.0
pistack:TYR:89      0
Name: 52, dtype: object

>  <hbond:TYR:89>  (53) 
hbond:TYR:89    NaN
hbond:TYR:89     -1
Name: 52, dtype: object

>  <halogenbond:TYR:89>  (53) 
halogenbond:TYR:89    NaN
halogenbond:TYR:89     -1
Name: 52, dtype: object

>  <hydroph_interaction:TYR:90>  (53) 
hydroph_interaction:TYR:90    0.0
hydroph_interaction:TYR:90      0
Name: 52, dtype: object

>  <hbond:TYR:90>  (53) 
hbond:TYR:90    NaN
hbond:TYR:90     -1
Name: 52, dtype: object

>  <pistack:TYR:90>  (53) 
pistack:TYR:90    0.0
pistack:TYR:90      0
Name: 52, dtype: object

>  <halogenbond:TYR:90>  (53) 
halogenbond:TYR:90    NaN
halogenbond:TYR:90     -1
Name: 52, dtype: object

>  <pication:TYR:90>  (53) 
pication:TYR:90    NaN
pication:TYR:90     -1
Name: 52, dtype: object

>  <hbond:PRO:91>  (53) 
hbond:PRO:91    NaN
hbond:PRO:91     -1
Name: 52, dtype: object

>  <hydroph_interaction:PRO:91>  (53) 
hydroph_interaction:PRO:91    NaN
hydroph_interaction:PRO:91     -1
Name: 52, dtype: object

>  <halogenbond:PRO:91>  (53) 
halogenbond:PRO:91    NaN
halogenbond:PRO:91     -1
Name: 52, dtype: object

>  <hbond:ALA:92>  (53) 
hbond:ALA:92    NaN
hbond:ALA:92     -1
Name: 52, dtype: object

>  <hydroph_interaction:ALA:92>  (53) 
hydroph_interaction:ALA:92    NaN
hydroph_interaction:ALA:92     -1
Name: 52, dtype: object

>  <saltbridge:ARG:93>  (53) 
saltbridge:ARG:93    NaN
saltbridge:ARG:93     -1
Name: 52, dtype: object

>  <hbond:ARG:93>  (53) 
hbond:ARG:93    0.0
hbond:ARG:93      0
Name: 52, dtype: object

>  <hydroph_interaction:ARG:93>  (53) 
hydroph_interaction:ARG:93    0.0
hydroph_interaction:ARG:93      0
Name: 52, dtype: object

>  <halogenbond:ARG:93>  (53) 
halogenbond:ARG:93    NaN
halogenbond:ARG:93     -1
Name: 52, dtype: object

>  <pication:ARG:93>  (53) 
pication:ARG:93    NaN
pication:ARG:93     -1
Name: 52, dtype: object

>  <hydroph_interaction:TYR:94>  (53) 
hydroph_interaction:TYR:94    NaN
hydroph_interaction:TYR:94     -1
Name: 52, dtype: object

>  <pistack:TYR:94>  (53) 
pistack:TYR:94    NaN
pistack:TYR:94     -1
Name: 52, dtype: object

>  <hbond:TYR:94>  (53) 
hbond:TYR:94    NaN
hbond:TYR:94     -1
Name: 52, dtype: object

>  <hbond:GLN:95>  (53) 
hbond:GLN:95    NaN
hbond:GLN:95     -1
Name: 52, dtype: object

>  <hydroph_interaction:GLN:95>  (53) 
hydroph_interaction:GLN:95    NaN
hydroph_interaction:GLN:95     -1
Name: 52, dtype: object

>  <halogenbond:GLN:95>  (53) 
halogenbond:GLN:95    0.0
halogenbond:GLN:95      0
Name: 52, dtype: object

>  <hbond:SER:96>  (53) 
hbond:SER:96    NaN
hbond:SER:96     -1
Name: 52, dtype: object

>  <halogenbond:HIS:97>  (53) 
halogenbond:HIS:97    NaN
halogenbond:HIS:97     -1
Name: 52, dtype: object

>  <hydroph_interaction:LEU:98>  (53) 
hydroph_interaction:LEU:98    NaN
hydroph_interaction:LEU:98     -1
Name: 52, dtype: object

>  <hbond:LEU:98>  (53) 
hbond:LEU:98    NaN
hbond:LEU:98     -1
Name: 52, dtype: object

>  <halogenbond:LEU:98>  (53) 
halogenbond:LEU:98    NaN
halogenbond:LEU:98     -1
Name: 52, dtype: object

>  <hbond:MET:99>  (53) 
hbond:MET:99    NaN
hbond:MET:99     -1
Name: 52, dtype: object

>  <hydroph_interaction:MET:99>  (53) 
hydroph_interaction:MET:99    NaN
hydroph_interaction:MET:99     -1
Name: 52, dtype: object

>  <halogenbond:MET:99>  (53) 
halogenbond:MET:99    NaN
halogenbond:MET:99     -1
Name: 52, dtype: object

>  <hydroph_interaction:LEU:100>  (53) 
hydroph_interaction:LEU:100    NaN
hydroph_interaction:LEU:100     -1
Name: 52, dtype: object

>  <hbond:LEU:100>  (53) 
hbond:LEU:100    NaN
hbond:LEU:100     -1
Name: 52, dtype: object

>  <hbond:ALA:101>  (53) 
hbond:ALA:101    NaN
hbond:ALA:101     -1
Name: 52, dtype: object

>  <hydroph_interaction:ALA:101>  (53) 
hydroph_interaction:ALA:101    NaN
hydroph_interaction:ALA:101     -1
Name: 52, dtype: object

>  <hydroph_interaction:VAL:102>  (53) 
hydroph_interaction:VAL:102    NaN
hydroph_interaction:VAL:102     -1
Name: 52, dtype: object

>  <hbond:VAL:102>  (53) 
hbond:VAL:102    NaN
hbond:VAL:102     -1
Name: 52, dtype: object

>  <hbond:GLY:103>  (53) 
hbond:GLY:103    NaN
hbond:GLY:103     -1
Name: 52, dtype: object

>  <halogenbond:GLY:103>  (53) 
halogenbond:GLY:103    NaN
halogenbond:GLY:103     -1
Name: 52, dtype: object

>  <hbond:HIS:104>  (53) 
hbond:HIS:104    NaN
hbond:HIS:104     -1
Name: 52, dtype: object

>  <saltbridge:HIS:104>  (53) 
saltbridge:HIS:104    NaN
saltbridge:HIS:104     -1
Name: 52, dtype: object

>  <pication:HIS:104>  (53) 
pication:HIS:104    NaN
pication:HIS:104     -1
Name: 52, dtype: object

>  <halogenbond:HIS:104>  (53) 
halogenbond:HIS:104    NaN
halogenbond:HIS:104     -1
Name: 52, dtype: object

>  <hydroph_interaction:HIS:104>  (53) 
hydroph_interaction:HIS:104    NaN
hydroph_interaction:HIS:104     -1
Name: 52, dtype: object

>  <pistack:HIS:104>  (53) 
pistack:HIS:104    NaN
pistack:HIS:104     -1
Name: 52, dtype: object

>  <halogenbond:SER:105>  (53) 
halogenbond:SER:105    0.0
halogenbond:SER:105      0
Name: 52, dtype: object

>  <hbond:SER:105>  (53) 
hbond:SER:105    0.0
hbond:SER:105      0
Name: 52, dtype: object

>  <hbond:GLU:106>  (53) 
hbond:GLU:106    0.0
hbond:GLU:106      0
Name: 52, dtype: object

>  <hydroph_interaction:GLU:106>  (53) 
hydroph_interaction:GLU:106    0.0
hydroph_interaction:GLU:106      0
Name: 52, dtype: object

>  <saltbridge:GLU:106>  (53) 
saltbridge:GLU:106    NaN
saltbridge:GLU:106     -1
Name: 52, dtype: object

>  <halogenbond:GLU:106>  (53) 
halogenbond:GLU:106    NaN
halogenbond:GLU:106     -1
Name: 52, dtype: object

>  <hydroph_interaction:PRO:107>  (53) 
hydroph_interaction:PRO:107    2
hydroph_interaction:PRO:107    2
Name: 52, dtype: object

>  <hbond:PRO:107>  (53) 
hbond:PRO:107    NaN
hbond:PRO:107     -1
Name: 52, dtype: object

>  <halogenbond:PRO:107>  (53) 
halogenbond:PRO:107    NaN
halogenbond:PRO:107     -1
Name: 52, dtype: object

>  <hbond:GLY:108>  (53) 
hbond:GLY:108    NaN
hbond:GLY:108     -1
Name: 52, dtype: object

>  <halogenbond:GLY:108>  (53) 
halogenbond:GLY:108    NaN
halogenbond:GLY:108     -1
Name: 52, dtype: object

>  <hbond:ASP:109>  (53) 
hbond:ASP:109    NaN
hbond:ASP:109     -1
Name: 52, dtype: object

>  <hydroph_interaction:ASP:109>  (53) 
hydroph_interaction:ASP:109    NaN
hydroph_interaction:ASP:109     -1
Name: 52, dtype: object

>  <saltbridge:ASP:109>  (53) 
saltbridge:ASP:109    NaN
saltbridge:ASP:109     -1
Name: 52, dtype: object

>  <halogenbond:CYS:110>  (53) 
halogenbond:CYS:110    NaN
halogenbond:CYS:110     -1
Name: 52, dtype: object

>  <hbond:CYS:110>  (53) 
hbond:CYS:110    NaN
hbond:CYS:110     -1
Name: 52, dtype: object

>  <hbond:GLY:111>  (53) 
hbond:GLY:111    NaN
hbond:GLY:111     -1
Name: 52, dtype: object

>  <hbond:GLY:112>  (53) 
hbond:GLY:112    NaN
hbond:GLY:112     -1
Name: 52, dtype: object

>  <hbond:ILE:113>  (53) 
hbond:ILE:113    NaN
hbond:ILE:113     -1
Name: 52, dtype: object

>  <hydroph_interaction:LEU:114>  (53) 
hydroph_interaction:LEU:114    NaN
hydroph_interaction:LEU:114     -1
Name: 52, dtype: object

>  <hbond:LEU:114>  (53) 
hbond:LEU:114    NaN
hbond:LEU:114     -1
Name: 52, dtype: object

>  <hydroph_interaction:ILE:123>  (53) 
hydroph_interaction:ILE:123    NaN
hydroph_interaction:ILE:123     -1
Name: 52, dtype: object

>  <hbond:ILE:123>  (53) 
hbond:ILE:123    NaN
hbond:ILE:123     -1
Name: 52, dtype: object

>  <hydroph_interaction:VAL:124>  (53) 
hydroph_interaction:VAL:124    0.0
hydroph_interaction:VAL:124      0
Name: 52, dtype: object

>  <hbond:VAL:124>  (53) 
hbond:VAL:124    NaN
hbond:VAL:124     -1
Name: 52, dtype: object

>  <halogenbond:VAL:124>  (53) 
halogenbond:VAL:124    NaN
halogenbond:VAL:124     -1
Name: 52, dtype: object

>  <hbond:SER:125>  (53) 
hbond:SER:125    1
hbond:SER:125    1
Name: 52, dtype: object

>  <halogenbond:SER:125>  (53) 
halogenbond:SER:125    NaN
halogenbond:SER:125     -1
Name: 52, dtype: object

>  <hydroph_interaction:THR:126>  (53) 
hydroph_interaction:THR:126    0.0
hydroph_interaction:THR:126      0
Name: 52, dtype: object

>  <hbond:THR:126>  (53) 
hbond:THR:126    0.0
hbond:THR:126      0
Name: 52, dtype: object

>  <halogenbond:THR:126>  (53) 
halogenbond:THR:126    NaN
halogenbond:THR:126     -1
Name: 52, dtype: object

>  <hbond:GLY:127>  (53) 
hbond:GLY:127    0
hbond:GLY:127    0
Name: 52, dtype: object

>  <halogenbond:GLY:127>  (53) 
halogenbond:GLY:127    NaN
halogenbond:GLY:127     -1
Name: 52, dtype: object

>  <hydroph_interaction:GLY:127>  (53) 
hydroph_interaction:GLY:127    NaN
hydroph_interaction:GLY:127     -1
Name: 52, dtype: object

>  <hbond:GLY:128>  (53) 
hbond:GLY:128    NaN
hbond:GLY:128     -1
Name: 52, dtype: object

>  <halogenbond:GLY:128>  (53) 
halogenbond:GLY:128    NaN
halogenbond:GLY:128     -1
Name: 52, dtype: object

>  <hydroph_interaction:GLY:128>  (53) 
hydroph_interaction:GLY:128    NaN
hydroph_interaction:GLY:128     -1
Name: 52, dtype: object

>  <hbond:ASN:129>  (53) 
hbond:ASN:129    NaN
hbond:ASN:129     -1
Name: 52, dtype: object

>  <hydroph_interaction:ASN:129>  (53) 
hydroph_interaction:ASN:129    NaN
hydroph_interaction:ASN:129     -1
Name: 52, dtype: object

>  <halogenbond:ASN:129>  (53) 
halogenbond:ASN:129    NaN
halogenbond:ASN:129     -1
Name: 52, dtype: object

>  <hbond:GLY:130>  (53) 
hbond:GLY:130    NaN
hbond:GLY:130     -1
Name: 52, dtype: object

>  <hbond:LEU:131>  (53) 
hbond:LEU:131    NaN
hbond:LEU:131     -1
Name: 52, dtype: object

>  <hydroph_interaction:LEU:131>  (53) 
hydroph_interaction:LEU:131    NaN
hydroph_interaction:LEU:131     -1
Name: 52, dtype: object

>  <halogenbond:LEU:131>  (53) 
halogenbond:LEU:131    NaN
halogenbond:LEU:131     -1
Name: 52, dtype: object

>  <hydroph_interaction:VAL:132>  (53) 
hydroph_interaction:VAL:132    NaN
hydroph_interaction:VAL:132     -1
Name: 52, dtype: object

>  <hbond:VAL:132>  (53) 
hbond:VAL:132    NaN
hbond:VAL:132     -1
Name: 52, dtype: object

>  <hbond:GLY:133>  (53) 
hbond:GLY:133    NaN
hbond:GLY:133     -1
Name: 52, dtype: object

>  <halogenbond:GLY:133>  (53) 
halogenbond:GLY:133    NaN
halogenbond:GLY:133     -1
Name: 52, dtype: object

>  <hydroph_interaction:PHE:134>  (53) 
hydroph_interaction:PHE:134    NaN
hydroph_interaction:PHE:134     -1
Name: 52, dtype: object

>  <hbond:PHE:134>  (53) 
hbond:PHE:134    NaN
hbond:PHE:134     -1
Name: 52, dtype: object

>  <pistack:PHE:134>  (53) 
pistack:PHE:134    NaN
pistack:PHE:134     -1
Name: 52, dtype: object

>  <pication:PHE:134>  (53) 
pication:PHE:134    NaN
pication:PHE:134     -1
Name: 52, dtype: object

>  <halogenbond:PHE:134>  (53) 
halogenbond:PHE:134    NaN
halogenbond:PHE:134     -1
Name: 52, dtype: object

>  <hydroph_interaction:ALA:135>  (53) 
hydroph_interaction:ALA:135    NaN
hydroph_interaction:ALA:135     -1
Name: 52, dtype: object

>  <hbond:ALA:135>  (53) 
hbond:ALA:135    NaN
hbond:ALA:135     -1
Name: 52, dtype: object

$$$$
PV_005012082848
     RDKit          3D

 27 28  0  0  0  0  0  0  0  0999 V2000
   10.2020    8.7480   22.8190 C   0  0  0  0  0  0  0  0  0  0  0  0
    9.6030   10.0140   23.3540 C   0  0  0  0  0  0  0  0  0  0  0  0
   10.2010   11.2090   22.7420 C   0  0  0  0  0  0  0  0  0  0  0  0
    9.6600   12.5190   23.2060 C   0  0  0  0  0  0  0  0  0  0  0  0
   10.2710   13.7420   22.5530 C   0  0  0  0  0  0  0  0  0  0  0  0
    9.6650   14.5870   21.9310 O   0  0  0  0  0  0  0  0  0  0  0  0
   11.6240   13.7420   22.7580 N   0  0  0  0  0  0  0  0  0  0  0  0
   12.0920   14.7110   21.9160 C   0  0  0  0  0  0  0  0  0  0  0  0
   12.2390   14.4060   20.5980 N   0  0  0  0  0  0  0  0  0  0  0  0
   12.4090   15.9870   22.2870 N   0  0  0  0  0  0  0  0  0  0  0  0
    8.6510   12.5470   24.1690 C   0  0  0  0  0  0  0  0  0  0  0  0
    8.0240   13.5870   24.7240 N   0  0  0  0  0  0  0  0  0  0  0  0
    7.0870   13.1780   25.6310 N   0  0  0  0  0  0  0  0  0  0  0  0
    7.1510   11.8490   25.6200 C   0  0  0  0  0  0  0  0  0  0  0  0
    8.1160   11.3820   24.7210 C   0  0  0  0  0  0  0  0  0  0  0  0
    8.5940   10.1300   24.3110 C   0  0  0  0  0  0  0  0  0  0  0  0
   11.1850    8.9620   22.4130 H   0  0  0  0  0  0  0  0  0  0  0  0
    9.5660    8.3640   22.0210 H   0  0  0  0  0  0  0  0  0  0  0  0
   10.3130    8.0010   23.5820 H   0  0  0  0  0  0  0  0  0  0  0  0
   10.9710   11.1160   22.0060 H   0  0  0  0  0  0  0  0  0  0  0  0
   12.0120   12.8070   22.8570 H   0  0  0  0  0  0  0  0  0  0  0  0
   12.0020   13.4630   20.2770 H   0  0  0  0  0  0  0  0  0  0  0  0
   11.6540   16.6660   22.2240 H   0  0  0  0  0  0  0  0  0  0  0  0
   13.2550   16.3370   21.8700 H   0  0  0  0  0  0  0  0  0  0  0  0
    8.1710   14.5760   24.5440 H   0  0  0  0  0  0  0  0  0  0  0  0
    6.4940   11.2790   26.2640 H   0  0  0  0  0  0  0  0  0  0  0  0
    8.1100    9.2890   24.7980 H   0  0  0  0  0  0  0  0  0  0  0  0
  1  2  1  0
  2  3  2  0
  3  4  1  0
  4  5  1  0
  5  6  2  0
  5  7  1  0
  7  8  1  0
  8  9  2  3
  8 10  1  0
  4 11  2  0
 11 12  1  0
 12 13  1  0
 13 14  2  0
 14 15  1  0
 15 16  2  0
 16  2  1  0
 15 11  1  0
  1 17  1  0
  1 18  1  0
  1 19  1  0
  3 20  1  0
  7 21  1  0
  9 22  1  0
 10 23  1  0
 10 24  1  0
 12 25  1  0
 14 26  1  0
 16 27  1  0
A    1
 C1 
A    2
 C2 
A    3
 C3 
A    4
 C4 
A    5
 C5 
A    6
 O1 
A    7
 N1 
A    8
 C6 
A    9
 N2 
A   10
 N3 
A   11
 C7 
A   12
 N4 
A   13
 N5 
A   14
 C8 
A   15
 C9 
A   16
 C10
A   17
 H1 
A   18
 H2 
A   19
 H3 
A   20
 H4 
A   21
 H5 
A   22
 H6 
A   23
 H7 
A   24
 H8 
A   25
 H9 
A   26
 H10
A   27
 H11
M  END
>  <ref_pdb>  (54) 
x0310_0A

>  <ref_mols>  (54) 
x0554_0A,x0528_0A

>  <original SMILES>  (54) 
Cc1cc(C(=O)NC(=N)N)c2[nH]ncc2c1

>  <rationale>  (54) 
info halogenbond:C110+G127+D39+A86+S125+E85+Q95+E106+E88+T126+H104+Y64+C65+S87+N129+F83+L131+I82+G128+P91+H21+V84+G133+Y90+Y89+H97+L81+F134+L98+R20+G103+S66+S67+S7+G108+R38+V124+M99+S36; hbond:S87+S125+E88+T126+D109+G108+G103+G128+G130+L131+N129+H104+R68+V124+P91+F83+S67+S66+G112+G133+V132+S77+A135+Y63+A92+A101+M99+F134+L100+I82+Y64+L98+V84+L81+Y94+S80+R38+S37+V102+G8+I123+G111+I113+L114+C65+L22+S96; hydroph_interaction:V124+N129+L40+I123+A135+I82+L100+L98+L131+F83+V132+Y63+F134+H104+A86+V74+P91+A101+F76+M99+L114+A92+Y94+R68+Y72+Y64+V18+V102+W28+G127+G128+L81; pication:H21+H104+Y63+F134+Y90+R68+F83+R20; pistack:H104+F134+Y63+F83+Y94; saltbridge:D39+H104+E106+D109+E85+E88+R68; 

>  <intxn_cluster>  (54) 
-1

>  <intxn_cluster_rank>  (54) 
-1

>  <N_interactions>  (54) 
6

>  <∆∆G>  (54) 
-8.801642

>  <$/mg>  (54) 
163.0

>  <comRMSD>  (54) 
0.987816

>  <N_rotatable_bonds>  (54) 
2

>  <deep_P1_sidechain>  (54) 
nan

>  <farthest_distance_to_substrate>  (54) 
2.346913

>  <hbond:SER:7>  (54) 
hbond:SER:7    0.0
hbond:SER:7      0
Name: 53, dtype: object

>  <halogenbond:SER:7>  (54) 
halogenbond:SER:7    NaN
halogenbond:SER:7     -1
Name: 53, dtype: object

>  <hbond:GLY:8>  (54) 
hbond:GLY:8    NaN
hbond:GLY:8     -1
Name: 53, dtype: object

>  <hydroph_interaction:VAL:18>  (54) 
hydroph_interaction:VAL:18    NaN
hydroph_interaction:VAL:18     -1
Name: 53, dtype: object

>  <hbond:ASN:19>  (54) 
hbond:ASN:19    0.0
hbond:ASN:19      0
Name: 53, dtype: object

>  <hydroph_interaction:ASN:19>  (54) 
hydroph_interaction:ASN:19    0.0
hydroph_interaction:ASN:19      0
Name: 53, dtype: object

>  <halogenbond:ASN:19>  (54) 
halogenbond:ASN:19    0.0
halogenbond:ASN:19      0
Name: 53, dtype: object

>  <hbond:ARG:20>  (54) 
hbond:ARG:20    0.0
hbond:ARG:20      0
Name: 53, dtype: object

>  <hydroph_interaction:ARG:20>  (54) 
hydroph_interaction:ARG:20    0.0
hydroph_interaction:ARG:20      0
Name: 53, dtype: object

>  <saltbridge:ARG:20>  (54) 
saltbridge:ARG:20    0.0
saltbridge:ARG:20      0
Name: 53, dtype: object

>  <halogenbond:ARG:20>  (54) 
halogenbond:ARG:20    NaN
halogenbond:ARG:20     -1
Name: 53, dtype: object

>  <pication:ARG:20>  (54) 
pication:ARG:20    NaN
pication:ARG:20     -1
Name: 53, dtype: object

>  <hbond:HIS:21>  (54) 
hbond:HIS:21    0.0
hbond:HIS:21      0
Name: 53, dtype: object

>  <hydroph_interaction:HIS:21>  (54) 
hydroph_interaction:HIS:21    0.0
hydroph_interaction:HIS:21      0
Name: 53, dtype: object

>  <pistack:HIS:21>  (54) 
pistack:HIS:21    0.0
pistack:HIS:21      0
Name: 53, dtype: object

>  <pication:HIS:21>  (54) 
pication:HIS:21    1.0
pication:HIS:21      1
Name: 53, dtype: object

>  <saltbridge:HIS:21>  (54) 
saltbridge:HIS:21    0.0
saltbridge:HIS:21      0
Name: 53, dtype: object

>  <halogenbond:HIS:21>  (54) 
halogenbond:HIS:21    NaN
halogenbond:HIS:21     -1
Name: 53, dtype: object

>  <hydroph_interaction:LEU:22>  (54) 
hydroph_interaction:LEU:22    0.0
hydroph_interaction:LEU:22      0
Name: 53, dtype: object

>  <hbond:LEU:22>  (54) 
hbond:LEU:22    NaN
hbond:LEU:22     -1
Name: 53, dtype: object

>  <hydroph_interaction:TRP:28>  (54) 
hydroph_interaction:TRP:28    NaN
hydroph_interaction:TRP:28     -1
Name: 53, dtype: object

>  <hbond:SER:36>  (54) 
hbond:SER:36    0.0
hbond:SER:36      0
Name: 53, dtype: object

>  <halogenbond:SER:36>  (54) 
halogenbond:SER:36    NaN
halogenbond:SER:36     -1
Name: 53, dtype: object

>  <hbond:SER:37>  (54) 
hbond:SER:37    NaN
hbond:SER:37     -1
Name: 53, dtype: object

>  <hbond:ARG:38>  (54) 
hbond:ARG:38    NaN
hbond:ARG:38     -1
Name: 53, dtype: object

>  <halogenbond:ARG:38>  (54) 
halogenbond:ARG:38    NaN
halogenbond:ARG:38     -1
Name: 53, dtype: object

>  <saltbridge:ASP:39>  (54) 
saltbridge:ASP:39    1.0
saltbridge:ASP:39      1
Name: 53, dtype: object

>  <halogenbond:ASP:39>  (54) 
halogenbond:ASP:39    NaN
halogenbond:ASP:39     -1
Name: 53, dtype: object

>  <hbond:ASP:39>  (54) 
hbond:ASP:39    0.0
hbond:ASP:39      0
Name: 53, dtype: object

>  <hydroph_interaction:ASP:39>  (54) 
hydroph_interaction:ASP:39    0.0
hydroph_interaction:ASP:39      0
Name: 53, dtype: object

>  <hydroph_interaction:LEU:40>  (54) 
hydroph_interaction:LEU:40    NaN
hydroph_interaction:LEU:40     -1
Name: 53, dtype: object

>  <hydroph_interaction:TYR:63>  (54) 
hydroph_interaction:TYR:63    NaN
hydroph_interaction:TYR:63     -1
Name: 53, dtype: object

>  <hbond:TYR:63>  (54) 
hbond:TYR:63    NaN
hbond:TYR:63     -1
Name: 53, dtype: object

>  <pistack:TYR:63>  (54) 
pistack:TYR:63    NaN
pistack:TYR:63     -1
Name: 53, dtype: object

>  <pication:TYR:63>  (54) 
pication:TYR:63    NaN
pication:TYR:63     -1
Name: 53, dtype: object

>  <halogenbond:TYR:64>  (54) 
halogenbond:TYR:64    NaN
halogenbond:TYR:64     -1
Name: 53, dtype: object

>  <hbond:TYR:64>  (54) 
hbond:TYR:64    NaN
hbond:TYR:64     -1
Name: 53, dtype: object

>  <hydroph_interaction:TYR:64>  (54) 
hydroph_interaction:TYR:64    NaN
hydroph_interaction:TYR:64     -1
Name: 53, dtype: object

>  <halogenbond:CYS:65>  (54) 
halogenbond:CYS:65    NaN
halogenbond:CYS:65     -1
Name: 53, dtype: object

>  <hbond:CYS:65>  (54) 
hbond:CYS:65    NaN
hbond:CYS:65     -1
Name: 53, dtype: object

>  <hbond:SER:66>  (54) 
hbond:SER:66    NaN
hbond:SER:66     -1
Name: 53, dtype: object

>  <halogenbond:SER:66>  (54) 
halogenbond:SER:66    NaN
halogenbond:SER:66     -1
Name: 53, dtype: object

>  <hbond:SER:67>  (54) 
hbond:SER:67    NaN
hbond:SER:67     -1
Name: 53, dtype: object

>  <halogenbond:SER:67>  (54) 
halogenbond:SER:67    NaN
halogenbond:SER:67     -1
Name: 53, dtype: object

>  <hbond:ARG:68>  (54) 
hbond:ARG:68    NaN
hbond:ARG:68     -1
Name: 53, dtype: object

>  <saltbridge:ARG:68>  (54) 
saltbridge:ARG:68    NaN
saltbridge:ARG:68     -1
Name: 53, dtype: object

>  <hydroph_interaction:ARG:68>  (54) 
hydroph_interaction:ARG:68    NaN
hydroph_interaction:ARG:68     -1
Name: 53, dtype: object

>  <pication:ARG:68>  (54) 
pication:ARG:68    NaN
pication:ARG:68     -1
Name: 53, dtype: object

>  <hydroph_interaction:TYR:72>  (54) 
hydroph_interaction:TYR:72    NaN
hydroph_interaction:TYR:72     -1
Name: 53, dtype: object

>  <hydroph_interaction:VAL:74>  (54) 
hydroph_interaction:VAL:74    NaN
hydroph_interaction:VAL:74     -1
Name: 53, dtype: object

>  <hydroph_interaction:PHE:76>  (54) 
hydroph_interaction:PHE:76    NaN
hydroph_interaction:PHE:76     -1
Name: 53, dtype: object

>  <hbond:SER:77>  (54) 
hbond:SER:77    NaN
hbond:SER:77     -1
Name: 53, dtype: object

>  <hbond:SER:80>  (54) 
hbond:SER:80    NaN
hbond:SER:80     -1
Name: 53, dtype: object

>  <hbond:LEU:81>  (54) 
hbond:LEU:81    NaN
hbond:LEU:81     -1
Name: 53, dtype: object

>  <halogenbond:LEU:81>  (54) 
halogenbond:LEU:81    NaN
halogenbond:LEU:81     -1
Name: 53, dtype: object

>  <hydroph_interaction:LEU:81>  (54) 
hydroph_interaction:LEU:81    NaN
hydroph_interaction:LEU:81     -1
Name: 53, dtype: object

>  <hydroph_interaction:ILE:82>  (54) 
hydroph_interaction:ILE:82    NaN
hydroph_interaction:ILE:82     -1
Name: 53, dtype: object

>  <halogenbond:ILE:82>  (54) 
halogenbond:ILE:82    NaN
halogenbond:ILE:82     -1
Name: 53, dtype: object

>  <hbond:ILE:82>  (54) 
hbond:ILE:82    NaN
hbond:ILE:82     -1
Name: 53, dtype: object

>  <hbond:PHE:83>  (54) 
hbond:PHE:83    NaN
hbond:PHE:83     -1
Name: 53, dtype: object

>  <hydroph_interaction:PHE:83>  (54) 
hydroph_interaction:PHE:83    NaN
hydroph_interaction:PHE:83     -1
Name: 53, dtype: object

>  <halogenbond:PHE:83>  (54) 
halogenbond:PHE:83    NaN
halogenbond:PHE:83     -1
Name: 53, dtype: object

>  <pistack:PHE:83>  (54) 
pistack:PHE:83    NaN
pistack:PHE:83     -1
Name: 53, dtype: object

>  <pication:PHE:83>  (54) 
pication:PHE:83    NaN
pication:PHE:83     -1
Name: 53, dtype: object

>  <hydroph_interaction:VAL:84>  (54) 
hydroph_interaction:VAL:84    0.0
hydroph_interaction:VAL:84      0
Name: 53, dtype: object

>  <halogenbond:VAL:84>  (54) 
halogenbond:VAL:84    NaN
halogenbond:VAL:84     -1
Name: 53, dtype: object

>  <hbond:VAL:84>  (54) 
hbond:VAL:84    NaN
hbond:VAL:84     -1
Name: 53, dtype: object

>  <hydroph_interaction:GLU:85>  (54) 
hydroph_interaction:GLU:85    0.0
hydroph_interaction:GLU:85      0
Name: 53, dtype: object

>  <hbond:GLU:85>  (54) 
hbond:GLU:85    0.0
hbond:GLU:85      0
Name: 53, dtype: object

>  <halogenbond:GLU:85>  (54) 
halogenbond:GLU:85    NaN
halogenbond:GLU:85     -1
Name: 53, dtype: object

>  <saltbridge:GLU:85>  (54) 
saltbridge:GLU:85    NaN
saltbridge:GLU:85     -1
Name: 53, dtype: object

>  <halogenbond:ALA:86>  (54) 
halogenbond:ALA:86    NaN
halogenbond:ALA:86     -1
Name: 53, dtype: object

>  <hbond:ALA:86>  (54) 
hbond:ALA:86    0.0
hbond:ALA:86      0
Name: 53, dtype: object

>  <hydroph_interaction:ALA:86>  (54) 
hydroph_interaction:ALA:86    NaN
hydroph_interaction:ALA:86     -1
Name: 53, dtype: object

>  <hbond:SER:87>  (54) 
hbond:SER:87    1
hbond:SER:87    1
Name: 53, dtype: object

>  <halogenbond:SER:87>  (54) 
halogenbond:SER:87    NaN
halogenbond:SER:87     -1
Name: 53, dtype: object

>  <hbond:GLU:88>  (54) 
hbond:GLU:88    1.0
hbond:GLU:88      1
Name: 53, dtype: object

>  <hydroph_interaction:GLU:88>  (54) 
hydroph_interaction:GLU:88    0.0
hydroph_interaction:GLU:88      0
Name: 53, dtype: object

>  <halogenbond:GLU:88>  (54) 
halogenbond:GLU:88    NaN
halogenbond:GLU:88     -1
Name: 53, dtype: object

>  <saltbridge:GLU:88>  (54) 
saltbridge:GLU:88    NaN
saltbridge:GLU:88     -1
Name: 53, dtype: object

>  <hydroph_interaction:TYR:89>  (54) 
hydroph_interaction:TYR:89    0.0
hydroph_interaction:TYR:89      0
Name: 53, dtype: object

>  <pistack:TYR:89>  (54) 
pistack:TYR:89    0.0
pistack:TYR:89      0
Name: 53, dtype: object

>  <hbond:TYR:89>  (54) 
hbond:TYR:89    0.0
hbond:TYR:89      0
Name: 53, dtype: object

>  <halogenbond:TYR:89>  (54) 
halogenbond:TYR:89    NaN
halogenbond:TYR:89     -1
Name: 53, dtype: object

>  <hydroph_interaction:TYR:90>  (54) 
hydroph_interaction:TYR:90    0.0
hydroph_interaction:TYR:90      0
Name: 53, dtype: object

>  <hbond:TYR:90>  (54) 
hbond:TYR:90    0.0
hbond:TYR:90      0
Name: 53, dtype: object

>  <pistack:TYR:90>  (54) 
pistack:TYR:90    0.0
pistack:TYR:90      0
Name: 53, dtype: object

>  <halogenbond:TYR:90>  (54) 
halogenbond:TYR:90    NaN
halogenbond:TYR:90     -1
Name: 53, dtype: object

>  <pication:TYR:90>  (54) 
pication:TYR:90    NaN
pication:TYR:90     -1
Name: 53, dtype: object

>  <hbond:PRO:91>  (54) 
hbond:PRO:91    NaN
hbond:PRO:91     -1
Name: 53, dtype: object

>  <hydroph_interaction:PRO:91>  (54) 
hydroph_interaction:PRO:91    NaN
hydroph_interaction:PRO:91     -1
Name: 53, dtype: object

>  <halogenbond:PRO:91>  (54) 
halogenbond:PRO:91    NaN
halogenbond:PRO:91     -1
Name: 53, dtype: object

>  <hbond:ALA:92>  (54) 
hbond:ALA:92    NaN
hbond:ALA:92     -1
Name: 53, dtype: object

>  <hydroph_interaction:ALA:92>  (54) 
hydroph_interaction:ALA:92    NaN
hydroph_interaction:ALA:92     -1
Name: 53, dtype: object

>  <saltbridge:ARG:93>  (54) 
saltbridge:ARG:93    0.0
saltbridge:ARG:93      0
Name: 53, dtype: object

>  <hbond:ARG:93>  (54) 
hbond:ARG:93    0.0
hbond:ARG:93      0
Name: 53, dtype: object

>  <hydroph_interaction:ARG:93>  (54) 
hydroph_interaction:ARG:93    0.0
hydroph_interaction:ARG:93      0
Name: 53, dtype: object

>  <halogenbond:ARG:93>  (54) 
halogenbond:ARG:93    0.0
halogenbond:ARG:93      0
Name: 53, dtype: object

>  <pication:ARG:93>  (54) 
pication:ARG:93    0.0
pication:ARG:93      0
Name: 53, dtype: object

>  <hydroph_interaction:TYR:94>  (54) 
hydroph_interaction:TYR:94    NaN
hydroph_interaction:TYR:94     -1
Name: 53, dtype: object

>  <pistack:TYR:94>  (54) 
pistack:TYR:94    NaN
pistack:TYR:94     -1
Name: 53, dtype: object

>  <hbond:TYR:94>  (54) 
hbond:TYR:94    NaN
hbond:TYR:94     -1
Name: 53, dtype: object

>  <hbond:GLN:95>  (54) 
hbond:GLN:95    0.0
hbond:GLN:95      0
Name: 53, dtype: object

>  <hydroph_interaction:GLN:95>  (54) 
hydroph_interaction:GLN:95    0.0
hydroph_interaction:GLN:95      0
Name: 53, dtype: object

>  <halogenbond:GLN:95>  (54) 
halogenbond:GLN:95    NaN
halogenbond:GLN:95     -1
Name: 53, dtype: object

>  <hbond:SER:96>  (54) 
hbond:SER:96    NaN
hbond:SER:96     -1
Name: 53, dtype: object

>  <halogenbond:HIS:97>  (54) 
halogenbond:HIS:97    NaN
halogenbond:HIS:97     -1
Name: 53, dtype: object

>  <hydroph_interaction:LEU:98>  (54) 
hydroph_interaction:LEU:98    NaN
hydroph_interaction:LEU:98     -1
Name: 53, dtype: object

>  <hbond:LEU:98>  (54) 
hbond:LEU:98    NaN
hbond:LEU:98     -1
Name: 53, dtype: object

>  <halogenbond:LEU:98>  (54) 
halogenbond:LEU:98    NaN
halogenbond:LEU:98     -1
Name: 53, dtype: object

>  <hbond:MET:99>  (54) 
hbond:MET:99    NaN
hbond:MET:99     -1
Name: 53, dtype: object

>  <hydroph_interaction:MET:99>  (54) 
hydroph_interaction:MET:99    NaN
hydroph_interaction:MET:99     -1
Name: 53, dtype: object

>  <halogenbond:MET:99>  (54) 
halogenbond:MET:99    NaN
halogenbond:MET:99     -1
Name: 53, dtype: object

>  <hydroph_interaction:LEU:100>  (54) 
hydroph_interaction:LEU:100    NaN
hydroph_interaction:LEU:100     -1
Name: 53, dtype: object

>  <hbond:LEU:100>  (54) 
hbond:LEU:100    NaN
hbond:LEU:100     -1
Name: 53, dtype: object

>  <hbond:ALA:101>  (54) 
hbond:ALA:101    NaN
hbond:ALA:101     -1
Name: 53, dtype: object

>  <hydroph_interaction:ALA:101>  (54) 
hydroph_interaction:ALA:101    NaN
hydroph_interaction:ALA:101     -1
Name: 53, dtype: object

>  <hydroph_interaction:VAL:102>  (54) 
hydroph_interaction:VAL:102    NaN
hydroph_interaction:VAL:102     -1
Name: 53, dtype: object

>  <hbond:VAL:102>  (54) 
hbond:VAL:102    NaN
hbond:VAL:102     -1
Name: 53, dtype: object

>  <hbond:GLY:103>  (54) 
hbond:GLY:103    NaN
hbond:GLY:103     -1
Name: 53, dtype: object

>  <halogenbond:GLY:103>  (54) 
halogenbond:GLY:103    NaN
halogenbond:GLY:103     -1
Name: 53, dtype: object

>  <hbond:HIS:104>  (54) 
hbond:HIS:104    NaN
hbond:HIS:104     -1
Name: 53, dtype: object

>  <saltbridge:HIS:104>  (54) 
saltbridge:HIS:104    NaN
saltbridge:HIS:104     -1
Name: 53, dtype: object

>  <pication:HIS:104>  (54) 
pication:HIS:104    NaN
pication:HIS:104     -1
Name: 53, dtype: object

>  <halogenbond:HIS:104>  (54) 
halogenbond:HIS:104    NaN
halogenbond:HIS:104     -1
Name: 53, dtype: object

>  <hydroph_interaction:HIS:104>  (54) 
hydroph_interaction:HIS:104    NaN
hydroph_interaction:HIS:104     -1
Name: 53, dtype: object

>  <pistack:HIS:104>  (54) 
pistack:HIS:104    NaN
pistack:HIS:104     -1
Name: 53, dtype: object

>  <halogenbond:SER:105>  (54) 
halogenbond:SER:105    0.0
halogenbond:SER:105      0
Name: 53, dtype: object

>  <hbond:SER:105>  (54) 
hbond:SER:105    0.0
hbond:SER:105      0
Name: 53, dtype: object

>  <hbond:GLU:106>  (54) 
hbond:GLU:106    0.0
hbond:GLU:106      0
Name: 53, dtype: object

>  <hydroph_interaction:GLU:106>  (54) 
hydroph_interaction:GLU:106    0.0
hydroph_interaction:GLU:106      0
Name: 53, dtype: object

>  <saltbridge:GLU:106>  (54) 
saltbridge:GLU:106    NaN
saltbridge:GLU:106     -1
Name: 53, dtype: object

>  <halogenbond:GLU:106>  (54) 
halogenbond:GLU:106    NaN
halogenbond:GLU:106     -1
Name: 53, dtype: object

>  <hydroph_interaction:PRO:107>  (54) 
hydroph_interaction:PRO:107    0
hydroph_interaction:PRO:107    0
Name: 53, dtype: object

>  <hbond:PRO:107>  (54) 
hbond:PRO:107    0.0
hbond:PRO:107      0
Name: 53, dtype: object

>  <halogenbond:PRO:107>  (54) 
halogenbond:PRO:107    0.0
halogenbond:PRO:107      0
Name: 53, dtype: object

>  <hbond:GLY:108>  (54) 
hbond:GLY:108    NaN
hbond:GLY:108     -1
Name: 53, dtype: object

>  <halogenbond:GLY:108>  (54) 
halogenbond:GLY:108    NaN
halogenbond:GLY:108     -1
Name: 53, dtype: object

>  <hbond:ASP:109>  (54) 
hbond:ASP:109    NaN
hbond:ASP:109     -1
Name: 53, dtype: object

>  <hydroph_interaction:ASP:109>  (54) 
hydroph_interaction:ASP:109    0.0
hydroph_interaction:ASP:109      0
Name: 53, dtype: object

>  <saltbridge:ASP:109>  (54) 
saltbridge:ASP:109    NaN
saltbridge:ASP:109     -1
Name: 53, dtype: object

>  <halogenbond:CYS:110>  (54) 
halogenbond:CYS:110    NaN
halogenbond:CYS:110     -1
Name: 53, dtype: object

>  <hbond:CYS:110>  (54) 
hbond:CYS:110    0.0
hbond:CYS:110      0
Name: 53, dtype: object

>  <hbond:GLY:111>  (54) 
hbond:GLY:111    NaN
hbond:GLY:111     -1
Name: 53, dtype: object

>  <hbond:GLY:112>  (54) 
hbond:GLY:112    NaN
hbond:GLY:112     -1
Name: 53, dtype: object

>  <hbond:ILE:113>  (54) 
hbond:ILE:113    NaN
hbond:ILE:113     -1
Name: 53, dtype: object

>  <hydroph_interaction:LEU:114>  (54) 
hydroph_interaction:LEU:114    NaN
hydroph_interaction:LEU:114     -1
Name: 53, dtype: object

>  <hbond:LEU:114>  (54) 
hbond:LEU:114    NaN
hbond:LEU:114     -1
Name: 53, dtype: object

>  <hydroph_interaction:ILE:123>  (54) 
hydroph_interaction:ILE:123    NaN
hydroph_interaction:ILE:123     -1
Name: 53, dtype: object

>  <hbond:ILE:123>  (54) 
hbond:ILE:123    NaN
hbond:ILE:123     -1
Name: 53, dtype: object

>  <hydroph_interaction:VAL:124>  (54) 
hydroph_interaction:VAL:124    1.0
hydroph_interaction:VAL:124      1
Name: 53, dtype: object

>  <hbond:VAL:124>  (54) 
hbond:VAL:124    NaN
hbond:VAL:124     -1
Name: 53, dtype: object

>  <halogenbond:VAL:124>  (54) 
halogenbond:VAL:124    NaN
halogenbond:VAL:124     -1
Name: 53, dtype: object

>  <hbond:SER:125>  (54) 
hbond:SER:125    1
hbond:SER:125    1
Name: 53, dtype: object

>  <halogenbond:SER:125>  (54) 
halogenbond:SER:125    NaN
halogenbond:SER:125     -1
Name: 53, dtype: object

>  <hydroph_interaction:THR:126>  (54) 
hydroph_interaction:THR:126    0.0
hydroph_interaction:THR:126      0
Name: 53, dtype: object

>  <hbond:THR:126>  (54) 
hbond:THR:126    NaN
hbond:THR:126     -1
Name: 53, dtype: object

>  <halogenbond:THR:126>  (54) 
halogenbond:THR:126    NaN
halogenbond:THR:126     -1
Name: 53, dtype: object

>  <hbond:GLY:127>  (54) 
hbond:GLY:127    0
hbond:GLY:127    0
Name: 53, dtype: object

>  <halogenbond:GLY:127>  (54) 
halogenbond:GLY:127    NaN
halogenbond:GLY:127     -1
Name: 53, dtype: object

>  <hydroph_interaction:GLY:127>  (54) 
hydroph_interaction:GLY:127    NaN
hydroph_interaction:GLY:127     -1
Name: 53, dtype: object

>  <hbond:GLY:128>  (54) 
hbond:GLY:128    NaN
hbond:GLY:128     -1
Name: 53, dtype: object

>  <halogenbond:GLY:128>  (54) 
halogenbond:GLY:128    NaN
halogenbond:GLY:128     -1
Name: 53, dtype: object

>  <hydroph_interaction:GLY:128>  (54) 
hydroph_interaction:GLY:128    NaN
hydroph_interaction:GLY:128     -1
Name: 53, dtype: object

>  <hbond:ASN:129>  (54) 
hbond:ASN:129    NaN
hbond:ASN:129     -1
Name: 53, dtype: object

>  <hydroph_interaction:ASN:129>  (54) 
hydroph_interaction:ASN:129    NaN
hydroph_interaction:ASN:129     -1
Name: 53, dtype: object

>  <halogenbond:ASN:129>  (54) 
halogenbond:ASN:129    NaN
halogenbond:ASN:129     -1
Name: 53, dtype: object

>  <hbond:GLY:130>  (54) 
hbond:GLY:130    NaN
hbond:GLY:130     -1
Name: 53, dtype: object

>  <hbond:LEU:131>  (54) 
hbond:LEU:131    NaN
hbond:LEU:131     -1
Name: 53, dtype: object

>  <hydroph_interaction:LEU:131>  (54) 
hydroph_interaction:LEU:131    NaN
hydroph_interaction:LEU:131     -1
Name: 53, dtype: object

>  <halogenbond:LEU:131>  (54) 
halogenbond:LEU:131    NaN
halogenbond:LEU:131     -1
Name: 53, dtype: object

>  <hydroph_interaction:VAL:132>  (54) 
hydroph_interaction:VAL:132    NaN
hydroph_interaction:VAL:132     -1
Name: 53, dtype: object

>  <hbond:VAL:132>  (54) 
hbond:VAL:132    NaN
hbond:VAL:132     -1
Name: 53, dtype: object

>  <hbond:GLY:133>  (54) 
hbond:GLY:133    NaN
hbond:GLY:133     -1
Name: 53, dtype: object

>  <halogenbond:GLY:133>  (54) 
halogenbond:GLY:133    NaN
halogenbond:GLY:133     -1
Name: 53, dtype: object

>  <hydroph_interaction:PHE:134>  (54) 
hydroph_interaction:PHE:134    NaN
hydroph_interaction:PHE:134     -1
Name: 53, dtype: object

>  <hbond:PHE:134>  (54) 
hbond:PHE:134    NaN
hbond:PHE:134     -1
Name: 53, dtype: object

>  <pistack:PHE:134>  (54) 
pistack:PHE:134    NaN
pistack:PHE:134     -1
Name: 53, dtype: object

>  <pication:PHE:134>  (54) 
pication:PHE:134    NaN
pication:PHE:134     -1
Name: 53, dtype: object

>  <halogenbond:PHE:134>  (54) 
halogenbond:PHE:134    NaN
halogenbond:PHE:134     -1
Name: 53, dtype: object

>  <hydroph_interaction:ALA:135>  (54) 
hydroph_interaction:ALA:135    NaN
hydroph_interaction:ALA:135     -1
Name: 53, dtype: object

>  <hbond:ALA:135>  (54) 
hbond:ALA:135    NaN
hbond:ALA:135     -1
Name: 53, dtype: object

$$$$
Z739870566
     RDKit          3D

 34 34  0  0  0  0  0  0  0  0999 V2000
   13.3740   15.9350   20.7820 C   0  0  0  0  0  0  0  0  0  0  0  0
   12.4630   14.8000   20.3930 C   0  0  0  0  0  0  0  0  0  0  0  0
   11.9280   14.1240   21.6380 C   0  0  0  0  0  0  0  0  0  0  0  0
   10.4130   14.2240   21.8680 C   0  0  0  0  0  0  0  0  0  0  0  0
    9.6220   14.5560   20.9860 O   0  0  0  0  0  0  0  0  0  0  0  0
   10.1200   13.8860   23.2420 N   0  0  0  0  0  0  0  0  0  0  0  0
   10.9990   14.3050   24.2110 C   0  0  0  0  0  0  0  0  0  0  0  0
    9.5890   12.5840   23.5260 C   0  0  0  0  0  0  0  0  0  0  0  0
    8.5440   12.4350   24.4290 C   0  0  0  0  0  0  0  0  0  0  0  0
    8.1120   11.1450   24.6560 C   0  0  0  0  0  0  0  0  0  0  0  0
    7.0500   11.1170   25.5860 C   0  0  0  0  0  0  0  0  0  0  0  0
    8.6540   10.0260   24.0450 C   0  0  0  0  0  0  0  0  0  0  0  0
    9.6780   10.1780   23.1470 C   0  0  0  0  0  0  0  0  0  0  0  0
   10.2860    9.0180   22.4580 C   0  0  0  0  0  0  0  0  0  0  0  0
   10.1330   11.4620   22.8990 C   0  0  0  0  0  0  0  0  0  0  0  0
   12.8090   16.8660   20.8960 H   0  0  0  0  0  0  0  0  0  0  0  0
   14.1420   16.0850   20.0250 H   0  0  0  0  0  0  0  0  0  0  0  0
   13.8810   15.7220   21.7260 H   0  0  0  0  0  0  0  0  0  0  0  0
   11.6180   15.1970   19.8160 H   0  0  0  0  0  0  0  0  0  0  0  0
   12.9870   14.0890   19.7420 H   0  0  0  0  0  0  0  0  0  0  0  0
   12.2360   13.0780   21.6310 H   0  0  0  0  0  0  0  0  0  0  0  0
   12.4490   14.5760   22.4930 H   0  0  0  0  0  0  0  0  0  0  0  0
   11.7210   13.5030   24.3910 H   0  0  0  0  0  0  0  0  0  0  0  0
   11.5510   15.1970   23.9150 H   0  0  0  0  0  0  0  0  0  0  0  0
   10.4710   14.5670   25.1280 H   0  0  0  0  0  0  0  0  0  0  0  0
    8.0750   13.2670   24.9470 H   0  0  0  0  0  0  0  0  0  0  0  0
    6.3010   11.8420   25.2590 H   0  0  0  0  0  0  0  0  0  0  0  0
    6.5860   10.1300   25.5060 H   0  0  0  0  0  0  0  0  0  0  0  0
    7.1430   11.3070   26.6440 H   0  0  0  0  0  0  0  0  0  0  0  0
    8.2730    9.0450   24.2670 H   0  0  0  0  0  0  0  0  0  0  0  0
   10.8610    9.3750   21.6060 H   0  0  0  0  0  0  0  0  0  0  0  0
   10.9430    8.4580   23.1300 H   0  0  0  0  0  0  0  0  0  0  0  0
    9.5230    8.3380   22.0980 H   0  0  0  0  0  0  0  0  0  0  0  0
   10.9430   11.5720   22.1930 H   0  0  0  0  0  0  0  0  0  0  0  0
  1  2  1  0
  2  3  1  0
  3  4  1  0
  4  5  2  0
  4  6  1  0
  6  7  1  0
  6  8  1  0
  8  9  2  0
  9 10  1  0
 10 11  1  0
 10 12  2  0
 12 13  1  0
 13 14  1  0
 13 15  2  0
 15  8  1  0
  1 16  1  0
  1 17  1  0
  1 18  1  0
  2 19  1  0
  2 20  1  0
  3 21  1  0
  3 22  1  0
  7 23  1  0
  7 24  1  0
  7 25  1  0
  9 26  1  0
 11 27  1  0
 11 28  1  0
 11 29  1  0
 12 30  1  0
 14 31  1  0
 14 32  1  0
 14 33  1  0
 15 34  1  0
A    1
 C1 
A    2
 C2 
A    3
 C3 
A    4
 C4 
A    5
 O1 
A    6
 N1 
A    7
 C5 
A    8
 C6 
A    9
 C7 
A   10
 C8 
A   11
 C9 
A   12
 C10
A   13
 C11
A   14
 C12
A   15
 C13
A   16
 H1 
A   17
 H2 
A   18
 H3 
A   19
 H4 
A   20
 H5 
A   21
 H6 
A   22
 H7 
A   23
 H8 
A   24
 H9 
A   25
 H10
A   26
 H11
A   27
 H12
A   28
 H13
A   29
 H14
A   30
 H15
A   31
 H16
A   32
 H17
A   33
 H18
A   34
 H19
M  END
>  <ref_pdb>  (55) 
x0310_0A

>  <ref_mols>  (55) 
x0451_0A,x0739_0A

>  <original SMILES>  (55) 
CCCC(=O)N(C)c1cc(C)cc(C)c1

>  <rationale>  (55) 
info halogenbond:G127+A86+S125+E85+Q95+E106+T126+H104+Y64+C65+S87+N129+F83+R93+L131+I82+G128+P91+N19+H21+V84+G133+Y90+Y89+H97+L81+F134+L98+R20+G103+S66+S67+S7+G108+R38+V124+M99+S36; hbond:S87+G108+G103+G128+G130+L131+N129+N19+R68+V124+P91+F83+S67+S7+S66+G112+G133+V132+R20+Y89+S77+A135+Y63+A92+A101+M99+F134+L100+I82+Y64+S36+L98+V84+L81+Y94+S80+R38+S37+V102+G8+I123+G111+I113+L114+C65+L22+S96; hydroph_interaction:V124+Y90+Y89+H21+P107+N129+D39+N19+L40+I123+A135+Q95+I82+L100+L98+L131+F83+R93+F134+H104+R20+A86+V74+P91+A101+F76+M99+L114+A92+Y94+R68+Y72+Y64+V18+V102+W28+G127+G128+L81; pication:H21+H104+R93+Y63+F134+Y90+R68+F83+R20; pistack:H21+Y89+Y90+H104+F134+Y63+F83+Y94; saltbridge:R93+H104+E106+D109+E85+E88+R68+R20; 

>  <intxn_cluster>  (55) 
-1

>  <intxn_cluster_rank>  (55) 
-1

>  <N_interactions>  (55) 
6

>  <∆∆G>  (55) 
-14.320634

>  <$/mg>  (55) 
163.0

>  <comRMSD>  (55) 
0.723011

>  <N_rotatable_bonds>  (55) 
7

>  <deep_P1_sidechain>  (55) 
nan

>  <farthest_distance_to_substrate>  (55) 
2.396487

>  <hbond:SER:7>  (55) 
hbond:SER:7    NaN
hbond:SER:7     -1
Name: 54, dtype: object

>  <halogenbond:SER:7>  (55) 
halogenbond:SER:7    NaN
halogenbond:SER:7     -1
Name: 54, dtype: object

>  <hbond:GLY:8>  (55) 
hbond:GLY:8    NaN
hbond:GLY:8     -1
Name: 54, dtype: object

>  <hydroph_interaction:VAL:18>  (55) 
hydroph_interaction:VAL:18    NaN
hydroph_interaction:VAL:18     -1
Name: 54, dtype: object

>  <hbond:ASN:19>  (55) 
hbond:ASN:19    NaN
hbond:ASN:19     -1
Name: 54, dtype: object

>  <hydroph_interaction:ASN:19>  (55) 
hydroph_interaction:ASN:19    NaN
hydroph_interaction:ASN:19     -1
Name: 54, dtype: object

>  <halogenbond:ASN:19>  (55) 
halogenbond:ASN:19    NaN
halogenbond:ASN:19     -1
Name: 54, dtype: object

>  <hbond:ARG:20>  (55) 
hbond:ARG:20    NaN
hbond:ARG:20     -1
Name: 54, dtype: object

>  <hydroph_interaction:ARG:20>  (55) 
hydroph_interaction:ARG:20    NaN
hydroph_interaction:ARG:20     -1
Name: 54, dtype: object

>  <saltbridge:ARG:20>  (55) 
saltbridge:ARG:20    NaN
saltbridge:ARG:20     -1
Name: 54, dtype: object

>  <halogenbond:ARG:20>  (55) 
halogenbond:ARG:20    NaN
halogenbond:ARG:20     -1
Name: 54, dtype: object

>  <pication:ARG:20>  (55) 
pication:ARG:20    NaN
pication:ARG:20     -1
Name: 54, dtype: object

>  <hbond:HIS:21>  (55) 
hbond:HIS:21    0.0
hbond:HIS:21      0
Name: 54, dtype: object

>  <hydroph_interaction:HIS:21>  (55) 
hydroph_interaction:HIS:21    1.0
hydroph_interaction:HIS:21      1
Name: 54, dtype: object

>  <pistack:HIS:21>  (55) 
pistack:HIS:21    NaN
pistack:HIS:21     -1
Name: 54, dtype: object

>  <pication:HIS:21>  (55) 
pication:HIS:21    NaN
pication:HIS:21     -1
Name: 54, dtype: object

>  <saltbridge:HIS:21>  (55) 
saltbridge:HIS:21    0.0
saltbridge:HIS:21      0
Name: 54, dtype: object

>  <halogenbond:HIS:21>  (55) 
halogenbond:HIS:21    NaN
halogenbond:HIS:21     -1
Name: 54, dtype: object

>  <hydroph_interaction:LEU:22>  (55) 
hydroph_interaction:LEU:22    0.0
hydroph_interaction:LEU:22      0
Name: 54, dtype: object

>  <hbond:LEU:22>  (55) 
hbond:LEU:22    NaN
hbond:LEU:22     -1
Name: 54, dtype: object

>  <hydroph_interaction:TRP:28>  (55) 
hydroph_interaction:TRP:28    NaN
hydroph_interaction:TRP:28     -1
Name: 54, dtype: object

>  <hbond:SER:36>  (55) 
hbond:SER:36    NaN
hbond:SER:36     -1
Name: 54, dtype: object

>  <halogenbond:SER:36>  (55) 
halogenbond:SER:36    NaN
halogenbond:SER:36     -1
Name: 54, dtype: object

>  <hbond:SER:37>  (55) 
hbond:SER:37    NaN
hbond:SER:37     -1
Name: 54, dtype: object

>  <hbond:ARG:38>  (55) 
hbond:ARG:38    NaN
hbond:ARG:38     -1
Name: 54, dtype: object

>  <halogenbond:ARG:38>  (55) 
halogenbond:ARG:38    NaN
halogenbond:ARG:38     -1
Name: 54, dtype: object

>  <saltbridge:ASP:39>  (55) 
saltbridge:ASP:39    0.0
saltbridge:ASP:39      0
Name: 54, dtype: object

>  <halogenbond:ASP:39>  (55) 
halogenbond:ASP:39    0.0
halogenbond:ASP:39      0
Name: 54, dtype: object

>  <hbond:ASP:39>  (55) 
hbond:ASP:39    0.0
hbond:ASP:39      0
Name: 54, dtype: object

>  <hydroph_interaction:ASP:39>  (55) 
hydroph_interaction:ASP:39    NaN
hydroph_interaction:ASP:39     -1
Name: 54, dtype: object

>  <hydroph_interaction:LEU:40>  (55) 
hydroph_interaction:LEU:40    NaN
hydroph_interaction:LEU:40     -1
Name: 54, dtype: object

>  <hydroph_interaction:TYR:63>  (55) 
hydroph_interaction:TYR:63    0.0
hydroph_interaction:TYR:63      0
Name: 54, dtype: object

>  <hbond:TYR:63>  (55) 
hbond:TYR:63    NaN
hbond:TYR:63     -1
Name: 54, dtype: object

>  <pistack:TYR:63>  (55) 
pistack:TYR:63    NaN
pistack:TYR:63     -1
Name: 54, dtype: object

>  <pication:TYR:63>  (55) 
pication:TYR:63    NaN
pication:TYR:63     -1
Name: 54, dtype: object

>  <halogenbond:TYR:64>  (55) 
halogenbond:TYR:64    NaN
halogenbond:TYR:64     -1
Name: 54, dtype: object

>  <hbond:TYR:64>  (55) 
hbond:TYR:64    NaN
hbond:TYR:64     -1
Name: 54, dtype: object

>  <hydroph_interaction:TYR:64>  (55) 
hydroph_interaction:TYR:64    NaN
hydroph_interaction:TYR:64     -1
Name: 54, dtype: object

>  <halogenbond:CYS:65>  (55) 
halogenbond:CYS:65    NaN
halogenbond:CYS:65     -1
Name: 54, dtype: object

>  <hbond:CYS:65>  (55) 
hbond:CYS:65    NaN
hbond:CYS:65     -1
Name: 54, dtype: object

>  <hbond:SER:66>  (55) 
hbond:SER:66    NaN
hbond:SER:66     -1
Name: 54, dtype: object

>  <halogenbond:SER:66>  (55) 
halogenbond:SER:66    NaN
halogenbond:SER:66     -1
Name: 54, dtype: object

>  <hbond:SER:67>  (55) 
hbond:SER:67    NaN
hbond:SER:67     -1
Name: 54, dtype: object

>  <halogenbond:SER:67>  (55) 
halogenbond:SER:67    NaN
halogenbond:SER:67     -1
Name: 54, dtype: object

>  <hbond:ARG:68>  (55) 
hbond:ARG:68    NaN
hbond:ARG:68     -1
Name: 54, dtype: object

>  <saltbridge:ARG:68>  (55) 
saltbridge:ARG:68    NaN
saltbridge:ARG:68     -1
Name: 54, dtype: object

>  <hydroph_interaction:ARG:68>  (55) 
hydroph_interaction:ARG:68    NaN
hydroph_interaction:ARG:68     -1
Name: 54, dtype: object

>  <pication:ARG:68>  (55) 
pication:ARG:68    NaN
pication:ARG:68     -1
Name: 54, dtype: object

>  <hydroph_interaction:TYR:72>  (55) 
hydroph_interaction:TYR:72    NaN
hydroph_interaction:TYR:72     -1
Name: 54, dtype: object

>  <hydroph_interaction:VAL:74>  (55) 
hydroph_interaction:VAL:74    NaN
hydroph_interaction:VAL:74     -1
Name: 54, dtype: object

>  <hydroph_interaction:PHE:76>  (55) 
hydroph_interaction:PHE:76    NaN
hydroph_interaction:PHE:76     -1
Name: 54, dtype: object

>  <hbond:SER:77>  (55) 
hbond:SER:77    NaN
hbond:SER:77     -1
Name: 54, dtype: object

>  <hbond:SER:80>  (55) 
hbond:SER:80    NaN
hbond:SER:80     -1
Name: 54, dtype: object

>  <hbond:LEU:81>  (55) 
hbond:LEU:81    NaN
hbond:LEU:81     -1
Name: 54, dtype: object

>  <halogenbond:LEU:81>  (55) 
halogenbond:LEU:81    NaN
halogenbond:LEU:81     -1
Name: 54, dtype: object

>  <hydroph_interaction:LEU:81>  (55) 
hydroph_interaction:LEU:81    NaN
hydroph_interaction:LEU:81     -1
Name: 54, dtype: object

>  <hydroph_interaction:ILE:82>  (55) 
hydroph_interaction:ILE:82    NaN
hydroph_interaction:ILE:82     -1
Name: 54, dtype: object

>  <halogenbond:ILE:82>  (55) 
halogenbond:ILE:82    NaN
halogenbond:ILE:82     -1
Name: 54, dtype: object

>  <hbond:ILE:82>  (55) 
hbond:ILE:82    NaN
hbond:ILE:82     -1
Name: 54, dtype: object

>  <hbond:PHE:83>  (55) 
hbond:PHE:83    NaN
hbond:PHE:83     -1
Name: 54, dtype: object

>  <hydroph_interaction:PHE:83>  (55) 
hydroph_interaction:PHE:83    NaN
hydroph_interaction:PHE:83     -1
Name: 54, dtype: object

>  <halogenbond:PHE:83>  (55) 
halogenbond:PHE:83    NaN
halogenbond:PHE:83     -1
Name: 54, dtype: object

>  <pistack:PHE:83>  (55) 
pistack:PHE:83    NaN
pistack:PHE:83     -1
Name: 54, dtype: object

>  <pication:PHE:83>  (55) 
pication:PHE:83    NaN
pication:PHE:83     -1
Name: 54, dtype: object

>  <hydroph_interaction:VAL:84>  (55) 
hydroph_interaction:VAL:84    0.0
hydroph_interaction:VAL:84      0
Name: 54, dtype: object

>  <halogenbond:VAL:84>  (55) 
halogenbond:VAL:84    NaN
halogenbond:VAL:84     -1
Name: 54, dtype: object

>  <hbond:VAL:84>  (55) 
hbond:VAL:84    NaN
hbond:VAL:84     -1
Name: 54, dtype: object

>  <hydroph_interaction:GLU:85>  (55) 
hydroph_interaction:GLU:85    0.0
hydroph_interaction:GLU:85      0
Name: 54, dtype: object

>  <hbond:GLU:85>  (55) 
hbond:GLU:85    0.0
hbond:GLU:85      0
Name: 54, dtype: object

>  <halogenbond:GLU:85>  (55) 
halogenbond:GLU:85    NaN
halogenbond:GLU:85     -1
Name: 54, dtype: object

>  <saltbridge:GLU:85>  (55) 
saltbridge:GLU:85    NaN
saltbridge:GLU:85     -1
Name: 54, dtype: object

>  <halogenbond:ALA:86>  (55) 
halogenbond:ALA:86    NaN
halogenbond:ALA:86     -1
Name: 54, dtype: object

>  <hbond:ALA:86>  (55) 
hbond:ALA:86    0.0
hbond:ALA:86      0
Name: 54, dtype: object

>  <hydroph_interaction:ALA:86>  (55) 
hydroph_interaction:ALA:86    NaN
hydroph_interaction:ALA:86     -1
Name: 54, dtype: object

>  <hbond:SER:87>  (55) 
hbond:SER:87    1
hbond:SER:87    1
Name: 54, dtype: object

>  <halogenbond:SER:87>  (55) 
halogenbond:SER:87    NaN
halogenbond:SER:87     -1
Name: 54, dtype: object

>  <hbond:GLU:88>  (55) 
hbond:GLU:88    0.0
hbond:GLU:88      0
Name: 54, dtype: object

>  <hydroph_interaction:GLU:88>  (55) 
hydroph_interaction:GLU:88    0.0
hydroph_interaction:GLU:88      0
Name: 54, dtype: object

>  <halogenbond:GLU:88>  (55) 
halogenbond:GLU:88    0.0
halogenbond:GLU:88      0
Name: 54, dtype: object

>  <saltbridge:GLU:88>  (55) 
saltbridge:GLU:88    NaN
saltbridge:GLU:88     -1
Name: 54, dtype: object

>  <hydroph_interaction:TYR:89>  (55) 
hydroph_interaction:TYR:89    1.0
hydroph_interaction:TYR:89      1
Name: 54, dtype: object

>  <pistack:TYR:89>  (55) 
pistack:TYR:89    NaN
pistack:TYR:89     -1
Name: 54, dtype: object

>  <hbond:TYR:89>  (55) 
hbond:TYR:89    NaN
hbond:TYR:89     -1
Name: 54, dtype: object

>  <halogenbond:TYR:89>  (55) 
halogenbond:TYR:89    NaN
halogenbond:TYR:89     -1
Name: 54, dtype: object

>  <hydroph_interaction:TYR:90>  (55) 
hydroph_interaction:TYR:90    1.0
hydroph_interaction:TYR:90      1
Name: 54, dtype: object

>  <hbond:TYR:90>  (55) 
hbond:TYR:90    0.0
hbond:TYR:90      0
Name: 54, dtype: object

>  <pistack:TYR:90>  (55) 
pistack:TYR:90    NaN
pistack:TYR:90     -1
Name: 54, dtype: object

>  <halogenbond:TYR:90>  (55) 
halogenbond:TYR:90    NaN
halogenbond:TYR:90     -1
Name: 54, dtype: object

>  <pication:TYR:90>  (55) 
pication:TYR:90    NaN
pication:TYR:90     -1
Name: 54, dtype: object

>  <hbond:PRO:91>  (55) 
hbond:PRO:91    NaN
hbond:PRO:91     -1
Name: 54, dtype: object

>  <hydroph_interaction:PRO:91>  (55) 
hydroph_interaction:PRO:91    NaN
hydroph_interaction:PRO:91     -1
Name: 54, dtype: object

>  <halogenbond:PRO:91>  (55) 
halogenbond:PRO:91    NaN
halogenbond:PRO:91     -1
Name: 54, dtype: object

>  <hbond:ALA:92>  (55) 
hbond:ALA:92    NaN
hbond:ALA:92     -1
Name: 54, dtype: object

>  <hydroph_interaction:ALA:92>  (55) 
hydroph_interaction:ALA:92    NaN
hydroph_interaction:ALA:92     -1
Name: 54, dtype: object

>  <saltbridge:ARG:93>  (55) 
saltbridge:ARG:93    NaN
saltbridge:ARG:93     -1
Name: 54, dtype: object

>  <hbond:ARG:93>  (55) 
hbond:ARG:93    0.0
hbond:ARG:93      0
Name: 54, dtype: object

>  <hydroph_interaction:ARG:93>  (55) 
hydroph_interaction:ARG:93    NaN
hydroph_interaction:ARG:93     -1
Name: 54, dtype: object

>  <halogenbond:ARG:93>  (55) 
halogenbond:ARG:93    NaN
halogenbond:ARG:93     -1
Name: 54, dtype: object

>  <pication:ARG:93>  (55) 
pication:ARG:93    NaN
pication:ARG:93     -1
Name: 54, dtype: object

>  <hydroph_interaction:TYR:94>  (55) 
hydroph_interaction:TYR:94    NaN
hydroph_interaction:TYR:94     -1
Name: 54, dtype: object

>  <pistack:TYR:94>  (55) 
pistack:TYR:94    NaN
pistack:TYR:94     -1
Name: 54, dtype: object

>  <hbond:TYR:94>  (55) 
hbond:TYR:94    NaN
hbond:TYR:94     -1
Name: 54, dtype: object

>  <hbond:GLN:95>  (55) 
hbond:GLN:95    0.0
hbond:GLN:95      0
Name: 54, dtype: object

>  <hydroph_interaction:GLN:95>  (55) 
hydroph_interaction:GLN:95    NaN
hydroph_interaction:GLN:95     -1
Name: 54, dtype: object

>  <halogenbond:GLN:95>  (55) 
halogenbond:GLN:95    NaN
halogenbond:GLN:95     -1
Name: 54, dtype: object

>  <hbond:SER:96>  (55) 
hbond:SER:96    NaN
hbond:SER:96     -1
Name: 54, dtype: object

>  <halogenbond:HIS:97>  (55) 
halogenbond:HIS:97    NaN
halogenbond:HIS:97     -1
Name: 54, dtype: object

>  <hydroph_interaction:LEU:98>  (55) 
hydroph_interaction:LEU:98    NaN
hydroph_interaction:LEU:98     -1
Name: 54, dtype: object

>  <hbond:LEU:98>  (55) 
hbond:LEU:98    NaN
hbond:LEU:98     -1
Name: 54, dtype: object

>  <halogenbond:LEU:98>  (55) 
halogenbond:LEU:98    NaN
halogenbond:LEU:98     -1
Name: 54, dtype: object

>  <hbond:MET:99>  (55) 
hbond:MET:99    NaN
hbond:MET:99     -1
Name: 54, dtype: object

>  <hydroph_interaction:MET:99>  (55) 
hydroph_interaction:MET:99    NaN
hydroph_interaction:MET:99     -1
Name: 54, dtype: object

>  <halogenbond:MET:99>  (55) 
halogenbond:MET:99    NaN
halogenbond:MET:99     -1
Name: 54, dtype: object

>  <hydroph_interaction:LEU:100>  (55) 
hydroph_interaction:LEU:100    NaN
hydroph_interaction:LEU:100     -1
Name: 54, dtype: object

>  <hbond:LEU:100>  (55) 
hbond:LEU:100    NaN
hbond:LEU:100     -1
Name: 54, dtype: object

>  <hbond:ALA:101>  (55) 
hbond:ALA:101    NaN
hbond:ALA:101     -1
Name: 54, dtype: object

>  <hydroph_interaction:ALA:101>  (55) 
hydroph_interaction:ALA:101    NaN
hydroph_interaction:ALA:101     -1
Name: 54, dtype: object

>  <hydroph_interaction:VAL:102>  (55) 
hydroph_interaction:VAL:102    NaN
hydroph_interaction:VAL:102     -1
Name: 54, dtype: object

>  <hbond:VAL:102>  (55) 
hbond:VAL:102    NaN
hbond:VAL:102     -1
Name: 54, dtype: object

>  <hbond:GLY:103>  (55) 
hbond:GLY:103    NaN
hbond:GLY:103     -1
Name: 54, dtype: object

>  <halogenbond:GLY:103>  (55) 
halogenbond:GLY:103    NaN
halogenbond:GLY:103     -1
Name: 54, dtype: object

>  <hbond:HIS:104>  (55) 
hbond:HIS:104    0.0
hbond:HIS:104      0
Name: 54, dtype: object

>  <saltbridge:HIS:104>  (55) 
saltbridge:HIS:104    NaN
saltbridge:HIS:104     -1
Name: 54, dtype: object

>  <pication:HIS:104>  (55) 
pication:HIS:104    NaN
pication:HIS:104     -1
Name: 54, dtype: object

>  <halogenbond:HIS:104>  (55) 
halogenbond:HIS:104    NaN
halogenbond:HIS:104     -1
Name: 54, dtype: object

>  <hydroph_interaction:HIS:104>  (55) 
hydroph_interaction:HIS:104    NaN
hydroph_interaction:HIS:104     -1
Name: 54, dtype: object

>  <pistack:HIS:104>  (55) 
pistack:HIS:104    NaN
pistack:HIS:104     -1
Name: 54, dtype: object

>  <halogenbond:SER:105>  (55) 
halogenbond:SER:105    0.0
halogenbond:SER:105      0
Name: 54, dtype: object

>  <hbond:SER:105>  (55) 
hbond:SER:105    0.0
hbond:SER:105      0
Name: 54, dtype: object

>  <hbond:GLU:106>  (55) 
hbond:GLU:106    0.0
hbond:GLU:106      0
Name: 54, dtype: object

>  <hydroph_interaction:GLU:106>  (55) 
hydroph_interaction:GLU:106    0.0
hydroph_interaction:GLU:106      0
Name: 54, dtype: object

>  <saltbridge:GLU:106>  (55) 
saltbridge:GLU:106    NaN
saltbridge:GLU:106     -1
Name: 54, dtype: object

>  <halogenbond:GLU:106>  (55) 
halogenbond:GLU:106    NaN
halogenbond:GLU:106     -1
Name: 54, dtype: object

>  <hydroph_interaction:PRO:107>  (55) 
hydroph_interaction:PRO:107    1
hydroph_interaction:PRO:107    1
Name: 54, dtype: object

>  <hbond:PRO:107>  (55) 
hbond:PRO:107    0.0
hbond:PRO:107      0
Name: 54, dtype: object

>  <halogenbond:PRO:107>  (55) 
halogenbond:PRO:107    0.0
halogenbond:PRO:107      0
Name: 54, dtype: object

>  <hbond:GLY:108>  (55) 
hbond:GLY:108    NaN
hbond:GLY:108     -1
Name: 54, dtype: object

>  <halogenbond:GLY:108>  (55) 
halogenbond:GLY:108    NaN
halogenbond:GLY:108     -1
Name: 54, dtype: object

>  <hbond:ASP:109>  (55) 
hbond:ASP:109    0.0
hbond:ASP:109      0
Name: 54, dtype: object

>  <hydroph_interaction:ASP:109>  (55) 
hydroph_interaction:ASP:109    0.0
hydroph_interaction:ASP:109      0
Name: 54, dtype: object

>  <saltbridge:ASP:109>  (55) 
saltbridge:ASP:109    NaN
saltbridge:ASP:109     -1
Name: 54, dtype: object

>  <halogenbond:CYS:110>  (55) 
halogenbond:CYS:110    0.0
halogenbond:CYS:110      0
Name: 54, dtype: object

>  <hbond:CYS:110>  (55) 
hbond:CYS:110    0.0
hbond:CYS:110      0
Name: 54, dtype: object

>  <hbond:GLY:111>  (55) 
hbond:GLY:111    NaN
hbond:GLY:111     -1
Name: 54, dtype: object

>  <hbond:GLY:112>  (55) 
hbond:GLY:112    NaN
hbond:GLY:112     -1
Name: 54, dtype: object

>  <hbond:ILE:113>  (55) 
hbond:ILE:113    NaN
hbond:ILE:113     -1
Name: 54, dtype: object

>  <hydroph_interaction:LEU:114>  (55) 
hydroph_interaction:LEU:114    NaN
hydroph_interaction:LEU:114     -1
Name: 54, dtype: object

>  <hbond:LEU:114>  (55) 
hbond:LEU:114    NaN
hbond:LEU:114     -1
Name: 54, dtype: object

>  <hydroph_interaction:ILE:123>  (55) 
hydroph_interaction:ILE:123    NaN
hydroph_interaction:ILE:123     -1
Name: 54, dtype: object

>  <hbond:ILE:123>  (55) 
hbond:ILE:123    NaN
hbond:ILE:123     -1
Name: 54, dtype: object

>  <hydroph_interaction:VAL:124>  (55) 
hydroph_interaction:VAL:124    1.0
hydroph_interaction:VAL:124      1
Name: 54, dtype: object

>  <hbond:VAL:124>  (55) 
hbond:VAL:124    NaN
hbond:VAL:124     -1
Name: 54, dtype: object

>  <halogenbond:VAL:124>  (55) 
halogenbond:VAL:124    NaN
halogenbond:VAL:124     -1
Name: 54, dtype: object

>  <hbond:SER:125>  (55) 
hbond:SER:125    0
hbond:SER:125    0
Name: 54, dtype: object

>  <halogenbond:SER:125>  (55) 
halogenbond:SER:125    NaN
halogenbond:SER:125     -1
Name: 54, dtype: object

>  <hydroph_interaction:THR:126>  (55) 
hydroph_interaction:THR:126    0.0
hydroph_interaction:THR:126      0
Name: 54, dtype: object

>  <hbond:THR:126>  (55) 
hbond:THR:126    0.0
hbond:THR:126      0
Name: 54, dtype: object

>  <halogenbond:THR:126>  (55) 
halogenbond:THR:126    NaN
halogenbond:THR:126     -1
Name: 54, dtype: object

>  <hbond:GLY:127>  (55) 
hbond:GLY:127    0
hbond:GLY:127    0
Name: 54, dtype: object

>  <halogenbond:GLY:127>  (55) 
halogenbond:GLY:127    NaN
halogenbond:GLY:127     -1
Name: 54, dtype: object

>  <hydroph_interaction:GLY:127>  (55) 
hydroph_interaction:GLY:127    NaN
hydroph_interaction:GLY:127     -1
Name: 54, dtype: object

>  <hbond:GLY:128>  (55) 
hbond:GLY:128    NaN
hbond:GLY:128     -1
Name: 54, dtype: object

>  <halogenbond:GLY:128>  (55) 
halogenbond:GLY:128    NaN
halogenbond:GLY:128     -1
Name: 54, dtype: object

>  <hydroph_interaction:GLY:128>  (55) 
hydroph_interaction:GLY:128    NaN
hydroph_interaction:GLY:128     -1
Name: 54, dtype: object

>  <hbond:ASN:129>  (55) 
hbond:ASN:129    NaN
hbond:ASN:129     -1
Name: 54, dtype: object

>  <hydroph_interaction:ASN:129>  (55) 
hydroph_interaction:ASN:129    NaN
hydroph_interaction:ASN:129     -1
Name: 54, dtype: object

>  <halogenbond:ASN:129>  (55) 
halogenbond:ASN:129    NaN
halogenbond:ASN:129     -1
Name: 54, dtype: object

>  <hbond:GLY:130>  (55) 
hbond:GLY:130    NaN
hbond:GLY:130     -1
Name: 54, dtype: object

>  <hbond:LEU:131>  (55) 
hbond:LEU:131    NaN
hbond:LEU:131     -1
Name: 54, dtype: object

>  <hydroph_interaction:LEU:131>  (55) 
hydroph_interaction:LEU:131    NaN
hydroph_interaction:LEU:131     -1
Name: 54, dtype: object

>  <halogenbond:LEU:131>  (55) 
halogenbond:LEU:131    NaN
halogenbond:LEU:131     -1
Name: 54, dtype: object

>  <hydroph_interaction:VAL:132>  (55) 
hydroph_interaction:VAL:132    0.0
hydroph_interaction:VAL:132      0
Name: 54, dtype: object

>  <hbond:VAL:132>  (55) 
hbond:VAL:132    NaN
hbond:VAL:132     -1
Name: 54, dtype: object

>  <hbond:GLY:133>  (55) 
hbond:GLY:133    NaN
hbond:GLY:133     -1
Name: 54, dtype: object

>  <halogenbond:GLY:133>  (55) 
halogenbond:GLY:133    NaN
halogenbond:GLY:133     -1
Name: 54, dtype: object

>  <hydroph_interaction:PHE:134>  (55) 
hydroph_interaction:PHE:134    NaN
hydroph_interaction:PHE:134     -1
Name: 54, dtype: object

>  <hbond:PHE:134>  (55) 
hbond:PHE:134    NaN
hbond:PHE:134     -1
Name: 54, dtype: object

>  <pistack:PHE:134>  (55) 
pistack:PHE:134    NaN
pistack:PHE:134     -1
Name: 54, dtype: object

>  <pication:PHE:134>  (55) 
pication:PHE:134    NaN
pication:PHE:134     -1
Name: 54, dtype: object

>  <halogenbond:PHE:134>  (55) 
halogenbond:PHE:134    NaN
halogenbond:PHE:134     -1
Name: 54, dtype: object

>  <hydroph_interaction:ALA:135>  (55) 
hydroph_interaction:ALA:135    NaN
hydroph_interaction:ALA:135     -1
Name: 54, dtype: object

>  <hbond:ALA:135>  (55) 
hbond:ALA:135    NaN
hbond:ALA:135     -1
Name: 54, dtype: object

$$$$
Z3505963386
     RDKit          3D

 31 32  0  0  0  0  0  0  0  0999 V2000
   12.1770   15.3720   21.9150 C   0  0  0  0  0  0  0  0  0  0  0  0
   11.5110   14.3400   22.7870 C   0  0  0  0  0  0  0  0  0  0  0  0
   12.1020   14.2090   24.1480 C   0  0  0  0  0  0  0  0  0  0  0  0
   10.4810   13.6230   22.3400 C   0  0  0  0  0  0  0  0  0  0  0  0
    9.7850   12.5910   23.0810 C   0  0  0  0  0  0  0  0  0  0  0  0
   10.1060   11.3030   22.8170 C   0  0  0  0  0  0  0  0  0  0  0  0
    9.6010   10.1710   23.3650 C   0  0  0  0  0  0  0  0  0  0  0  0
   10.2410    9.1350   22.7700 C   0  0  0  0  0  0  0  0  0  0  0  0
    8.6070   10.2880   24.3480 C   0  0  0  0  0  0  0  0  0  0  0  0
    8.2210   11.6100   24.6800 C   0  0  0  0  0  0  0  0  0  0  0  0
    8.8070   12.7350   24.0490 C   0  0  0  0  0  0  0  0  0  0  0  0
    8.3070   13.9290   24.4950 O   0  0  0  0  0  0  0  0  0  0  0  0
    7.0560   13.5370   25.0990 C   0  0  0  0  0  0  0  0  0  0  0  0
    7.2190   12.1280   25.6630 C   0  0  0  0  0  0  0  0  0  0  0  0
    5.9890   11.4310   25.7060 O   0  0  0  0  0  0  0  0  0  0  0  0
   12.2980   16.3110   22.4680 H   0  0  0  0  0  0  0  0  0  0  0  0
   13.1700   15.0620   21.5760 H   0  0  0  0  0  0  0  0  0  0  0  0
   11.5700   15.5680   21.0260 H   0  0  0  0  0  0  0  0  0  0  0  0
   11.3070   14.0690   24.8870 H   0  0  0  0  0  0  0  0  0  0  0  0
   12.7700   13.3410   24.1790 H   0  0  0  0  0  0  0  0  0  0  0  0
   12.6710   15.0900   24.4600 H   0  0  0  0  0  0  0  0  0  0  0  0
   10.1060   13.7860   21.3320 H   0  0  0  0  0  0  0  0  0  0  0  0
   10.8750   11.2550   22.0570 H   0  0  0  0  0  0  0  0  0  0  0  0
   10.7720    8.3450   23.2730 H   0  0  0  0  0  0  0  0  0  0  0  0
   10.9320    9.3530   21.9720 H   0  0  0  0  0  0  0  0  0  0  0  0
    9.4520    8.6340   22.2110 H   0  0  0  0  0  0  0  0  0  0  0  0
    8.1580    9.4270   24.8270 H   0  0  0  0  0  0  0  0  0  0  0  0
    6.8020   14.2520   25.8880 H   0  0  0  0  0  0  0  0  0  0  0  0
    6.2690   13.5920   24.3370 H   0  0  0  0  0  0  0  0  0  0  0  0
    7.6260   12.1810   26.6670 H   0  0  0  0  0  0  0  0  0  0  0  0
    5.4090   11.8260   25.0270 H   0  0  0  0  0  0  0  0  0  0  0  0
  1  2  1  0
  2  3  1  0
  2  4  2  3
  4  5  1  0
  5  6  2  0
  6  7  1  0
  7  8  1  0
  7  9  2  0
  9 10  1  0
 10 11  2  0
 11 12  1  0
 12 13  1  0
 13 14  1  0
 14 15  1  0
 11  5  1  0
 14 10  1  0
  1 16  1  0
  1 17  1  0
  1 18  1  0
  3 19  1  0
  3 20  1  0
  3 21  1  0
  4 22  1  0
  6 23  1  0
  8 24  1  0
  8 25  1  0
  8 26  1  0
  9 27  1  0
 13 28  1  0
 13 29  1  0
 14 30  1  0
 15 31  1  0
A    1
 C1 
A    2
 C2 
A    3
 C3 
A    4
 C4 
A    5
 C5 
A    6
 C6 
A    7
 C7 
A    8
 C8 
A    9
 C9 
A   10
 C10
A   11
 C11
A   12
 O1 
A   13
 C12
A   14
 C13
A   15
 O2 
A   16
 H1 
A   17
 H2 
A   18
 H3 
A   19
 H4 
A   20
 H5 
A   21
 H6 
A   22
 H7 
A   23
 H8 
A   24
 H9 
A   25
 H10
A   26
 H11
A   27
 H12
A   28
 H13
A   29
 H14
A   30
 H15
A   31
 H16
M  END
>  <ref_pdb>  (56) 
x0310_0A

>  <ref_mols>  (56) 
x0554_0A,x0739_0A

>  <original SMILES>  (56) 
CC(C)=Cc1cc(C)cc2c1OCC2O

>  <rationale>  (56) 
info halogenbond:C110+G127+A86+S125+E85+Q95+E106+E88+T126+P107+H104+Y64+C65+S87+N129+F83+R93+L131+I82+G128+P91+N19+H21+V84+G133+Y90+Y89+H97+L81+F134+L98+R20+G103+S66+S67+S7+G108+R38+V124+M99+S36; hbond:S105+Q95+D39+A86+C110+D109+E85+G108+G103+G128+G130+L131+N129+N19+H104+R68+V124+P91+F83+S67+S7+S66+G112+G133+V132+R20+Y89+S77+A135+Y63+A92+A101+M99+F134+L100+I82+Y64+S36+L98+V84+L81+Y94+S80+R38+S37+V102+G8+I123+G111+I113+L114+C65+L22+S96; hydroph_interaction:V84+V124+P107+E85+E88+D109+N129+L40+I123+A135+Q95+I82+L100+L98+L131+F83+R93+V132+Y63+F134+H104+R20+A86+V74+P91+A101+F76+M99+L114+A92+Y94+R68+Y72+Y64+V18+V102+W28+G127+G128+L81; pication:H104+R93+Y63+F134+Y90+R68+F83+R20; pistack:H21+Y89+Y90+H104+F134+Y63+F83+Y94; saltbridge:D39+R93+H104+E106+D109+E85+E88+R68+R20; 

>  <intxn_cluster>  (56) 
-1

>  <intxn_cluster_rank>  (56) 
-1

>  <N_interactions>  (56) 
4

>  <∆∆G>  (56) 
-11.289608

>  <$/mg>  (56) 
163.0

>  <comRMSD>  (56) 
0.821024

>  <N_rotatable_bonds>  (56) 
5

>  <deep_P1_sidechain>  (56) 
nan

>  <farthest_distance_to_substrate>  (56) 
2.606186

>  <hbond:SER:7>  (56) 
hbond:SER:7    NaN
hbond:SER:7     -1
Name: 55, dtype: object

>  <halogenbond:SER:7>  (56) 
halogenbond:SER:7    NaN
halogenbond:SER:7     -1
Name: 55, dtype: object

>  <hbond:GLY:8>  (56) 
hbond:GLY:8    NaN
hbond:GLY:8     -1
Name: 55, dtype: object

>  <hydroph_interaction:VAL:18>  (56) 
hydroph_interaction:VAL:18    NaN
hydroph_interaction:VAL:18     -1
Name: 55, dtype: object

>  <hbond:ASN:19>  (56) 
hbond:ASN:19    NaN
hbond:ASN:19     -1
Name: 55, dtype: object

>  <hydroph_interaction:ASN:19>  (56) 
hydroph_interaction:ASN:19    0.0
hydroph_interaction:ASN:19      0
Name: 55, dtype: object

>  <halogenbond:ASN:19>  (56) 
halogenbond:ASN:19    NaN
halogenbond:ASN:19     -1
Name: 55, dtype: object

>  <hbond:ARG:20>  (56) 
hbond:ARG:20    NaN
hbond:ARG:20     -1
Name: 55, dtype: object

>  <hydroph_interaction:ARG:20>  (56) 
hydroph_interaction:ARG:20    NaN
hydroph_interaction:ARG:20     -1
Name: 55, dtype: object

>  <saltbridge:ARG:20>  (56) 
saltbridge:ARG:20    NaN
saltbridge:ARG:20     -1
Name: 55, dtype: object

>  <halogenbond:ARG:20>  (56) 
halogenbond:ARG:20    NaN
halogenbond:ARG:20     -1
Name: 55, dtype: object

>  <pication:ARG:20>  (56) 
pication:ARG:20    NaN
pication:ARG:20     -1
Name: 55, dtype: object

>  <hbond:HIS:21>  (56) 
hbond:HIS:21    0.0
hbond:HIS:21      0
Name: 55, dtype: object

>  <hydroph_interaction:HIS:21>  (56) 
hydroph_interaction:HIS:21    0.0
hydroph_interaction:HIS:21      0
Name: 55, dtype: object

>  <pistack:HIS:21>  (56) 
pistack:HIS:21    NaN
pistack:HIS:21     -1
Name: 55, dtype: object

>  <pication:HIS:21>  (56) 
pication:HIS:21    0.0
pication:HIS:21      0
Name: 55, dtype: object

>  <saltbridge:HIS:21>  (56) 
saltbridge:HIS:21    0.0
saltbridge:HIS:21      0
Name: 55, dtype: object

>  <halogenbond:HIS:21>  (56) 
halogenbond:HIS:21    NaN
halogenbond:HIS:21     -1
Name: 55, dtype: object

>  <hydroph_interaction:LEU:22>  (56) 
hydroph_interaction:LEU:22    0.0
hydroph_interaction:LEU:22      0
Name: 55, dtype: object

>  <hbond:LEU:22>  (56) 
hbond:LEU:22    NaN
hbond:LEU:22     -1
Name: 55, dtype: object

>  <hydroph_interaction:TRP:28>  (56) 
hydroph_interaction:TRP:28    NaN
hydroph_interaction:TRP:28     -1
Name: 55, dtype: object

>  <hbond:SER:36>  (56) 
hbond:SER:36    NaN
hbond:SER:36     -1
Name: 55, dtype: object

>  <halogenbond:SER:36>  (56) 
halogenbond:SER:36    NaN
halogenbond:SER:36     -1
Name: 55, dtype: object

>  <hbond:SER:37>  (56) 
hbond:SER:37    NaN
hbond:SER:37     -1
Name: 55, dtype: object

>  <hbond:ARG:38>  (56) 
hbond:ARG:38    NaN
hbond:ARG:38     -1
Name: 55, dtype: object

>  <halogenbond:ARG:38>  (56) 
halogenbond:ARG:38    NaN
halogenbond:ARG:38     -1
Name: 55, dtype: object

>  <saltbridge:ASP:39>  (56) 
saltbridge:ASP:39    NaN
saltbridge:ASP:39     -1
Name: 55, dtype: object

>  <halogenbond:ASP:39>  (56) 
halogenbond:ASP:39    0.0
halogenbond:ASP:39      0
Name: 55, dtype: object

>  <hbond:ASP:39>  (56) 
hbond:ASP:39    NaN
hbond:ASP:39     -1
Name: 55, dtype: object

>  <hydroph_interaction:ASP:39>  (56) 
hydroph_interaction:ASP:39    0.0
hydroph_interaction:ASP:39      0
Name: 55, dtype: object

>  <hydroph_interaction:LEU:40>  (56) 
hydroph_interaction:LEU:40    NaN
hydroph_interaction:LEU:40     -1
Name: 55, dtype: object

>  <hydroph_interaction:TYR:63>  (56) 
hydroph_interaction:TYR:63    NaN
hydroph_interaction:TYR:63     -1
Name: 55, dtype: object

>  <hbond:TYR:63>  (56) 
hbond:TYR:63    NaN
hbond:TYR:63     -1
Name: 55, dtype: object

>  <pistack:TYR:63>  (56) 
pistack:TYR:63    NaN
pistack:TYR:63     -1
Name: 55, dtype: object

>  <pication:TYR:63>  (56) 
pication:TYR:63    NaN
pication:TYR:63     -1
Name: 55, dtype: object

>  <halogenbond:TYR:64>  (56) 
halogenbond:TYR:64    NaN
halogenbond:TYR:64     -1
Name: 55, dtype: object

>  <hbond:TYR:64>  (56) 
hbond:TYR:64    NaN
hbond:TYR:64     -1
Name: 55, dtype: object

>  <hydroph_interaction:TYR:64>  (56) 
hydroph_interaction:TYR:64    NaN
hydroph_interaction:TYR:64     -1
Name: 55, dtype: object

>  <halogenbond:CYS:65>  (56) 
halogenbond:CYS:65    NaN
halogenbond:CYS:65     -1
Name: 55, dtype: object

>  <hbond:CYS:65>  (56) 
hbond:CYS:65    NaN
hbond:CYS:65     -1
Name: 55, dtype: object

>  <hbond:SER:66>  (56) 
hbond:SER:66    NaN
hbond:SER:66     -1
Name: 55, dtype: object

>  <halogenbond:SER:66>  (56) 
halogenbond:SER:66    NaN
halogenbond:SER:66     -1
Name: 55, dtype: object

>  <hbond:SER:67>  (56) 
hbond:SER:67    NaN
hbond:SER:67     -1
Name: 55, dtype: object

>  <halogenbond:SER:67>  (56) 
halogenbond:SER:67    NaN
halogenbond:SER:67     -1
Name: 55, dtype: object

>  <hbond:ARG:68>  (56) 
hbond:ARG:68    NaN
hbond:ARG:68     -1
Name: 55, dtype: object

>  <saltbridge:ARG:68>  (56) 
saltbridge:ARG:68    NaN
saltbridge:ARG:68     -1
Name: 55, dtype: object

>  <hydroph_interaction:ARG:68>  (56) 
hydroph_interaction:ARG:68    NaN
hydroph_interaction:ARG:68     -1
Name: 55, dtype: object

>  <pication:ARG:68>  (56) 
pication:ARG:68    NaN
pication:ARG:68     -1
Name: 55, dtype: object

>  <hydroph_interaction:TYR:72>  (56) 
hydroph_interaction:TYR:72    NaN
hydroph_interaction:TYR:72     -1
Name: 55, dtype: object

>  <hydroph_interaction:VAL:74>  (56) 
hydroph_interaction:VAL:74    NaN
hydroph_interaction:VAL:74     -1
Name: 55, dtype: object

>  <hydroph_interaction:PHE:76>  (56) 
hydroph_interaction:PHE:76    NaN
hydroph_interaction:PHE:76     -1
Name: 55, dtype: object

>  <hbond:SER:77>  (56) 
hbond:SER:77    NaN
hbond:SER:77     -1
Name: 55, dtype: object

>  <hbond:SER:80>  (56) 
hbond:SER:80    NaN
hbond:SER:80     -1
Name: 55, dtype: object

>  <hbond:LEU:81>  (56) 
hbond:LEU:81    NaN
hbond:LEU:81     -1
Name: 55, dtype: object

>  <halogenbond:LEU:81>  (56) 
halogenbond:LEU:81    NaN
halogenbond:LEU:81     -1
Name: 55, dtype: object

>  <hydroph_interaction:LEU:81>  (56) 
hydroph_interaction:LEU:81    NaN
hydroph_interaction:LEU:81     -1
Name: 55, dtype: object

>  <hydroph_interaction:ILE:82>  (56) 
hydroph_interaction:ILE:82    NaN
hydroph_interaction:ILE:82     -1
Name: 55, dtype: object

>  <halogenbond:ILE:82>  (56) 
halogenbond:ILE:82    NaN
halogenbond:ILE:82     -1
Name: 55, dtype: object

>  <hbond:ILE:82>  (56) 
hbond:ILE:82    NaN
hbond:ILE:82     -1
Name: 55, dtype: object

>  <hbond:PHE:83>  (56) 
hbond:PHE:83    NaN
hbond:PHE:83     -1
Name: 55, dtype: object

>  <hydroph_interaction:PHE:83>  (56) 
hydroph_interaction:PHE:83    NaN
hydroph_interaction:PHE:83     -1
Name: 55, dtype: object

>  <halogenbond:PHE:83>  (56) 
halogenbond:PHE:83    NaN
halogenbond:PHE:83     -1
Name: 55, dtype: object

>  <pistack:PHE:83>  (56) 
pistack:PHE:83    NaN
pistack:PHE:83     -1
Name: 55, dtype: object

>  <pication:PHE:83>  (56) 
pication:PHE:83    NaN
pication:PHE:83     -1
Name: 55, dtype: object

>  <hydroph_interaction:VAL:84>  (56) 
hydroph_interaction:VAL:84    NaN
hydroph_interaction:VAL:84     -1
Name: 55, dtype: object

>  <halogenbond:VAL:84>  (56) 
halogenbond:VAL:84    NaN
halogenbond:VAL:84     -1
Name: 55, dtype: object

>  <hbond:VAL:84>  (56) 
hbond:VAL:84    NaN
hbond:VAL:84     -1
Name: 55, dtype: object

>  <hydroph_interaction:GLU:85>  (56) 
hydroph_interaction:GLU:85    NaN
hydroph_interaction:GLU:85     -1
Name: 55, dtype: object

>  <hbond:GLU:85>  (56) 
hbond:GLU:85    NaN
hbond:GLU:85     -1
Name: 55, dtype: object

>  <halogenbond:GLU:85>  (56) 
halogenbond:GLU:85    NaN
halogenbond:GLU:85     -1
Name: 55, dtype: object

>  <saltbridge:GLU:85>  (56) 
saltbridge:GLU:85    NaN
saltbridge:GLU:85     -1
Name: 55, dtype: object

>  <halogenbond:ALA:86>  (56) 
halogenbond:ALA:86    NaN
halogenbond:ALA:86     -1
Name: 55, dtype: object

>  <hbond:ALA:86>  (56) 
hbond:ALA:86    NaN
hbond:ALA:86     -1
Name: 55, dtype: object

>  <hydroph_interaction:ALA:86>  (56) 
hydroph_interaction:ALA:86    NaN
hydroph_interaction:ALA:86     -1
Name: 55, dtype: object

>  <hbond:SER:87>  (56) 
hbond:SER:87    0
hbond:SER:87    0
Name: 55, dtype: object

>  <halogenbond:SER:87>  (56) 
halogenbond:SER:87    NaN
halogenbond:SER:87     -1
Name: 55, dtype: object

>  <hbond:GLU:88>  (56) 
hbond:GLU:88    0.0
hbond:GLU:88      0
Name: 55, dtype: object

>  <hydroph_interaction:GLU:88>  (56) 
hydroph_interaction:GLU:88    NaN
hydroph_interaction:GLU:88     -1
Name: 55, dtype: object

>  <halogenbond:GLU:88>  (56) 
halogenbond:GLU:88    NaN
halogenbond:GLU:88     -1
Name: 55, dtype: object

>  <saltbridge:GLU:88>  (56) 
saltbridge:GLU:88    NaN
saltbridge:GLU:88     -1
Name: 55, dtype: object

>  <hydroph_interaction:TYR:89>  (56) 
hydroph_interaction:TYR:89    0.0
hydroph_interaction:TYR:89      0
Name: 55, dtype: object

>  <pistack:TYR:89>  (56) 
pistack:TYR:89    NaN
pistack:TYR:89     -1
Name: 55, dtype: object

>  <hbond:TYR:89>  (56) 
hbond:TYR:89    NaN
hbond:TYR:89     -1
Name: 55, dtype: object

>  <halogenbond:TYR:89>  (56) 
halogenbond:TYR:89    NaN
halogenbond:TYR:89     -1
Name: 55, dtype: object

>  <hydroph_interaction:TYR:90>  (56) 
hydroph_interaction:TYR:90    0.0
hydroph_interaction:TYR:90      0
Name: 55, dtype: object

>  <hbond:TYR:90>  (56) 
hbond:TYR:90    0.0
hbond:TYR:90      0
Name: 55, dtype: object

>  <pistack:TYR:90>  (56) 
pistack:TYR:90    NaN
pistack:TYR:90     -1
Name: 55, dtype: object

>  <halogenbond:TYR:90>  (56) 
halogenbond:TYR:90    NaN
halogenbond:TYR:90     -1
Name: 55, dtype: object

>  <pication:TYR:90>  (56) 
pication:TYR:90    NaN
pication:TYR:90     -1
Name: 55, dtype: object

>  <hbond:PRO:91>  (56) 
hbond:PRO:91    NaN
hbond:PRO:91     -1
Name: 55, dtype: object

>  <hydroph_interaction:PRO:91>  (56) 
hydroph_interaction:PRO:91    NaN
hydroph_interaction:PRO:91     -1
Name: 55, dtype: object

>  <halogenbond:PRO:91>  (56) 
halogenbond:PRO:91    NaN
halogenbond:PRO:91     -1
Name: 55, dtype: object

>  <hbond:ALA:92>  (56) 
hbond:ALA:92    NaN
hbond:ALA:92     -1
Name: 55, dtype: object

>  <hydroph_interaction:ALA:92>  (56) 
hydroph_interaction:ALA:92    NaN
hydroph_interaction:ALA:92     -1
Name: 55, dtype: object

>  <saltbridge:ARG:93>  (56) 
saltbridge:ARG:93    NaN
saltbridge:ARG:93     -1
Name: 55, dtype: object

>  <hbond:ARG:93>  (56) 
hbond:ARG:93    0.0
hbond:ARG:93      0
Name: 55, dtype: object

>  <hydroph_interaction:ARG:93>  (56) 
hydroph_interaction:ARG:93    NaN
hydroph_interaction:ARG:93     -1
Name: 55, dtype: object

>  <halogenbond:ARG:93>  (56) 
halogenbond:ARG:93    NaN
halogenbond:ARG:93     -1
Name: 55, dtype: object

>  <pication:ARG:93>  (56) 
pication:ARG:93    NaN
pication:ARG:93     -1
Name: 55, dtype: object

>  <hydroph_interaction:TYR:94>  (56) 
hydroph_interaction:TYR:94    NaN
hydroph_interaction:TYR:94     -1
Name: 55, dtype: object

>  <pistack:TYR:94>  (56) 
pistack:TYR:94    NaN
pistack:TYR:94     -1
Name: 55, dtype: object

>  <hbond:TYR:94>  (56) 
hbond:TYR:94    NaN
hbond:TYR:94     -1
Name: 55, dtype: object

>  <hbond:GLN:95>  (56) 
hbond:GLN:95    NaN
hbond:GLN:95     -1
Name: 55, dtype: object

>  <hydroph_interaction:GLN:95>  (56) 
hydroph_interaction:GLN:95    NaN
hydroph_interaction:GLN:95     -1
Name: 55, dtype: object

>  <halogenbond:GLN:95>  (56) 
halogenbond:GLN:95    NaN
halogenbond:GLN:95     -1
Name: 55, dtype: object

>  <hbond:SER:96>  (56) 
hbond:SER:96    NaN
hbond:SER:96     -1
Name: 55, dtype: object

>  <halogenbond:HIS:97>  (56) 
halogenbond:HIS:97    NaN
halogenbond:HIS:97     -1
Name: 55, dtype: object

>  <hydroph_interaction:LEU:98>  (56) 
hydroph_interaction:LEU:98    NaN
hydroph_interaction:LEU:98     -1
Name: 55, dtype: object

>  <hbond:LEU:98>  (56) 
hbond:LEU:98    NaN
hbond:LEU:98     -1
Name: 55, dtype: object

>  <halogenbond:LEU:98>  (56) 
halogenbond:LEU:98    NaN
halogenbond:LEU:98     -1
Name: 55, dtype: object

>  <hbond:MET:99>  (56) 
hbond:MET:99    NaN
hbond:MET:99     -1
Name: 55, dtype: object

>  <hydroph_interaction:MET:99>  (56) 
hydroph_interaction:MET:99    NaN
hydroph_interaction:MET:99     -1
Name: 55, dtype: object

>  <halogenbond:MET:99>  (56) 
halogenbond:MET:99    NaN
halogenbond:MET:99     -1
Name: 55, dtype: object

>  <hydroph_interaction:LEU:100>  (56) 
hydroph_interaction:LEU:100    NaN
hydroph_interaction:LEU:100     -1
Name: 55, dtype: object

>  <hbond:LEU:100>  (56) 
hbond:LEU:100    NaN
hbond:LEU:100     -1
Name: 55, dtype: object

>  <hbond:ALA:101>  (56) 
hbond:ALA:101    NaN
hbond:ALA:101     -1
Name: 55, dtype: object

>  <hydroph_interaction:ALA:101>  (56) 
hydroph_interaction:ALA:101    NaN
hydroph_interaction:ALA:101     -1
Name: 55, dtype: object

>  <hydroph_interaction:VAL:102>  (56) 
hydroph_interaction:VAL:102    NaN
hydroph_interaction:VAL:102     -1
Name: 55, dtype: object

>  <hbond:VAL:102>  (56) 
hbond:VAL:102    NaN
hbond:VAL:102     -1
Name: 55, dtype: object

>  <hbond:GLY:103>  (56) 
hbond:GLY:103    NaN
hbond:GLY:103     -1
Name: 55, dtype: object

>  <halogenbond:GLY:103>  (56) 
halogenbond:GLY:103    NaN
halogenbond:GLY:103     -1
Name: 55, dtype: object

>  <hbond:HIS:104>  (56) 
hbond:HIS:104    NaN
hbond:HIS:104     -1
Name: 55, dtype: object

>  <saltbridge:HIS:104>  (56) 
saltbridge:HIS:104    NaN
saltbridge:HIS:104     -1
Name: 55, dtype: object

>  <pication:HIS:104>  (56) 
pication:HIS:104    NaN
pication:HIS:104     -1
Name: 55, dtype: object

>  <halogenbond:HIS:104>  (56) 
halogenbond:HIS:104    NaN
halogenbond:HIS:104     -1
Name: 55, dtype: object

>  <hydroph_interaction:HIS:104>  (56) 
hydroph_interaction:HIS:104    NaN
hydroph_interaction:HIS:104     -1
Name: 55, dtype: object

>  <pistack:HIS:104>  (56) 
pistack:HIS:104    NaN
pistack:HIS:104     -1
Name: 55, dtype: object

>  <halogenbond:SER:105>  (56) 
halogenbond:SER:105    0.0
halogenbond:SER:105      0
Name: 55, dtype: object

>  <hbond:SER:105>  (56) 
hbond:SER:105    1.0
hbond:SER:105      1
Name: 55, dtype: object

>  <hbond:GLU:106>  (56) 
hbond:GLU:106    0.0
hbond:GLU:106      0
Name: 55, dtype: object

>  <hydroph_interaction:GLU:106>  (56) 
hydroph_interaction:GLU:106    0.0
hydroph_interaction:GLU:106      0
Name: 55, dtype: object

>  <saltbridge:GLU:106>  (56) 
saltbridge:GLU:106    NaN
saltbridge:GLU:106     -1
Name: 55, dtype: object

>  <halogenbond:GLU:106>  (56) 
halogenbond:GLU:106    NaN
halogenbond:GLU:106     -1
Name: 55, dtype: object

>  <hydroph_interaction:PRO:107>  (56) 
hydroph_interaction:PRO:107    2
hydroph_interaction:PRO:107    2
Name: 55, dtype: object

>  <hbond:PRO:107>  (56) 
hbond:PRO:107    0.0
hbond:PRO:107      0
Name: 55, dtype: object

>  <halogenbond:PRO:107>  (56) 
halogenbond:PRO:107    NaN
halogenbond:PRO:107     -1
Name: 55, dtype: object

>  <hbond:GLY:108>  (56) 
hbond:GLY:108    NaN
hbond:GLY:108     -1
Name: 55, dtype: object

>  <halogenbond:GLY:108>  (56) 
halogenbond:GLY:108    NaN
halogenbond:GLY:108     -1
Name: 55, dtype: object

>  <hbond:ASP:109>  (56) 
hbond:ASP:109    NaN
hbond:ASP:109     -1
Name: 55, dtype: object

>  <hydroph_interaction:ASP:109>  (56) 
hydroph_interaction:ASP:109    NaN
hydroph_interaction:ASP:109     -1
Name: 55, dtype: object

>  <saltbridge:ASP:109>  (56) 
saltbridge:ASP:109    NaN
saltbridge:ASP:109     -1
Name: 55, dtype: object

>  <halogenbond:CYS:110>  (56) 
halogenbond:CYS:110    NaN
halogenbond:CYS:110     -1
Name: 55, dtype: object

>  <hbond:CYS:110>  (56) 
hbond:CYS:110    NaN
hbond:CYS:110     -1
Name: 55, dtype: object

>  <hbond:GLY:111>  (56) 
hbond:GLY:111    NaN
hbond:GLY:111     -1
Name: 55, dtype: object

>  <hbond:GLY:112>  (56) 
hbond:GLY:112    NaN
hbond:GLY:112     -1
Name: 55, dtype: object

>  <hbond:ILE:113>  (56) 
hbond:ILE:113    NaN
hbond:ILE:113     -1
Name: 55, dtype: object

>  <hydroph_interaction:LEU:114>  (56) 
hydroph_interaction:LEU:114    NaN
hydroph_interaction:LEU:114     -1
Name: 55, dtype: object

>  <hbond:LEU:114>  (56) 
hbond:LEU:114    NaN
hbond:LEU:114     -1
Name: 55, dtype: object

>  <hydroph_interaction:ILE:123>  (56) 
hydroph_interaction:ILE:123    NaN
hydroph_interaction:ILE:123     -1
Name: 55, dtype: object

>  <hbond:ILE:123>  (56) 
hbond:ILE:123    NaN
hbond:ILE:123     -1
Name: 55, dtype: object

>  <hydroph_interaction:VAL:124>  (56) 
hydroph_interaction:VAL:124    1.0
hydroph_interaction:VAL:124      1
Name: 55, dtype: object

>  <hbond:VAL:124>  (56) 
hbond:VAL:124    NaN
hbond:VAL:124     -1
Name: 55, dtype: object

>  <halogenbond:VAL:124>  (56) 
halogenbond:VAL:124    NaN
halogenbond:VAL:124     -1
Name: 55, dtype: object

>  <hbond:SER:125>  (56) 
hbond:SER:125    0
hbond:SER:125    0
Name: 55, dtype: object

>  <halogenbond:SER:125>  (56) 
halogenbond:SER:125    NaN
halogenbond:SER:125     -1
Name: 55, dtype: object

>  <hydroph_interaction:THR:126>  (56) 
hydroph_interaction:THR:126    0.0
hydroph_interaction:THR:126      0
Name: 55, dtype: object

>  <hbond:THR:126>  (56) 
hbond:THR:126    0.0
hbond:THR:126      0
Name: 55, dtype: object

>  <halogenbond:THR:126>  (56) 
halogenbond:THR:126    NaN
halogenbond:THR:126     -1
Name: 55, dtype: object

>  <hbond:GLY:127>  (56) 
hbond:GLY:127    0
hbond:GLY:127    0
Name: 55, dtype: object

>  <halogenbond:GLY:127>  (56) 
halogenbond:GLY:127    NaN
halogenbond:GLY:127     -1
Name: 55, dtype: object

>  <hydroph_interaction:GLY:127>  (56) 
hydroph_interaction:GLY:127    NaN
hydroph_interaction:GLY:127     -1
Name: 55, dtype: object

>  <hbond:GLY:128>  (56) 
hbond:GLY:128    NaN
hbond:GLY:128     -1
Name: 55, dtype: object

>  <halogenbond:GLY:128>  (56) 
halogenbond:GLY:128    NaN
halogenbond:GLY:128     -1
Name: 55, dtype: object

>  <hydroph_interaction:GLY:128>  (56) 
hydroph_interaction:GLY:128    NaN
hydroph_interaction:GLY:128     -1
Name: 55, dtype: object

>  <hbond:ASN:129>  (56) 
hbond:ASN:129    NaN
hbond:ASN:129     -1
Name: 55, dtype: object

>  <hydroph_interaction:ASN:129>  (56) 
hydroph_interaction:ASN:129    NaN
hydroph_interaction:ASN:129     -1
Name: 55, dtype: object

>  <halogenbond:ASN:129>  (56) 
halogenbond:ASN:129    NaN
halogenbond:ASN:129     -1
Name: 55, dtype: object

>  <hbond:GLY:130>  (56) 
hbond:GLY:130    NaN
hbond:GLY:130     -1
Name: 55, dtype: object

>  <hbond:LEU:131>  (56) 
hbond:LEU:131    NaN
hbond:LEU:131     -1
Name: 55, dtype: object

>  <hydroph_interaction:LEU:131>  (56) 
hydroph_interaction:LEU:131    NaN
hydroph_interaction:LEU:131     -1
Name: 55, dtype: object

>  <halogenbond:LEU:131>  (56) 
halogenbond:LEU:131    NaN
halogenbond:LEU:131     -1
Name: 55, dtype: object

>  <hydroph_interaction:VAL:132>  (56) 
hydroph_interaction:VAL:132    NaN
hydroph_interaction:VAL:132     -1
Name: 55, dtype: object

>  <hbond:VAL:132>  (56) 
hbond:VAL:132    NaN
hbond:VAL:132     -1
Name: 55, dtype: object

>  <hbond:GLY:133>  (56) 
hbond:GLY:133    NaN
hbond:GLY:133     -1
Name: 55, dtype: object

>  <halogenbond:GLY:133>  (56) 
halogenbond:GLY:133    NaN
halogenbond:GLY:133     -1
Name: 55, dtype: object

>  <hydroph_interaction:PHE:134>  (56) 
hydroph_interaction:PHE:134    NaN
hydroph_interaction:PHE:134     -1
Name: 55, dtype: object

>  <hbond:PHE:134>  (56) 
hbond:PHE:134    NaN
hbond:PHE:134     -1
Name: 55, dtype: object

>  <pistack:PHE:134>  (56) 
pistack:PHE:134    NaN
pistack:PHE:134     -1
Name: 55, dtype: object

>  <pication:PHE:134>  (56) 
pication:PHE:134    NaN
pication:PHE:134     -1
Name: 55, dtype: object

>  <halogenbond:PHE:134>  (56) 
halogenbond:PHE:134    NaN
halogenbond:PHE:134     -1
Name: 55, dtype: object

>  <hydroph_interaction:ALA:135>  (56) 
hydroph_interaction:ALA:135    NaN
hydroph_interaction:ALA:135     -1
Name: 55, dtype: object

>  <hbond:ALA:135>  (56) 
hbond:ALA:135    NaN
hbond:ALA:135     -1
Name: 55, dtype: object

$$$$
PV_002206406386
     RDKit          3D

 31 32  0  0  0  0  0  0  0  0999 V2000
   13.7330   16.3760   19.8540 C   0  0  0  0  0  0  0  0  0  0  0  0
   12.4080   16.8150   20.3930 C   0  0  0  0  0  0  0  0  0  0  0  0
   11.9750   16.0260   21.5170 N   0  0  0  0  0  0  0  0  0  0  0  0
   12.9970   15.4610   22.3260 O   0  0  0  0  0  0  0  0  0  0  0  0
   12.6170   14.0920   22.5000 C   0  0  0  0  0  0  0  0  0  0  0  0
   11.1220   14.0110   22.2790 C   0  0  0  0  0  0  0  0  0  0  0  0
   10.2060   14.2250   23.8290 S   0  0  0  0  0  0  0  0  0  0  0  0
    9.4880   12.6330   24.0050 C   0  0  0  0  0  0  0  0  0  0  0  0
   10.0710   11.5860   23.2980 C   0  0  0  0  0  0  0  0  0  0  0  0
    9.5810   10.3010   23.4160 C   0  0  0  0  0  0  0  0  0  0  0  0
   10.1770    9.2760   22.7100 C   0  0  0  0  0  0  0  0  0  0  0  0
    8.4920   10.0800   24.2540 C   0  0  0  0  0  0  0  0  0  0  0  0
    7.8880   11.1200   24.9520 C   0  0  0  0  0  0  0  0  0  0  0  0
    8.3890   12.4150   24.8230 C   0  0  0  0  0  0  0  0  0  0  0  0
    7.6240   13.7050   25.6960 Cl  0  0  0  0  0  0  0  0  0  0  0  0
   10.8830   15.2050   21.4230 C   0  0  0  0  0  0  0  0  0  0  0  0
    9.8840   15.4340   20.7590 O   0  0  0  0  0  0  0  0  0  0  0  0
   13.6210   15.6190   19.0750 H   0  0  0  0  0  0  0  0  0  0  0  0
   14.2770   17.2290   19.4370 H   0  0  0  0  0  0  0  0  0  0  0  0
   14.3180   15.9490   20.6590 H   0  0  0  0  0  0  0  0  0  0  0  0
   11.6380   16.7480   19.6190 H   0  0  0  0  0  0  0  0  0  0  0  0
   12.4810   17.8480   20.6940 H   0  0  0  0  0  0  0  0  0  0  0  0
   13.1950   13.4700   21.8170 H   0  0  0  0  0  0  0  0  0  0  0  0
   12.8830   13.7990   23.5210 H   0  0  0  0  0  0  0  0  0  0  0  0
   10.8470   13.0890   21.7790 H   0  0  0  0  0  0  0  0  0  0  0  0
   10.9260   11.7720   22.6520 H   0  0  0  0  0  0  0  0  0  0  0  0
    9.4260    8.5750   22.3400 H   0  0  0  0  0  0  0  0  0  0  0  0
   10.8830    8.7120   23.3260 H   0  0  0  0  0  0  0  0  0  0  0  0
   10.7090    9.6810   21.8480 H   0  0  0  0  0  0  0  0  0  0  0  0
    8.0990    9.0780   24.3640 H   0  0  0  0  0  0  0  0  0  0  0  0
    7.0340   10.9130   25.5910 H   0  0  0  0  0  0  0  0  0  0  0  0
  1  2  1  0
  2  3  1  0
  3  4  1  0
  4  5  1  0
  5  6  1  0
  6  7  1  0
  7  8  1  0
  8  9  2  0
  9 10  1  0
 10 11  1  0
 10 12  2  0
 12 13  1  0
 13 14  2  0
 14 15  1  0
  6 16  1  0
 16 17  2  0
 16  3  1  0
 14  8  1  0
  1 18  1  0
  1 19  1  0
  1 20  1  0
  2 21  1  0
  2 22  1  0
  5 23  1  0
  5 24  1  0
  6 25  1  0
  9 26  1  0
 11 27  1  0
 11 28  1  0
 11 29  1  0
 12 30  1  0
 13 31  1  0
A    1
 C1 
A    2
 C2 
A    3
 N1 
A    4
 O1 
A    5
 C3 
A    6
 C4 
A    7
 S1 
A    8
 C5 
A    9
 C6 
A   10
 C7 
A   11
 C8 
A   12
 C9 
A   13
 C10
A   14
 C11
A   15
CL1 
A   16
 C12
A   17
 O2 
A   18
 H1 
A   19
 H2 
A   20
 H3 
A   21
 H4 
A   22
 H5 
A   23
 H6 
A   24
 H7 
A   25
 H8 
A   26
 H9 
A   27
 H10
A   28
 H11
A   29
 H12
A   30
 H13
A   31
 H14
M  END
>  <ref_pdb>  (57) 
x0310_0A

>  <ref_mols>  (57) 
x0416_0A,x0528_0A

>  <original SMILES>  (57) 
CCN1OCC(Sc2cc(C)ccc2Cl)C1=O

>  <rationale>  (57) 
info halogenbond:G127+D39+A86+E85+E106+E88+T126+P107+Y64+C65+N129+F83+R93+L131+I82+G128+P91+N19+H21+V84+G133+Y90+Y89+H97+L81+F134+L98+R20+G103+S66+S67+S7+G108+R38+V124+M99+S36; hbond:S87+T126+A86+E85+G103+G128+G130+L131+N129+H104+R68+V124+R93+P91+F83+S7+S66+G112+G133+V132+R20+Y89+S77+A135+Y63+A92+A101+M99+F134+L100+I82+Y64+S36+L98+V84+L81+Y94+S80+R38+S37+V102+G8+I123+G111+I113+L114+C65+L22+S96; hydroph_interaction:V124+Y90+Y89+H21+L22+E106+E88+N129+N19+L40+I123+A135+I82+L100+L98+L131+F83+R93+V132+Y63+F134+H104+R20+A86+V74+P91+A101+F76+M99+L114+A92+Y94+R68+Y72+Y64+V18+V102+W28+G127+G128+L81; pication:H104+Y63+F134+Y90+R68+F83+R20; pistack:H21+Y89+H104+F134+Y63+F83+Y94; saltbridge:R93+H104+E106+D109+E85+E88+R68+R20; 

>  <intxn_cluster>  (57) 
-1

>  <intxn_cluster_rank>  (57) 
-1

>  <N_interactions>  (57) 
5

>  <∆∆G>  (57) 
-10.866898

>  <$/mg>  (57) 
163.0

>  <comRMSD>  (57) 
0.570634

>  <N_rotatable_bonds>  (57) 
5

>  <deep_P1_sidechain>  (57) 
nan

>  <farthest_distance_to_substrate>  (57) 
2.309011

>  <hbond:SER:7>  (57) 
hbond:SER:7    NaN
hbond:SER:7     -1
Name: 56, dtype: object

>  <halogenbond:SER:7>  (57) 
halogenbond:SER:7    NaN
halogenbond:SER:7     -1
Name: 56, dtype: object

>  <hbond:GLY:8>  (57) 
hbond:GLY:8    NaN
hbond:GLY:8     -1
Name: 56, dtype: object

>  <hydroph_interaction:VAL:18>  (57) 
hydroph_interaction:VAL:18    NaN
hydroph_interaction:VAL:18     -1
Name: 56, dtype: object

>  <hbond:ASN:19>  (57) 
hbond:ASN:19    0.0
hbond:ASN:19      0
Name: 56, dtype: object

>  <hydroph_interaction:ASN:19>  (57) 
hydroph_interaction:ASN:19    NaN
hydroph_interaction:ASN:19     -1
Name: 56, dtype: object

>  <halogenbond:ASN:19>  (57) 
halogenbond:ASN:19    NaN
halogenbond:ASN:19     -1
Name: 56, dtype: object

>  <hbond:ARG:20>  (57) 
hbond:ARG:20    NaN
hbond:ARG:20     -1
Name: 56, dtype: object

>  <hydroph_interaction:ARG:20>  (57) 
hydroph_interaction:ARG:20    NaN
hydroph_interaction:ARG:20     -1
Name: 56, dtype: object

>  <saltbridge:ARG:20>  (57) 
saltbridge:ARG:20    NaN
saltbridge:ARG:20     -1
Name: 56, dtype: object

>  <halogenbond:ARG:20>  (57) 
halogenbond:ARG:20    NaN
halogenbond:ARG:20     -1
Name: 56, dtype: object

>  <pication:ARG:20>  (57) 
pication:ARG:20    NaN
pication:ARG:20     -1
Name: 56, dtype: object

>  <hbond:HIS:21>  (57) 
hbond:HIS:21    0.0
hbond:HIS:21      0
Name: 56, dtype: object

>  <hydroph_interaction:HIS:21>  (57) 
hydroph_interaction:HIS:21    1.0
hydroph_interaction:HIS:21      1
Name: 56, dtype: object

>  <pistack:HIS:21>  (57) 
pistack:HIS:21    NaN
pistack:HIS:21     -1
Name: 56, dtype: object

>  <pication:HIS:21>  (57) 
pication:HIS:21    0.0
pication:HIS:21      0
Name: 56, dtype: object

>  <saltbridge:HIS:21>  (57) 
saltbridge:HIS:21    0.0
saltbridge:HIS:21      0
Name: 56, dtype: object

>  <halogenbond:HIS:21>  (57) 
halogenbond:HIS:21    NaN
halogenbond:HIS:21     -1
Name: 56, dtype: object

>  <hydroph_interaction:LEU:22>  (57) 
hydroph_interaction:LEU:22    NaN
hydroph_interaction:LEU:22     -1
Name: 56, dtype: object

>  <hbond:LEU:22>  (57) 
hbond:LEU:22    NaN
hbond:LEU:22     -1
Name: 56, dtype: object

>  <hydroph_interaction:TRP:28>  (57) 
hydroph_interaction:TRP:28    NaN
hydroph_interaction:TRP:28     -1
Name: 56, dtype: object

>  <hbond:SER:36>  (57) 
hbond:SER:36    NaN
hbond:SER:36     -1
Name: 56, dtype: object

>  <halogenbond:SER:36>  (57) 
halogenbond:SER:36    NaN
halogenbond:SER:36     -1
Name: 56, dtype: object

>  <hbond:SER:37>  (57) 
hbond:SER:37    NaN
hbond:SER:37     -1
Name: 56, dtype: object

>  <hbond:ARG:38>  (57) 
hbond:ARG:38    NaN
hbond:ARG:38     -1
Name: 56, dtype: object

>  <halogenbond:ARG:38>  (57) 
halogenbond:ARG:38    NaN
halogenbond:ARG:38     -1
Name: 56, dtype: object

>  <saltbridge:ASP:39>  (57) 
saltbridge:ASP:39    0.0
saltbridge:ASP:39      0
Name: 56, dtype: object

>  <halogenbond:ASP:39>  (57) 
halogenbond:ASP:39    NaN
halogenbond:ASP:39     -1
Name: 56, dtype: object

>  <hbond:ASP:39>  (57) 
hbond:ASP:39    0.0
hbond:ASP:39      0
Name: 56, dtype: object

>  <hydroph_interaction:ASP:39>  (57) 
hydroph_interaction:ASP:39    0.0
hydroph_interaction:ASP:39      0
Name: 56, dtype: object

>  <hydroph_interaction:LEU:40>  (57) 
hydroph_interaction:LEU:40    NaN
hydroph_interaction:LEU:40     -1
Name: 56, dtype: object

>  <hydroph_interaction:TYR:63>  (57) 
hydroph_interaction:TYR:63    NaN
hydroph_interaction:TYR:63     -1
Name: 56, dtype: object

>  <hbond:TYR:63>  (57) 
hbond:TYR:63    NaN
hbond:TYR:63     -1
Name: 56, dtype: object

>  <pistack:TYR:63>  (57) 
pistack:TYR:63    NaN
pistack:TYR:63     -1
Name: 56, dtype: object

>  <pication:TYR:63>  (57) 
pication:TYR:63    NaN
pication:TYR:63     -1
Name: 56, dtype: object

>  <halogenbond:TYR:64>  (57) 
halogenbond:TYR:64    NaN
halogenbond:TYR:64     -1
Name: 56, dtype: object

>  <hbond:TYR:64>  (57) 
hbond:TYR:64    NaN
hbond:TYR:64     -1
Name: 56, dtype: object

>  <hydroph_interaction:TYR:64>  (57) 
hydroph_interaction:TYR:64    NaN
hydroph_interaction:TYR:64     -1
Name: 56, dtype: object

>  <halogenbond:CYS:65>  (57) 
halogenbond:CYS:65    NaN
halogenbond:CYS:65     -1
Name: 56, dtype: object

>  <hbond:CYS:65>  (57) 
hbond:CYS:65    NaN
hbond:CYS:65     -1
Name: 56, dtype: object

>  <hbond:SER:66>  (57) 
hbond:SER:66    NaN
hbond:SER:66     -1
Name: 56, dtype: object

>  <halogenbond:SER:66>  (57) 
halogenbond:SER:66    NaN
halogenbond:SER:66     -1
Name: 56, dtype: object

>  <hbond:SER:67>  (57) 
hbond:SER:67    0.0
hbond:SER:67      0
Name: 56, dtype: object

>  <halogenbond:SER:67>  (57) 
halogenbond:SER:67    NaN
halogenbond:SER:67     -1
Name: 56, dtype: object

>  <hbond:ARG:68>  (57) 
hbond:ARG:68    NaN
hbond:ARG:68     -1
Name: 56, dtype: object

>  <saltbridge:ARG:68>  (57) 
saltbridge:ARG:68    NaN
saltbridge:ARG:68     -1
Name: 56, dtype: object

>  <hydroph_interaction:ARG:68>  (57) 
hydroph_interaction:ARG:68    NaN
hydroph_interaction:ARG:68     -1
Name: 56, dtype: object

>  <pication:ARG:68>  (57) 
pication:ARG:68    NaN
pication:ARG:68     -1
Name: 56, dtype: object

>  <hydroph_interaction:TYR:72>  (57) 
hydroph_interaction:TYR:72    NaN
hydroph_interaction:TYR:72     -1
Name: 56, dtype: object

>  <hydroph_interaction:VAL:74>  (57) 
hydroph_interaction:VAL:74    NaN
hydroph_interaction:VAL:74     -1
Name: 56, dtype: object

>  <hydroph_interaction:PHE:76>  (57) 
hydroph_interaction:PHE:76    NaN
hydroph_interaction:PHE:76     -1
Name: 56, dtype: object

>  <hbond:SER:77>  (57) 
hbond:SER:77    NaN
hbond:SER:77     -1
Name: 56, dtype: object

>  <hbond:SER:80>  (57) 
hbond:SER:80    NaN
hbond:SER:80     -1
Name: 56, dtype: object

>  <hbond:LEU:81>  (57) 
hbond:LEU:81    NaN
hbond:LEU:81     -1
Name: 56, dtype: object

>  <halogenbond:LEU:81>  (57) 
halogenbond:LEU:81    NaN
halogenbond:LEU:81     -1
Name: 56, dtype: object

>  <hydroph_interaction:LEU:81>  (57) 
hydroph_interaction:LEU:81    NaN
hydroph_interaction:LEU:81     -1
Name: 56, dtype: object

>  <hydroph_interaction:ILE:82>  (57) 
hydroph_interaction:ILE:82    NaN
hydroph_interaction:ILE:82     -1
Name: 56, dtype: object

>  <halogenbond:ILE:82>  (57) 
halogenbond:ILE:82    NaN
halogenbond:ILE:82     -1
Name: 56, dtype: object

>  <hbond:ILE:82>  (57) 
hbond:ILE:82    NaN
hbond:ILE:82     -1
Name: 56, dtype: object

>  <hbond:PHE:83>  (57) 
hbond:PHE:83    NaN
hbond:PHE:83     -1
Name: 56, dtype: object

>  <hydroph_interaction:PHE:83>  (57) 
hydroph_interaction:PHE:83    NaN
hydroph_interaction:PHE:83     -1
Name: 56, dtype: object

>  <halogenbond:PHE:83>  (57) 
halogenbond:PHE:83    NaN
halogenbond:PHE:83     -1
Name: 56, dtype: object

>  <pistack:PHE:83>  (57) 
pistack:PHE:83    NaN
pistack:PHE:83     -1
Name: 56, dtype: object

>  <pication:PHE:83>  (57) 
pication:PHE:83    NaN
pication:PHE:83     -1
Name: 56, dtype: object

>  <hydroph_interaction:VAL:84>  (57) 
hydroph_interaction:VAL:84    0.0
hydroph_interaction:VAL:84      0
Name: 56, dtype: object

>  <halogenbond:VAL:84>  (57) 
halogenbond:VAL:84    NaN
halogenbond:VAL:84     -1
Name: 56, dtype: object

>  <hbond:VAL:84>  (57) 
hbond:VAL:84    NaN
hbond:VAL:84     -1
Name: 56, dtype: object

>  <hydroph_interaction:GLU:85>  (57) 
hydroph_interaction:GLU:85    0.0
hydroph_interaction:GLU:85      0
Name: 56, dtype: object

>  <hbond:GLU:85>  (57) 
hbond:GLU:85    NaN
hbond:GLU:85     -1
Name: 56, dtype: object

>  <halogenbond:GLU:85>  (57) 
halogenbond:GLU:85    NaN
halogenbond:GLU:85     -1
Name: 56, dtype: object

>  <saltbridge:GLU:85>  (57) 
saltbridge:GLU:85    NaN
saltbridge:GLU:85     -1
Name: 56, dtype: object

>  <halogenbond:ALA:86>  (57) 
halogenbond:ALA:86    NaN
halogenbond:ALA:86     -1
Name: 56, dtype: object

>  <hbond:ALA:86>  (57) 
hbond:ALA:86    NaN
hbond:ALA:86     -1
Name: 56, dtype: object

>  <hydroph_interaction:ALA:86>  (57) 
hydroph_interaction:ALA:86    NaN
hydroph_interaction:ALA:86     -1
Name: 56, dtype: object

>  <hbond:SER:87>  (57) 
hbond:SER:87    1
hbond:SER:87    1
Name: 56, dtype: object

>  <halogenbond:SER:87>  (57) 
halogenbond:SER:87    0.0
halogenbond:SER:87      0
Name: 56, dtype: object

>  <hbond:GLU:88>  (57) 
hbond:GLU:88    0.0
hbond:GLU:88      0
Name: 56, dtype: object

>  <hydroph_interaction:GLU:88>  (57) 
hydroph_interaction:GLU:88    NaN
hydroph_interaction:GLU:88     -1
Name: 56, dtype: object

>  <halogenbond:GLU:88>  (57) 
halogenbond:GLU:88    NaN
halogenbond:GLU:88     -1
Name: 56, dtype: object

>  <saltbridge:GLU:88>  (57) 
saltbridge:GLU:88    NaN
saltbridge:GLU:88     -1
Name: 56, dtype: object

>  <hydroph_interaction:TYR:89>  (57) 
hydroph_interaction:TYR:89    1.0
hydroph_interaction:TYR:89      1
Name: 56, dtype: object

>  <pistack:TYR:89>  (57) 
pistack:TYR:89    NaN
pistack:TYR:89     -1
Name: 56, dtype: object

>  <hbond:TYR:89>  (57) 
hbond:TYR:89    NaN
hbond:TYR:89     -1
Name: 56, dtype: object

>  <halogenbond:TYR:89>  (57) 
halogenbond:TYR:89    NaN
halogenbond:TYR:89     -1
Name: 56, dtype: object

>  <hydroph_interaction:TYR:90>  (57) 
hydroph_interaction:TYR:90    1.0
hydroph_interaction:TYR:90      1
Name: 56, dtype: object

>  <hbond:TYR:90>  (57) 
hbond:TYR:90    0.0
hbond:TYR:90      0
Name: 56, dtype: object

>  <pistack:TYR:90>  (57) 
pistack:TYR:90    0.0
pistack:TYR:90      0
Name: 56, dtype: object

>  <halogenbond:TYR:90>  (57) 
halogenbond:TYR:90    NaN
halogenbond:TYR:90     -1
Name: 56, dtype: object

>  <pication:TYR:90>  (57) 
pication:TYR:90    NaN
pication:TYR:90     -1
Name: 56, dtype: object

>  <hbond:PRO:91>  (57) 
hbond:PRO:91    NaN
hbond:PRO:91     -1
Name: 56, dtype: object

>  <hydroph_interaction:PRO:91>  (57) 
hydroph_interaction:PRO:91    NaN
hydroph_interaction:PRO:91     -1
Name: 56, dtype: object

>  <halogenbond:PRO:91>  (57) 
halogenbond:PRO:91    NaN
halogenbond:PRO:91     -1
Name: 56, dtype: object

>  <hbond:ALA:92>  (57) 
hbond:ALA:92    NaN
hbond:ALA:92     -1
Name: 56, dtype: object

>  <hydroph_interaction:ALA:92>  (57) 
hydroph_interaction:ALA:92    NaN
hydroph_interaction:ALA:92     -1
Name: 56, dtype: object

>  <saltbridge:ARG:93>  (57) 
saltbridge:ARG:93    NaN
saltbridge:ARG:93     -1
Name: 56, dtype: object

>  <hbond:ARG:93>  (57) 
hbond:ARG:93    NaN
hbond:ARG:93     -1
Name: 56, dtype: object

>  <hydroph_interaction:ARG:93>  (57) 
hydroph_interaction:ARG:93    NaN
hydroph_interaction:ARG:93     -1
Name: 56, dtype: object

>  <halogenbond:ARG:93>  (57) 
halogenbond:ARG:93    NaN
halogenbond:ARG:93     -1
Name: 56, dtype: object

>  <pication:ARG:93>  (57) 
pication:ARG:93    0.0
pication:ARG:93      0
Name: 56, dtype: object

>  <hydroph_interaction:TYR:94>  (57) 
hydroph_interaction:TYR:94    NaN
hydroph_interaction:TYR:94     -1
Name: 56, dtype: object

>  <pistack:TYR:94>  (57) 
pistack:TYR:94    NaN
pistack:TYR:94     -1
Name: 56, dtype: object

>  <hbond:TYR:94>  (57) 
hbond:TYR:94    NaN
hbond:TYR:94     -1
Name: 56, dtype: object

>  <hbond:GLN:95>  (57) 
hbond:GLN:95    0.0
hbond:GLN:95      0
Name: 56, dtype: object

>  <hydroph_interaction:GLN:95>  (57) 
hydroph_interaction:GLN:95    0.0
hydroph_interaction:GLN:95      0
Name: 56, dtype: object

>  <halogenbond:GLN:95>  (57) 
halogenbond:GLN:95    0.0
halogenbond:GLN:95      0
Name: 56, dtype: object

>  <hbond:SER:96>  (57) 
hbond:SER:96    NaN
hbond:SER:96     -1
Name: 56, dtype: object

>  <halogenbond:HIS:97>  (57) 
halogenbond:HIS:97    NaN
halogenbond:HIS:97     -1
Name: 56, dtype: object

>  <hydroph_interaction:LEU:98>  (57) 
hydroph_interaction:LEU:98    NaN
hydroph_interaction:LEU:98     -1
Name: 56, dtype: object

>  <hbond:LEU:98>  (57) 
hbond:LEU:98    NaN
hbond:LEU:98     -1
Name: 56, dtype: object

>  <halogenbond:LEU:98>  (57) 
halogenbond:LEU:98    NaN
halogenbond:LEU:98     -1
Name: 56, dtype: object

>  <hbond:MET:99>  (57) 
hbond:MET:99    NaN
hbond:MET:99     -1
Name: 56, dtype: object

>  <hydroph_interaction:MET:99>  (57) 
hydroph_interaction:MET:99    NaN
hydroph_interaction:MET:99     -1
Name: 56, dtype: object

>  <halogenbond:MET:99>  (57) 
halogenbond:MET:99    NaN
halogenbond:MET:99     -1
Name: 56, dtype: object

>  <hydroph_interaction:LEU:100>  (57) 
hydroph_interaction:LEU:100    NaN
hydroph_interaction:LEU:100     -1
Name: 56, dtype: object

>  <hbond:LEU:100>  (57) 
hbond:LEU:100    NaN
hbond:LEU:100     -1
Name: 56, dtype: object

>  <hbond:ALA:101>  (57) 
hbond:ALA:101    NaN
hbond:ALA:101     -1
Name: 56, dtype: object

>  <hydroph_interaction:ALA:101>  (57) 
hydroph_interaction:ALA:101    NaN
hydroph_interaction:ALA:101     -1
Name: 56, dtype: object

>  <hydroph_interaction:VAL:102>  (57) 
hydroph_interaction:VAL:102    NaN
hydroph_interaction:VAL:102     -1
Name: 56, dtype: object

>  <hbond:VAL:102>  (57) 
hbond:VAL:102    NaN
hbond:VAL:102     -1
Name: 56, dtype: object

>  <hbond:GLY:103>  (57) 
hbond:GLY:103    NaN
hbond:GLY:103     -1
Name: 56, dtype: object

>  <halogenbond:GLY:103>  (57) 
halogenbond:GLY:103    NaN
halogenbond:GLY:103     -1
Name: 56, dtype: object

>  <hbond:HIS:104>  (57) 
hbond:HIS:104    NaN
hbond:HIS:104     -1
Name: 56, dtype: object

>  <saltbridge:HIS:104>  (57) 
saltbridge:HIS:104    NaN
saltbridge:HIS:104     -1
Name: 56, dtype: object

>  <pication:HIS:104>  (57) 
pication:HIS:104    NaN
pication:HIS:104     -1
Name: 56, dtype: object

>  <halogenbond:HIS:104>  (57) 
halogenbond:HIS:104    0.0
halogenbond:HIS:104      0
Name: 56, dtype: object

>  <hydroph_interaction:HIS:104>  (57) 
hydroph_interaction:HIS:104    NaN
hydroph_interaction:HIS:104     -1
Name: 56, dtype: object

>  <pistack:HIS:104>  (57) 
pistack:HIS:104    NaN
pistack:HIS:104     -1
Name: 56, dtype: object

>  <halogenbond:SER:105>  (57) 
halogenbond:SER:105    0.0
halogenbond:SER:105      0
Name: 56, dtype: object

>  <hbond:SER:105>  (57) 
hbond:SER:105    0.0
hbond:SER:105      0
Name: 56, dtype: object

>  <hbond:GLU:106>  (57) 
hbond:GLU:106    0.0
hbond:GLU:106      0
Name: 56, dtype: object

>  <hydroph_interaction:GLU:106>  (57) 
hydroph_interaction:GLU:106    NaN
hydroph_interaction:GLU:106     -1
Name: 56, dtype: object

>  <saltbridge:GLU:106>  (57) 
saltbridge:GLU:106    NaN
saltbridge:GLU:106     -1
Name: 56, dtype: object

>  <halogenbond:GLU:106>  (57) 
halogenbond:GLU:106    NaN
halogenbond:GLU:106     -1
Name: 56, dtype: object

>  <hydroph_interaction:PRO:107>  (57) 
hydroph_interaction:PRO:107    0
hydroph_interaction:PRO:107    0
Name: 56, dtype: object

>  <hbond:PRO:107>  (57) 
hbond:PRO:107    0.0
hbond:PRO:107      0
Name: 56, dtype: object

>  <halogenbond:PRO:107>  (57) 
halogenbond:PRO:107    NaN
halogenbond:PRO:107     -1
Name: 56, dtype: object

>  <hbond:GLY:108>  (57) 
hbond:GLY:108    0.0
hbond:GLY:108      0
Name: 56, dtype: object

>  <halogenbond:GLY:108>  (57) 
halogenbond:GLY:108    NaN
halogenbond:GLY:108     -1
Name: 56, dtype: object

>  <hbond:ASP:109>  (57) 
hbond:ASP:109    0.0
hbond:ASP:109      0
Name: 56, dtype: object

>  <hydroph_interaction:ASP:109>  (57) 
hydroph_interaction:ASP:109    0.0
hydroph_interaction:ASP:109      0
Name: 56, dtype: object

>  <saltbridge:ASP:109>  (57) 
saltbridge:ASP:109    NaN
saltbridge:ASP:109     -1
Name: 56, dtype: object

>  <halogenbond:CYS:110>  (57) 
halogenbond:CYS:110    0.0
halogenbond:CYS:110      0
Name: 56, dtype: object

>  <hbond:CYS:110>  (57) 
hbond:CYS:110    0.0
hbond:CYS:110      0
Name: 56, dtype: object

>  <hbond:GLY:111>  (57) 
hbond:GLY:111    NaN
hbond:GLY:111     -1
Name: 56, dtype: object

>  <hbond:GLY:112>  (57) 
hbond:GLY:112    NaN
hbond:GLY:112     -1
Name: 56, dtype: object

>  <hbond:ILE:113>  (57) 
hbond:ILE:113    NaN
hbond:ILE:113     -1
Name: 56, dtype: object

>  <hydroph_interaction:LEU:114>  (57) 
hydroph_interaction:LEU:114    NaN
hydroph_interaction:LEU:114     -1
Name: 56, dtype: object

>  <hbond:LEU:114>  (57) 
hbond:LEU:114    NaN
hbond:LEU:114     -1
Name: 56, dtype: object

>  <hydroph_interaction:ILE:123>  (57) 
hydroph_interaction:ILE:123    NaN
hydroph_interaction:ILE:123     -1
Name: 56, dtype: object

>  <hbond:ILE:123>  (57) 
hbond:ILE:123    NaN
hbond:ILE:123     -1
Name: 56, dtype: object

>  <hydroph_interaction:VAL:124>  (57) 
hydroph_interaction:VAL:124    1.0
hydroph_interaction:VAL:124      1
Name: 56, dtype: object

>  <hbond:VAL:124>  (57) 
hbond:VAL:124    NaN
hbond:VAL:124     -1
Name: 56, dtype: object

>  <halogenbond:VAL:124>  (57) 
halogenbond:VAL:124    NaN
halogenbond:VAL:124     -1
Name: 56, dtype: object

>  <hbond:SER:125>  (57) 
hbond:SER:125    0
hbond:SER:125    0
Name: 56, dtype: object

>  <halogenbond:SER:125>  (57) 
halogenbond:SER:125    0.0
halogenbond:SER:125      0
Name: 56, dtype: object

>  <hydroph_interaction:THR:126>  (57) 
hydroph_interaction:THR:126    0.0
hydroph_interaction:THR:126      0
Name: 56, dtype: object

>  <hbond:THR:126>  (57) 
hbond:THR:126    NaN
hbond:THR:126     -1
Name: 56, dtype: object

>  <halogenbond:THR:126>  (57) 
halogenbond:THR:126    NaN
halogenbond:THR:126     -1
Name: 56, dtype: object

>  <hbond:GLY:127>  (57) 
hbond:GLY:127    0
hbond:GLY:127    0
Name: 56, dtype: object

>  <halogenbond:GLY:127>  (57) 
halogenbond:GLY:127    NaN
halogenbond:GLY:127     -1
Name: 56, dtype: object

>  <hydroph_interaction:GLY:127>  (57) 
hydroph_interaction:GLY:127    NaN
hydroph_interaction:GLY:127     -1
Name: 56, dtype: object

>  <hbond:GLY:128>  (57) 
hbond:GLY:128    NaN
hbond:GLY:128     -1
Name: 56, dtype: object

>  <halogenbond:GLY:128>  (57) 
halogenbond:GLY:128    NaN
halogenbond:GLY:128     -1
Name: 56, dtype: object

>  <hydroph_interaction:GLY:128>  (57) 
hydroph_interaction:GLY:128    NaN
hydroph_interaction:GLY:128     -1
Name: 56, dtype: object

>  <hbond:ASN:129>  (57) 
hbond:ASN:129    NaN
hbond:ASN:129     -1
Name: 56, dtype: object

>  <hydroph_interaction:ASN:129>  (57) 
hydroph_interaction:ASN:129    NaN
hydroph_interaction:ASN:129     -1
Name: 56, dtype: object

>  <halogenbond:ASN:129>  (57) 
halogenbond:ASN:129    NaN
halogenbond:ASN:129     -1
Name: 56, dtype: object

>  <hbond:GLY:130>  (57) 
hbond:GLY:130    NaN
hbond:GLY:130     -1
Name: 56, dtype: object

>  <hbond:LEU:131>  (57) 
hbond:LEU:131    NaN
hbond:LEU:131     -1
Name: 56, dtype: object

>  <hydroph_interaction:LEU:131>  (57) 
hydroph_interaction:LEU:131    NaN
hydroph_interaction:LEU:131     -1
Name: 56, dtype: object

>  <halogenbond:LEU:131>  (57) 
halogenbond:LEU:131    NaN
halogenbond:LEU:131     -1
Name: 56, dtype: object

>  <hydroph_interaction:VAL:132>  (57) 
hydroph_interaction:VAL:132    NaN
hydroph_interaction:VAL:132     -1
Name: 56, dtype: object

>  <hbond:VAL:132>  (57) 
hbond:VAL:132    NaN
hbond:VAL:132     -1
Name: 56, dtype: object

>  <hbond:GLY:133>  (57) 
hbond:GLY:133    NaN
hbond:GLY:133     -1
Name: 56, dtype: object

>  <halogenbond:GLY:133>  (57) 
halogenbond:GLY:133    NaN
halogenbond:GLY:133     -1
Name: 56, dtype: object

>  <hydroph_interaction:PHE:134>  (57) 
hydroph_interaction:PHE:134    NaN
hydroph_interaction:PHE:134     -1
Name: 56, dtype: object

>  <hbond:PHE:134>  (57) 
hbond:PHE:134    NaN
hbond:PHE:134     -1
Name: 56, dtype: object

>  <pistack:PHE:134>  (57) 
pistack:PHE:134    NaN
pistack:PHE:134     -1
Name: 56, dtype: object

>  <pication:PHE:134>  (57) 
pication:PHE:134    NaN
pication:PHE:134     -1
Name: 56, dtype: object

>  <halogenbond:PHE:134>  (57) 
halogenbond:PHE:134    NaN
halogenbond:PHE:134     -1
Name: 56, dtype: object

>  <hydroph_interaction:ALA:135>  (57) 
hydroph_interaction:ALA:135    NaN
hydroph_interaction:ALA:135     -1
Name: 56, dtype: object

>  <hbond:ALA:135>  (57) 
hbond:ALA:135    NaN
hbond:ALA:135     -1
Name: 56, dtype: object

$$$$
Z1533092983
     RDKit          3D

 25 25  0  0  0  0  0  0  0  0999 V2000
    9.1230   16.9080   18.4490 C   0  0  0  0  0  0  0  0  0  0  0  0
    9.5830   16.1130   19.2200 C   0  0  0  0  0  0  0  0  0  0  0  0
   10.1400   15.1340   20.1720 C   0  0  0  0  0  0  0  0  0  0  0  0
    9.0840   14.6350   21.1720 C   0  0  0  0  0  0  0  0  0  0  0  0
    9.7180   14.1530   22.4300 N   0  0  0  0  0  0  0  0  0  0  0  0
    9.3780   12.9130   23.0610 C   0  0  0  0  0  0  0  0  0  0  0  0
    8.3130   12.8250   23.9990 C   0  0  0  0  0  0  0  0  0  0  0  0
    7.4050   14.2600   24.3730 Cl  0  0  0  0  0  0  0  0  0  0  0  0
    7.9770   11.6030   24.6280 C   0  0  0  0  0  0  0  0  0  0  0  0
    6.8640   11.4840   25.6280 C   0  0  0  0  0  0  0  0  0  0  0  0
    8.7060   10.4600   24.3080 C   0  0  0  0  0  0  0  0  0  0  0  0
    9.7500   10.5190   23.3990 C   0  0  0  0  0  0  0  0  0  0  0  0
   10.0780   11.7300   22.7940 C   0  0  0  0  0  0  0  0  0  0  0  0
    8.7060   17.6170   17.7710 H   0  0  0  0  0  0  0  0  0  0  0  0
   10.5730   14.2920   19.6210 H   0  0  0  0  0  0  0  0  0  0  0  0
   10.9560   15.6080   20.7300 H   0  0  0  0  0  0  0  0  0  0  0  0
    8.4990   13.8850   20.6980 H   0  0  0  0  0  0  0  0  0  0  0  0
    8.3700   15.4160   21.3520 H   0  0  0  0  0  0  0  0  0  0  0  0
   10.7390   14.2260   22.3910 H   0  0  0  0  0  0  0  0  0  0  0  0
    6.0010   12.0790   25.3180 H   0  0  0  0  0  0  0  0  0  0  0  0
    6.5270   10.4460   25.7300 H   0  0  0  0  0  0  0  0  0  0  0  0
    7.1950   11.8150   26.6140 H   0  0  0  0  0  0  0  0  0  0  0  0
    8.4660    9.5090   24.7690 H   0  0  0  0  0  0  0  0  0  0  0  0
   10.3160    9.6210   23.1580 H   0  0  0  0  0  0  0  0  0  0  0  0
   10.9000   11.7290   22.1010 H   0  0  0  0  0  0  0  0  0  0  0  0
  1  2  3  0
  2  3  1  0
  3  4  1  0
  4  5  1  0
  5  6  1  0
  6  7  2  0
  7  8  1  0
  7  9  1  0
  9 10  1  0
  9 11  2  0
 11 12  1  0
 12 13  2  0
 13  6  1  0
  1 14  1  0
  3 15  1  0
  3 16  1  0
  4 17  1  0
  4 18  1  0
  5 19  1  0
 10 20  1  0
 10 21  1  0
 10 22  1  0
 11 23  1  0
 12 24  1  0
 13 25  1  0
A    1
 C1 
A    2
 C2 
A    3
 C3 
A    4
 C4 
A    5
 N1 
A    6
 C5 
A    7
 C6 
A    8
CL1 
A    9
 C7 
A   10
 C8 
A   11
 C9 
A   12
 C10
A   13
 C11
A   14
 H1 
A   15
 H2 
A   16
 H3 
A   17
 H4 
A   18
 H5 
A   19
 H6 
A   20
 H7 
A   21
 H8 
A   22
 H9 
A   23
 H10
A   24
 H11
A   25
 H12
M  END
>  <ref_pdb>  (58) 
x0310_0A

>  <ref_mols>  (58) 
x0554_0A,x0732_0A

>  <original SMILES>  (58) 
C#CCCNc1cccc(C)c1Cl

>  <rationale>  (58) 
info halogenbond:G127+D39+A86+E85+Q95+E106+E88+T126+P107+H104+Y64+C65+S87+N129+F83+R93+L131+I82+G128+P91+N19+H21+V84+G133+Y90+Y89+H97+L81+F134+L98+R20+G103+S66+S67+S7+G108+R38+V124+M99+S36; hbond:S87+D39+G108+G103+G128+G130+L131+N129+N19+H104+R68+V124+R93+P91+F83+S67+S7+S66+G112+G133+V132+Y89+S77+A135+Y63+A92+A101+M99+F134+L100+I82+Y64+S36+L98+V84+L81+Y94+S80+R38+S37+V102+G8+I123+G111+I113+L114+C65+L22+S96; hydroph_interaction:V84+Y90+T126+L22+E106+N129+N19+L40+I123+A135+Q95+I82+L100+L98+L131+F83+R93+V132+Y63+F134+H104+R20+A86+V74+P91+A101+F76+M99+L114+A92+Y94+R68+Y72+Y64+V18+V102+W28+G127+G128+L81; pication:H104+R93+Y63+F134+Y90+R68+F83+R20; pistack:H21+Y89+Y90+H104+F134+Y63+F83+Y94; saltbridge:D39+R93+H104+E106+D109+E85+E88+R68+R20; 

>  <intxn_cluster>  (58) 
-1

>  <intxn_cluster_rank>  (58) 
-1

>  <N_interactions>  (58) 
6

>  <∆∆G>  (58) 
-7.411645

>  <$/mg>  (58) 
0.0

>  <comRMSD>  (58) 
0.535208

>  <N_rotatable_bonds>  (58) 
4

>  <deep_P1_sidechain>  (58) 
nan

>  <farthest_distance_to_substrate>  (58) 
2.151686

>  <hbond:SER:7>  (58) 
hbond:SER:7    NaN
hbond:SER:7     -1
Name: 57, dtype: object

>  <halogenbond:SER:7>  (58) 
halogenbond:SER:7    NaN
halogenbond:SER:7     -1
Name: 57, dtype: object

>  <hbond:GLY:8>  (58) 
hbond:GLY:8    NaN
hbond:GLY:8     -1
Name: 57, dtype: object

>  <hydroph_interaction:VAL:18>  (58) 
hydroph_interaction:VAL:18    NaN
hydroph_interaction:VAL:18     -1
Name: 57, dtype: object

>  <hbond:ASN:19>  (58) 
hbond:ASN:19    NaN
hbond:ASN:19     -1
Name: 57, dtype: object

>  <hydroph_interaction:ASN:19>  (58) 
hydroph_interaction:ASN:19    NaN
hydroph_interaction:ASN:19     -1
Name: 57, dtype: object

>  <halogenbond:ASN:19>  (58) 
halogenbond:ASN:19    NaN
halogenbond:ASN:19     -1
Name: 57, dtype: object

>  <hbond:ARG:20>  (58) 
hbond:ARG:20    0.0
hbond:ARG:20      0
Name: 57, dtype: object

>  <hydroph_interaction:ARG:20>  (58) 
hydroph_interaction:ARG:20    NaN
hydroph_interaction:ARG:20     -1
Name: 57, dtype: object

>  <saltbridge:ARG:20>  (58) 
saltbridge:ARG:20    NaN
saltbridge:ARG:20     -1
Name: 57, dtype: object

>  <halogenbond:ARG:20>  (58) 
halogenbond:ARG:20    NaN
halogenbond:ARG:20     -1
Name: 57, dtype: object

>  <pication:ARG:20>  (58) 
pication:ARG:20    NaN
pication:ARG:20     -1
Name: 57, dtype: object

>  <hbond:HIS:21>  (58) 
hbond:HIS:21    0.0
hbond:HIS:21      0
Name: 57, dtype: object

>  <hydroph_interaction:HIS:21>  (58) 
hydroph_interaction:HIS:21    0.0
hydroph_interaction:HIS:21      0
Name: 57, dtype: object

>  <pistack:HIS:21>  (58) 
pistack:HIS:21    NaN
pistack:HIS:21     -1
Name: 57, dtype: object

>  <pication:HIS:21>  (58) 
pication:HIS:21    0.0
pication:HIS:21      0
Name: 57, dtype: object

>  <saltbridge:HIS:21>  (58) 
saltbridge:HIS:21    0.0
saltbridge:HIS:21      0
Name: 57, dtype: object

>  <halogenbond:HIS:21>  (58) 
halogenbond:HIS:21    NaN
halogenbond:HIS:21     -1
Name: 57, dtype: object

>  <hydroph_interaction:LEU:22>  (58) 
hydroph_interaction:LEU:22    NaN
hydroph_interaction:LEU:22     -1
Name: 57, dtype: object

>  <hbond:LEU:22>  (58) 
hbond:LEU:22    NaN
hbond:LEU:22     -1
Name: 57, dtype: object

>  <hydroph_interaction:TRP:28>  (58) 
hydroph_interaction:TRP:28    NaN
hydroph_interaction:TRP:28     -1
Name: 57, dtype: object

>  <hbond:SER:36>  (58) 
hbond:SER:36    NaN
hbond:SER:36     -1
Name: 57, dtype: object

>  <halogenbond:SER:36>  (58) 
halogenbond:SER:36    NaN
halogenbond:SER:36     -1
Name: 57, dtype: object

>  <hbond:SER:37>  (58) 
hbond:SER:37    NaN
hbond:SER:37     -1
Name: 57, dtype: object

>  <hbond:ARG:38>  (58) 
hbond:ARG:38    NaN
hbond:ARG:38     -1
Name: 57, dtype: object

>  <halogenbond:ARG:38>  (58) 
halogenbond:ARG:38    NaN
halogenbond:ARG:38     -1
Name: 57, dtype: object

>  <saltbridge:ASP:39>  (58) 
saltbridge:ASP:39    NaN
saltbridge:ASP:39     -1
Name: 57, dtype: object

>  <halogenbond:ASP:39>  (58) 
halogenbond:ASP:39    NaN
halogenbond:ASP:39     -1
Name: 57, dtype: object

>  <hbond:ASP:39>  (58) 
hbond:ASP:39    NaN
hbond:ASP:39     -1
Name: 57, dtype: object

>  <hydroph_interaction:ASP:39>  (58) 
hydroph_interaction:ASP:39    0.0
hydroph_interaction:ASP:39      0
Name: 57, dtype: object

>  <hydroph_interaction:LEU:40>  (58) 
hydroph_interaction:LEU:40    NaN
hydroph_interaction:LEU:40     -1
Name: 57, dtype: object

>  <hydroph_interaction:TYR:63>  (58) 
hydroph_interaction:TYR:63    NaN
hydroph_interaction:TYR:63     -1
Name: 57, dtype: object

>  <hbond:TYR:63>  (58) 
hbond:TYR:63    NaN
hbond:TYR:63     -1
Name: 57, dtype: object

>  <pistack:TYR:63>  (58) 
pistack:TYR:63    NaN
pistack:TYR:63     -1
Name: 57, dtype: object

>  <pication:TYR:63>  (58) 
pication:TYR:63    NaN
pication:TYR:63     -1
Name: 57, dtype: object

>  <halogenbond:TYR:64>  (58) 
halogenbond:TYR:64    NaN
halogenbond:TYR:64     -1
Name: 57, dtype: object

>  <hbond:TYR:64>  (58) 
hbond:TYR:64    NaN
hbond:TYR:64     -1
Name: 57, dtype: object

>  <hydroph_interaction:TYR:64>  (58) 
hydroph_interaction:TYR:64    NaN
hydroph_interaction:TYR:64     -1
Name: 57, dtype: object

>  <halogenbond:CYS:65>  (58) 
halogenbond:CYS:65    NaN
halogenbond:CYS:65     -1
Name: 57, dtype: object

>  <hbond:CYS:65>  (58) 
hbond:CYS:65    NaN
hbond:CYS:65     -1
Name: 57, dtype: object

>  <hbond:SER:66>  (58) 
hbond:SER:66    NaN
hbond:SER:66     -1
Name: 57, dtype: object

>  <halogenbond:SER:66>  (58) 
halogenbond:SER:66    NaN
halogenbond:SER:66     -1
Name: 57, dtype: object

>  <hbond:SER:67>  (58) 
hbond:SER:67    NaN
hbond:SER:67     -1
Name: 57, dtype: object

>  <halogenbond:SER:67>  (58) 
halogenbond:SER:67    NaN
halogenbond:SER:67     -1
Name: 57, dtype: object

>  <hbond:ARG:68>  (58) 
hbond:ARG:68    NaN
hbond:ARG:68     -1
Name: 57, dtype: object

>  <saltbridge:ARG:68>  (58) 
saltbridge:ARG:68    NaN
saltbridge:ARG:68     -1
Name: 57, dtype: object

>  <hydroph_interaction:ARG:68>  (58) 
hydroph_interaction:ARG:68    NaN
hydroph_interaction:ARG:68     -1
Name: 57, dtype: object

>  <pication:ARG:68>  (58) 
pication:ARG:68    NaN
pication:ARG:68     -1
Name: 57, dtype: object

>  <hydroph_interaction:TYR:72>  (58) 
hydroph_interaction:TYR:72    NaN
hydroph_interaction:TYR:72     -1
Name: 57, dtype: object

>  <hydroph_interaction:VAL:74>  (58) 
hydroph_interaction:VAL:74    NaN
hydroph_interaction:VAL:74     -1
Name: 57, dtype: object

>  <hydroph_interaction:PHE:76>  (58) 
hydroph_interaction:PHE:76    NaN
hydroph_interaction:PHE:76     -1
Name: 57, dtype: object

>  <hbond:SER:77>  (58) 
hbond:SER:77    NaN
hbond:SER:77     -1
Name: 57, dtype: object

>  <hbond:SER:80>  (58) 
hbond:SER:80    NaN
hbond:SER:80     -1
Name: 57, dtype: object

>  <hbond:LEU:81>  (58) 
hbond:LEU:81    NaN
hbond:LEU:81     -1
Name: 57, dtype: object

>  <halogenbond:LEU:81>  (58) 
halogenbond:LEU:81    NaN
halogenbond:LEU:81     -1
Name: 57, dtype: object

>  <hydroph_interaction:LEU:81>  (58) 
hydroph_interaction:LEU:81    NaN
hydroph_interaction:LEU:81     -1
Name: 57, dtype: object

>  <hydroph_interaction:ILE:82>  (58) 
hydroph_interaction:ILE:82    NaN
hydroph_interaction:ILE:82     -1
Name: 57, dtype: object

>  <halogenbond:ILE:82>  (58) 
halogenbond:ILE:82    NaN
halogenbond:ILE:82     -1
Name: 57, dtype: object

>  <hbond:ILE:82>  (58) 
hbond:ILE:82    NaN
hbond:ILE:82     -1
Name: 57, dtype: object

>  <hbond:PHE:83>  (58) 
hbond:PHE:83    NaN
hbond:PHE:83     -1
Name: 57, dtype: object

>  <hydroph_interaction:PHE:83>  (58) 
hydroph_interaction:PHE:83    NaN
hydroph_interaction:PHE:83     -1
Name: 57, dtype: object

>  <halogenbond:PHE:83>  (58) 
halogenbond:PHE:83    NaN
halogenbond:PHE:83     -1
Name: 57, dtype: object

>  <pistack:PHE:83>  (58) 
pistack:PHE:83    NaN
pistack:PHE:83     -1
Name: 57, dtype: object

>  <pication:PHE:83>  (58) 
pication:PHE:83    NaN
pication:PHE:83     -1
Name: 57, dtype: object

>  <hydroph_interaction:VAL:84>  (58) 
hydroph_interaction:VAL:84    1.0
hydroph_interaction:VAL:84      1
Name: 57, dtype: object

>  <halogenbond:VAL:84>  (58) 
halogenbond:VAL:84    NaN
halogenbond:VAL:84     -1
Name: 57, dtype: object

>  <hbond:VAL:84>  (58) 
hbond:VAL:84    NaN
hbond:VAL:84     -1
Name: 57, dtype: object

>  <hydroph_interaction:GLU:85>  (58) 
hydroph_interaction:GLU:85    0.0
hydroph_interaction:GLU:85      0
Name: 57, dtype: object

>  <hbond:GLU:85>  (58) 
hbond:GLU:85    0.0
hbond:GLU:85      0
Name: 57, dtype: object

>  <halogenbond:GLU:85>  (58) 
halogenbond:GLU:85    NaN
halogenbond:GLU:85     -1
Name: 57, dtype: object

>  <saltbridge:GLU:85>  (58) 
saltbridge:GLU:85    NaN
saltbridge:GLU:85     -1
Name: 57, dtype: object

>  <halogenbond:ALA:86>  (58) 
halogenbond:ALA:86    NaN
halogenbond:ALA:86     -1
Name: 57, dtype: object

>  <hbond:ALA:86>  (58) 
hbond:ALA:86    0.0
hbond:ALA:86      0
Name: 57, dtype: object

>  <hydroph_interaction:ALA:86>  (58) 
hydroph_interaction:ALA:86    NaN
hydroph_interaction:ALA:86     -1
Name: 57, dtype: object

>  <hbond:SER:87>  (58) 
hbond:SER:87    2
hbond:SER:87    2
Name: 57, dtype: object

>  <halogenbond:SER:87>  (58) 
halogenbond:SER:87    NaN
halogenbond:SER:87     -1
Name: 57, dtype: object

>  <hbond:GLU:88>  (58) 
hbond:GLU:88    0.0
hbond:GLU:88      0
Name: 57, dtype: object

>  <hydroph_interaction:GLU:88>  (58) 
hydroph_interaction:GLU:88    0.0
hydroph_interaction:GLU:88      0
Name: 57, dtype: object

>  <halogenbond:GLU:88>  (58) 
halogenbond:GLU:88    NaN
halogenbond:GLU:88     -1
Name: 57, dtype: object

>  <saltbridge:GLU:88>  (58) 
saltbridge:GLU:88    NaN
saltbridge:GLU:88     -1
Name: 57, dtype: object

>  <hydroph_interaction:TYR:89>  (58) 
hydroph_interaction:TYR:89    0.0
hydroph_interaction:TYR:89      0
Name: 57, dtype: object

>  <pistack:TYR:89>  (58) 
pistack:TYR:89    NaN
pistack:TYR:89     -1
Name: 57, dtype: object

>  <hbond:TYR:89>  (58) 
hbond:TYR:89    NaN
hbond:TYR:89     -1
Name: 57, dtype: object

>  <halogenbond:TYR:89>  (58) 
halogenbond:TYR:89    NaN
halogenbond:TYR:89     -1
Name: 57, dtype: object

>  <hydroph_interaction:TYR:90>  (58) 
hydroph_interaction:TYR:90    2.0
hydroph_interaction:TYR:90      2
Name: 57, dtype: object

>  <hbond:TYR:90>  (58) 
hbond:TYR:90    0.0
hbond:TYR:90      0
Name: 57, dtype: object

>  <pistack:TYR:90>  (58) 
pistack:TYR:90    NaN
pistack:TYR:90     -1
Name: 57, dtype: object

>  <halogenbond:TYR:90>  (58) 
halogenbond:TYR:90    NaN
halogenbond:TYR:90     -1
Name: 57, dtype: object

>  <pication:TYR:90>  (58) 
pication:TYR:90    NaN
pication:TYR:90     -1
Name: 57, dtype: object

>  <hbond:PRO:91>  (58) 
hbond:PRO:91    NaN
hbond:PRO:91     -1
Name: 57, dtype: object

>  <hydroph_interaction:PRO:91>  (58) 
hydroph_interaction:PRO:91    NaN
hydroph_interaction:PRO:91     -1
Name: 57, dtype: object

>  <halogenbond:PRO:91>  (58) 
halogenbond:PRO:91    NaN
halogenbond:PRO:91     -1
Name: 57, dtype: object

>  <hbond:ALA:92>  (58) 
hbond:ALA:92    NaN
hbond:ALA:92     -1
Name: 57, dtype: object

>  <hydroph_interaction:ALA:92>  (58) 
hydroph_interaction:ALA:92    NaN
hydroph_interaction:ALA:92     -1
Name: 57, dtype: object

>  <saltbridge:ARG:93>  (58) 
saltbridge:ARG:93    NaN
saltbridge:ARG:93     -1
Name: 57, dtype: object

>  <hbond:ARG:93>  (58) 
hbond:ARG:93    NaN
hbond:ARG:93     -1
Name: 57, dtype: object

>  <hydroph_interaction:ARG:93>  (58) 
hydroph_interaction:ARG:93    NaN
hydroph_interaction:ARG:93     -1
Name: 57, dtype: object

>  <halogenbond:ARG:93>  (58) 
halogenbond:ARG:93    NaN
halogenbond:ARG:93     -1
Name: 57, dtype: object

>  <pication:ARG:93>  (58) 
pication:ARG:93    NaN
pication:ARG:93     -1
Name: 57, dtype: object

>  <hydroph_interaction:TYR:94>  (58) 
hydroph_interaction:TYR:94    NaN
hydroph_interaction:TYR:94     -1
Name: 57, dtype: object

>  <pistack:TYR:94>  (58) 
pistack:TYR:94    NaN
pistack:TYR:94     -1
Name: 57, dtype: object

>  <hbond:TYR:94>  (58) 
hbond:TYR:94    NaN
hbond:TYR:94     -1
Name: 57, dtype: object

>  <hbond:GLN:95>  (58) 
hbond:GLN:95    0.0
hbond:GLN:95      0
Name: 57, dtype: object

>  <hydroph_interaction:GLN:95>  (58) 
hydroph_interaction:GLN:95    NaN
hydroph_interaction:GLN:95     -1
Name: 57, dtype: object

>  <halogenbond:GLN:95>  (58) 
halogenbond:GLN:95    NaN
halogenbond:GLN:95     -1
Name: 57, dtype: object

>  <hbond:SER:96>  (58) 
hbond:SER:96    NaN
hbond:SER:96     -1
Name: 57, dtype: object

>  <halogenbond:HIS:97>  (58) 
halogenbond:HIS:97    NaN
halogenbond:HIS:97     -1
Name: 57, dtype: object

>  <hydroph_interaction:LEU:98>  (58) 
hydroph_interaction:LEU:98    NaN
hydroph_interaction:LEU:98     -1
Name: 57, dtype: object

>  <hbond:LEU:98>  (58) 
hbond:LEU:98    NaN
hbond:LEU:98     -1
Name: 57, dtype: object

>  <halogenbond:LEU:98>  (58) 
halogenbond:LEU:98    NaN
halogenbond:LEU:98     -1
Name: 57, dtype: object

>  <hbond:MET:99>  (58) 
hbond:MET:99    NaN
hbond:MET:99     -1
Name: 57, dtype: object

>  <hydroph_interaction:MET:99>  (58) 
hydroph_interaction:MET:99    NaN
hydroph_interaction:MET:99     -1
Name: 57, dtype: object

>  <halogenbond:MET:99>  (58) 
halogenbond:MET:99    NaN
halogenbond:MET:99     -1
Name: 57, dtype: object

>  <hydroph_interaction:LEU:100>  (58) 
hydroph_interaction:LEU:100    NaN
hydroph_interaction:LEU:100     -1
Name: 57, dtype: object

>  <hbond:LEU:100>  (58) 
hbond:LEU:100    NaN
hbond:LEU:100     -1
Name: 57, dtype: object

>  <hbond:ALA:101>  (58) 
hbond:ALA:101    NaN
hbond:ALA:101     -1
Name: 57, dtype: object

>  <hydroph_interaction:ALA:101>  (58) 
hydroph_interaction:ALA:101    NaN
hydroph_interaction:ALA:101     -1
Name: 57, dtype: object

>  <hydroph_interaction:VAL:102>  (58) 
hydroph_interaction:VAL:102    NaN
hydroph_interaction:VAL:102     -1
Name: 57, dtype: object

>  <hbond:VAL:102>  (58) 
hbond:VAL:102    NaN
hbond:VAL:102     -1
Name: 57, dtype: object

>  <hbond:GLY:103>  (58) 
hbond:GLY:103    NaN
hbond:GLY:103     -1
Name: 57, dtype: object

>  <halogenbond:GLY:103>  (58) 
halogenbond:GLY:103    NaN
halogenbond:GLY:103     -1
Name: 57, dtype: object

>  <hbond:HIS:104>  (58) 
hbond:HIS:104    NaN
hbond:HIS:104     -1
Name: 57, dtype: object

>  <saltbridge:HIS:104>  (58) 
saltbridge:HIS:104    NaN
saltbridge:HIS:104     -1
Name: 57, dtype: object

>  <pication:HIS:104>  (58) 
pication:HIS:104    NaN
pication:HIS:104     -1
Name: 57, dtype: object

>  <halogenbond:HIS:104>  (58) 
halogenbond:HIS:104    NaN
halogenbond:HIS:104     -1
Name: 57, dtype: object

>  <hydroph_interaction:HIS:104>  (58) 
hydroph_interaction:HIS:104    NaN
hydroph_interaction:HIS:104     -1
Name: 57, dtype: object

>  <pistack:HIS:104>  (58) 
pistack:HIS:104    NaN
pistack:HIS:104     -1
Name: 57, dtype: object

>  <halogenbond:SER:105>  (58) 
halogenbond:SER:105    0.0
halogenbond:SER:105      0
Name: 57, dtype: object

>  <hbond:SER:105>  (58) 
hbond:SER:105    0.0
hbond:SER:105      0
Name: 57, dtype: object

>  <hbond:GLU:106>  (58) 
hbond:GLU:106    0.0
hbond:GLU:106      0
Name: 57, dtype: object

>  <hydroph_interaction:GLU:106>  (58) 
hydroph_interaction:GLU:106    NaN
hydroph_interaction:GLU:106     -1
Name: 57, dtype: object

>  <saltbridge:GLU:106>  (58) 
saltbridge:GLU:106    NaN
saltbridge:GLU:106     -1
Name: 57, dtype: object

>  <halogenbond:GLU:106>  (58) 
halogenbond:GLU:106    NaN
halogenbond:GLU:106     -1
Name: 57, dtype: object

>  <hydroph_interaction:PRO:107>  (58) 
hydroph_interaction:PRO:107    0
hydroph_interaction:PRO:107    0
Name: 57, dtype: object

>  <hbond:PRO:107>  (58) 
hbond:PRO:107    0.0
hbond:PRO:107      0
Name: 57, dtype: object

>  <halogenbond:PRO:107>  (58) 
halogenbond:PRO:107    NaN
halogenbond:PRO:107     -1
Name: 57, dtype: object

>  <hbond:GLY:108>  (58) 
hbond:GLY:108    NaN
hbond:GLY:108     -1
Name: 57, dtype: object

>  <halogenbond:GLY:108>  (58) 
halogenbond:GLY:108    NaN
halogenbond:GLY:108     -1
Name: 57, dtype: object

>  <hbond:ASP:109>  (58) 
hbond:ASP:109    0.0
hbond:ASP:109      0
Name: 57, dtype: object

>  <hydroph_interaction:ASP:109>  (58) 
hydroph_interaction:ASP:109    0.0
hydroph_interaction:ASP:109      0
Name: 57, dtype: object

>  <saltbridge:ASP:109>  (58) 
saltbridge:ASP:109    NaN
saltbridge:ASP:109     -1
Name: 57, dtype: object

>  <halogenbond:CYS:110>  (58) 
halogenbond:CYS:110    0.0
halogenbond:CYS:110      0
Name: 57, dtype: object

>  <hbond:CYS:110>  (58) 
hbond:CYS:110    0.0
hbond:CYS:110      0
Name: 57, dtype: object

>  <hbond:GLY:111>  (58) 
hbond:GLY:111    NaN
hbond:GLY:111     -1
Name: 57, dtype: object

>  <hbond:GLY:112>  (58) 
hbond:GLY:112    NaN
hbond:GLY:112     -1
Name: 57, dtype: object

>  <hbond:ILE:113>  (58) 
hbond:ILE:113    NaN
hbond:ILE:113     -1
Name: 57, dtype: object

>  <hydroph_interaction:LEU:114>  (58) 
hydroph_interaction:LEU:114    NaN
hydroph_interaction:LEU:114     -1
Name: 57, dtype: object

>  <hbond:LEU:114>  (58) 
hbond:LEU:114    NaN
hbond:LEU:114     -1
Name: 57, dtype: object

>  <hydroph_interaction:ILE:123>  (58) 
hydroph_interaction:ILE:123    NaN
hydroph_interaction:ILE:123     -1
Name: 57, dtype: object

>  <hbond:ILE:123>  (58) 
hbond:ILE:123    NaN
hbond:ILE:123     -1
Name: 57, dtype: object

>  <hydroph_interaction:VAL:124>  (58) 
hydroph_interaction:VAL:124    0.0
hydroph_interaction:VAL:124      0
Name: 57, dtype: object

>  <hbond:VAL:124>  (58) 
hbond:VAL:124    NaN
hbond:VAL:124     -1
Name: 57, dtype: object

>  <halogenbond:VAL:124>  (58) 
halogenbond:VAL:124    NaN
halogenbond:VAL:124     -1
Name: 57, dtype: object

>  <hbond:SER:125>  (58) 
hbond:SER:125    0
hbond:SER:125    0
Name: 57, dtype: object

>  <halogenbond:SER:125>  (58) 
halogenbond:SER:125    0.0
halogenbond:SER:125      0
Name: 57, dtype: object

>  <hydroph_interaction:THR:126>  (58) 
hydroph_interaction:THR:126    1.0
hydroph_interaction:THR:126      1
Name: 57, dtype: object

>  <hbond:THR:126>  (58) 
hbond:THR:126    0.0
hbond:THR:126      0
Name: 57, dtype: object

>  <halogenbond:THR:126>  (58) 
halogenbond:THR:126    NaN
halogenbond:THR:126     -1
Name: 57, dtype: object

>  <hbond:GLY:127>  (58) 
hbond:GLY:127    0
hbond:GLY:127    0
Name: 57, dtype: object

>  <halogenbond:GLY:127>  (58) 
halogenbond:GLY:127    NaN
halogenbond:GLY:127     -1
Name: 57, dtype: object

>  <hydroph_interaction:GLY:127>  (58) 
hydroph_interaction:GLY:127    NaN
hydroph_interaction:GLY:127     -1
Name: 57, dtype: object

>  <hbond:GLY:128>  (58) 
hbond:GLY:128    NaN
hbond:GLY:128     -1
Name: 57, dtype: object

>  <halogenbond:GLY:128>  (58) 
halogenbond:GLY:128    NaN
halogenbond:GLY:128     -1
Name: 57, dtype: object

>  <hydroph_interaction:GLY:128>  (58) 
hydroph_interaction:GLY:128    NaN
hydroph_interaction:GLY:128     -1
Name: 57, dtype: object

>  <hbond:ASN:129>  (58) 
hbond:ASN:129    NaN
hbond:ASN:129     -1
Name: 57, dtype: object

>  <hydroph_interaction:ASN:129>  (58) 
hydroph_interaction:ASN:129    NaN
hydroph_interaction:ASN:129     -1
Name: 57, dtype: object

>  <halogenbond:ASN:129>  (58) 
halogenbond:ASN:129    NaN
halogenbond:ASN:129     -1
Name: 57, dtype: object

>  <hbond:GLY:130>  (58) 
hbond:GLY:130    NaN
hbond:GLY:130     -1
Name: 57, dtype: object

>  <hbond:LEU:131>  (58) 
hbond:LEU:131    NaN
hbond:LEU:131     -1
Name: 57, dtype: object

>  <hydroph_interaction:LEU:131>  (58) 
hydroph_interaction:LEU:131    NaN
hydroph_interaction:LEU:131     -1
Name: 57, dtype: object

>  <halogenbond:LEU:131>  (58) 
halogenbond:LEU:131    NaN
halogenbond:LEU:131     -1
Name: 57, dtype: object

>  <hydroph_interaction:VAL:132>  (58) 
hydroph_interaction:VAL:132    NaN
hydroph_interaction:VAL:132     -1
Name: 57, dtype: object

>  <hbond:VAL:132>  (58) 
hbond:VAL:132    NaN
hbond:VAL:132     -1
Name: 57, dtype: object

>  <hbond:GLY:133>  (58) 
hbond:GLY:133    NaN
hbond:GLY:133     -1
Name: 57, dtype: object

>  <halogenbond:GLY:133>  (58) 
halogenbond:GLY:133    NaN
halogenbond:GLY:133     -1
Name: 57, dtype: object

>  <hydroph_interaction:PHE:134>  (58) 
hydroph_interaction:PHE:134    NaN
hydroph_interaction:PHE:134     -1
Name: 57, dtype: object

>  <hbond:PHE:134>  (58) 
hbond:PHE:134    NaN
hbond:PHE:134     -1
Name: 57, dtype: object

>  <pistack:PHE:134>  (58) 
pistack:PHE:134    NaN
pistack:PHE:134     -1
Name: 57, dtype: object

>  <pication:PHE:134>  (58) 
pication:PHE:134    NaN
pication:PHE:134     -1
Name: 57, dtype: object

>  <halogenbond:PHE:134>  (58) 
halogenbond:PHE:134    NaN
halogenbond:PHE:134     -1
Name: 57, dtype: object

>  <hydroph_interaction:ALA:135>  (58) 
hydroph_interaction:ALA:135    NaN
hydroph_interaction:ALA:135     -1
Name: 57, dtype: object

>  <hbond:ALA:135>  (58) 
hbond:ALA:135    NaN
hbond:ALA:135     -1
Name: 57, dtype: object

$$$$
PV_005244075533
     RDKit          3D

 21 20  0  0  0  0  0  0  0  0999 V2000
   -1.5530   12.4020   19.3460 C   0  0  0  0  0  0  0  0  0  0  0  0
   -0.4790   12.2680   18.4220 O   0  0  0  0  0  0  0  0  0  0  0  0
    0.7140   12.4470   19.1270 N   0  0  0  0  0  0  0  0  0  0  0  0
    1.7740   11.6660   18.4430 C   0  0  0  0  0  0  0  0  0  0  0  0
    3.2000   11.6340   18.9270 C   0  0  0  0  0  0  0  0  0  0  0  0
    3.6380   10.2740   19.4690 C   0  0  0  0  0  0  0  0  0  0  0  0
    4.0360   12.0350   17.7260 C   0  0  0  0  0  0  0  0  0  0  0  0
    3.3650   12.6880   20.0370 C   0  0  0  0  0  0  0  0  0  0  0  0
   -1.2700   11.9300   20.2960 H   0  0  0  0  0  0  0  0  0  0  0  0
   -2.4560   11.9090   18.9710 H   0  0  0  0  0  0  0  0  0  0  0  0
   -1.7810   13.4550   19.5320 H   0  0  0  0  0  0  0  0  0  0  0  0
    1.5310   11.0840   17.5450 H   0  0  0  0  0  0  0  0  0  0  0  0
    3.3000    9.4610   18.8260 H   0  0  0  0  0  0  0  0  0  0  0  0
    4.7250   10.2080   19.5270 H   0  0  0  0  0  0  0  0  0  0  0  0
    3.2470   10.0900   20.4750 H   0  0  0  0  0  0  0  0  0  0  0  0
    3.4230   12.4840   16.9380 H   0  0  0  0  0  0  0  0  0  0  0  0
    4.5320   11.1780   17.2890 H   0  0  0  0  0  0  0  0  0  0  0  0
    4.8060   12.7530   18.0030 H   0  0  0  0  0  0  0  0  0  0  0  0
    3.0330   13.6770   19.7050 H   0  0  0  0  0  0  0  0  0  0  0  0
    4.4110   12.7630   20.3510 H   0  0  0  0  0  0  0  0  0  0  0  0
    2.7800   12.4130   20.9250 H   0  0  0  0  0  0  0  0  0  0  0  0
  1  2  1  0
  2  3  1  0
  3  4  2  3
  4  5  1  0
  5  6  1  0
  5  7  1  0
  5  8  1  0
  1  9  1  0
  1 10  1  0
  1 11  1  0
  4 12  1  0
  6 13  1  0
  6 14  1  0
  6 15  1  0
  7 16  1  0
  7 17  1  0
  7 18  1  0
  8 19  1  0
  8 20  1  0
  8 21  1  0
A    1
 C1 
A    2
 O1 
A    3
 N1 
A    4
 C2 
A    5
 C3 
A    6
 C4 
A    7
 C5 
A    8
 C6 
A    9
 H1 
A   10
 H2 
A   11
 H3 
A   12
 H4 
A   13
 H5 
A   14
 H6 
A   15
 H7 
A   16
 H8 
A   17
 H9 
A   18
 H10
A   19
 H11
A   20
 H12
A   21
 H13
M  END
>  <ref_pdb>  (59) 
x0310_0A

>  <ref_mols>  (59) 
x0526_0A,x0365_0A

>  <original SMILES>  (59) 
CON=CC(C)(C)C

>  <rationale>  (59) 
info halogenbond:C110+G127+D39+A86+S125+E85+Q95+E106+E88+P107+H104+Y64+C65+S87+R93+I82+P91+N19+H21+V84+G133+Y90+Y89+H97+L81+F134+L98+R20+G103+S66+S67+S7+G108+R38+V124+M99+S36; hbond:Y90+D39+D109+G108+G103+N19+H104+R68+V124+R93+P91+S67+S7+S66+G112+R20+Y89+S77+A135+Y63+A92+A101+M99+F134+L100+Y64+S36+L98+V84+L81+Y94+S80+R38+S37+V102+G8+I123+G111+I113+L114+C65+L22+S96; hydroph_interaction:V84+H21+L22+E106+D109+D39+N19+L40+I123+A135+L100+L98+L131+R93+Y63+F134+H104+R20+A86+V74+P91+A101+F76+M99+L114+A92+Y94+R68+Y72+Y64+V18+V102+W28+G127+G128+L81; pication:H21+H104+R93+Y63+F134+Y90+R68+F83+R20; pistack:H21+Y89+Y90+H104+F134+Y63+F83+Y94; saltbridge:D39+R93+H104+E106+D109+E88+R68+R20; 

>  <intxn_cluster>  (59) 
-1

>  <intxn_cluster_rank>  (59) 
-1

>  <N_interactions>  (59) 
5

>  <∆∆G>  (59) 
-7.740916

>  <$/mg>  (59) 
244.5

>  <comRMSD>  (59) 
0.895812

>  <N_rotatable_bonds>  (59) 
2

>  <deep_P1_sidechain>  (59) 
nan

>  <farthest_distance_to_substrate>  (59) 
3.406275

>  <hbond:SER:7>  (59) 
hbond:SER:7    NaN
hbond:SER:7     -1
Name: 58, dtype: object

>  <halogenbond:SER:7>  (59) 
halogenbond:SER:7    NaN
halogenbond:SER:7     -1
Name: 58, dtype: object

>  <hbond:GLY:8>  (59) 
hbond:GLY:8    NaN
hbond:GLY:8     -1
Name: 58, dtype: object

>  <hydroph_interaction:VAL:18>  (59) 
hydroph_interaction:VAL:18    NaN
hydroph_interaction:VAL:18     -1
Name: 58, dtype: object

>  <hbond:ASN:19>  (59) 
hbond:ASN:19    NaN
hbond:ASN:19     -1
Name: 58, dtype: object

>  <hydroph_interaction:ASN:19>  (59) 
hydroph_interaction:ASN:19    NaN
hydroph_interaction:ASN:19     -1
Name: 58, dtype: object

>  <halogenbond:ASN:19>  (59) 
halogenbond:ASN:19    NaN
halogenbond:ASN:19     -1
Name: 58, dtype: object

>  <hbond:ARG:20>  (59) 
hbond:ARG:20    NaN
hbond:ARG:20     -1
Name: 58, dtype: object

>  <hydroph_interaction:ARG:20>  (59) 
hydroph_interaction:ARG:20    NaN
hydroph_interaction:ARG:20     -1
Name: 58, dtype: object

>  <saltbridge:ARG:20>  (59) 
saltbridge:ARG:20    NaN
saltbridge:ARG:20     -1
Name: 58, dtype: object

>  <halogenbond:ARG:20>  (59) 
halogenbond:ARG:20    NaN
halogenbond:ARG:20     -1
Name: 58, dtype: object

>  <pication:ARG:20>  (59) 
pication:ARG:20    NaN
pication:ARG:20     -1
Name: 58, dtype: object

>  <hbond:HIS:21>  (59) 
hbond:HIS:21    0.0
hbond:HIS:21      0
Name: 58, dtype: object

>  <hydroph_interaction:HIS:21>  (59) 
hydroph_interaction:HIS:21    NaN
hydroph_interaction:HIS:21     -1
Name: 58, dtype: object

>  <pistack:HIS:21>  (59) 
pistack:HIS:21    NaN
pistack:HIS:21     -1
Name: 58, dtype: object

>  <pication:HIS:21>  (59) 
pication:HIS:21    NaN
pication:HIS:21     -1
Name: 58, dtype: object

>  <saltbridge:HIS:21>  (59) 
saltbridge:HIS:21    0.0
saltbridge:HIS:21      0
Name: 58, dtype: object

>  <halogenbond:HIS:21>  (59) 
halogenbond:HIS:21    NaN
halogenbond:HIS:21     -1
Name: 58, dtype: object

>  <hydroph_interaction:LEU:22>  (59) 
hydroph_interaction:LEU:22    NaN
hydroph_interaction:LEU:22     -1
Name: 58, dtype: object

>  <hbond:LEU:22>  (59) 
hbond:LEU:22    NaN
hbond:LEU:22     -1
Name: 58, dtype: object

>  <hydroph_interaction:TRP:28>  (59) 
hydroph_interaction:TRP:28    NaN
hydroph_interaction:TRP:28     -1
Name: 58, dtype: object

>  <hbond:SER:36>  (59) 
hbond:SER:36    NaN
hbond:SER:36     -1
Name: 58, dtype: object

>  <halogenbond:SER:36>  (59) 
halogenbond:SER:36    NaN
halogenbond:SER:36     -1
Name: 58, dtype: object

>  <hbond:SER:37>  (59) 
hbond:SER:37    NaN
hbond:SER:37     -1
Name: 58, dtype: object

>  <hbond:ARG:38>  (59) 
hbond:ARG:38    NaN
hbond:ARG:38     -1
Name: 58, dtype: object

>  <halogenbond:ARG:38>  (59) 
halogenbond:ARG:38    NaN
halogenbond:ARG:38     -1
Name: 58, dtype: object

>  <saltbridge:ASP:39>  (59) 
saltbridge:ASP:39    NaN
saltbridge:ASP:39     -1
Name: 58, dtype: object

>  <halogenbond:ASP:39>  (59) 
halogenbond:ASP:39    NaN
halogenbond:ASP:39     -1
Name: 58, dtype: object

>  <hbond:ASP:39>  (59) 
hbond:ASP:39    NaN
hbond:ASP:39     -1
Name: 58, dtype: object

>  <hydroph_interaction:ASP:39>  (59) 
hydroph_interaction:ASP:39    NaN
hydroph_interaction:ASP:39     -1
Name: 58, dtype: object

>  <hydroph_interaction:LEU:40>  (59) 
hydroph_interaction:LEU:40    NaN
hydroph_interaction:LEU:40     -1
Name: 58, dtype: object

>  <hydroph_interaction:TYR:63>  (59) 
hydroph_interaction:TYR:63    NaN
hydroph_interaction:TYR:63     -1
Name: 58, dtype: object

>  <hbond:TYR:63>  (59) 
hbond:TYR:63    NaN
hbond:TYR:63     -1
Name: 58, dtype: object

>  <pistack:TYR:63>  (59) 
pistack:TYR:63    NaN
pistack:TYR:63     -1
Name: 58, dtype: object

>  <pication:TYR:63>  (59) 
pication:TYR:63    NaN
pication:TYR:63     -1
Name: 58, dtype: object

>  <halogenbond:TYR:64>  (59) 
halogenbond:TYR:64    NaN
halogenbond:TYR:64     -1
Name: 58, dtype: object

>  <hbond:TYR:64>  (59) 
hbond:TYR:64    NaN
hbond:TYR:64     -1
Name: 58, dtype: object

>  <hydroph_interaction:TYR:64>  (59) 
hydroph_interaction:TYR:64    NaN
hydroph_interaction:TYR:64     -1
Name: 58, dtype: object

>  <halogenbond:CYS:65>  (59) 
halogenbond:CYS:65    NaN
halogenbond:CYS:65     -1
Name: 58, dtype: object

>  <hbond:CYS:65>  (59) 
hbond:CYS:65    NaN
hbond:CYS:65     -1
Name: 58, dtype: object

>  <hbond:SER:66>  (59) 
hbond:SER:66    NaN
hbond:SER:66     -1
Name: 58, dtype: object

>  <halogenbond:SER:66>  (59) 
halogenbond:SER:66    NaN
halogenbond:SER:66     -1
Name: 58, dtype: object

>  <hbond:SER:67>  (59) 
hbond:SER:67    NaN
hbond:SER:67     -1
Name: 58, dtype: object

>  <halogenbond:SER:67>  (59) 
halogenbond:SER:67    NaN
halogenbond:SER:67     -1
Name: 58, dtype: object

>  <hbond:ARG:68>  (59) 
hbond:ARG:68    NaN
hbond:ARG:68     -1
Name: 58, dtype: object

>  <saltbridge:ARG:68>  (59) 
saltbridge:ARG:68    NaN
saltbridge:ARG:68     -1
Name: 58, dtype: object

>  <hydroph_interaction:ARG:68>  (59) 
hydroph_interaction:ARG:68    NaN
hydroph_interaction:ARG:68     -1
Name: 58, dtype: object

>  <pication:ARG:68>  (59) 
pication:ARG:68    NaN
pication:ARG:68     -1
Name: 58, dtype: object

>  <hydroph_interaction:TYR:72>  (59) 
hydroph_interaction:TYR:72    NaN
hydroph_interaction:TYR:72     -1
Name: 58, dtype: object

>  <hydroph_interaction:VAL:74>  (59) 
hydroph_interaction:VAL:74    NaN
hydroph_interaction:VAL:74     -1
Name: 58, dtype: object

>  <hydroph_interaction:PHE:76>  (59) 
hydroph_interaction:PHE:76    NaN
hydroph_interaction:PHE:76     -1
Name: 58, dtype: object

>  <hbond:SER:77>  (59) 
hbond:SER:77    NaN
hbond:SER:77     -1
Name: 58, dtype: object

>  <hbond:SER:80>  (59) 
hbond:SER:80    NaN
hbond:SER:80     -1
Name: 58, dtype: object

>  <hbond:LEU:81>  (59) 
hbond:LEU:81    NaN
hbond:LEU:81     -1
Name: 58, dtype: object

>  <halogenbond:LEU:81>  (59) 
halogenbond:LEU:81    NaN
halogenbond:LEU:81     -1
Name: 58, dtype: object

>  <hydroph_interaction:LEU:81>  (59) 
hydroph_interaction:LEU:81    NaN
hydroph_interaction:LEU:81     -1
Name: 58, dtype: object

>  <hydroph_interaction:ILE:82>  (59) 
hydroph_interaction:ILE:82    0.0
hydroph_interaction:ILE:82      0
Name: 58, dtype: object

>  <halogenbond:ILE:82>  (59) 
halogenbond:ILE:82    NaN
halogenbond:ILE:82     -1
Name: 58, dtype: object

>  <hbond:ILE:82>  (59) 
hbond:ILE:82    0.0
hbond:ILE:82      0
Name: 58, dtype: object

>  <hbond:PHE:83>  (59) 
hbond:PHE:83    0.0
hbond:PHE:83      0
Name: 58, dtype: object

>  <hydroph_interaction:PHE:83>  (59) 
hydroph_interaction:PHE:83    0.0
hydroph_interaction:PHE:83      0
Name: 58, dtype: object

>  <halogenbond:PHE:83>  (59) 
halogenbond:PHE:83    0.0
halogenbond:PHE:83      0
Name: 58, dtype: object

>  <pistack:PHE:83>  (59) 
pistack:PHE:83    NaN
pistack:PHE:83     -1
Name: 58, dtype: object

>  <pication:PHE:83>  (59) 
pication:PHE:83    NaN
pication:PHE:83     -1
Name: 58, dtype: object

>  <hydroph_interaction:VAL:84>  (59) 
hydroph_interaction:VAL:84    2.0
hydroph_interaction:VAL:84      2
Name: 58, dtype: object

>  <halogenbond:VAL:84>  (59) 
halogenbond:VAL:84    NaN
halogenbond:VAL:84     -1
Name: 58, dtype: object

>  <hbond:VAL:84>  (59) 
hbond:VAL:84    NaN
hbond:VAL:84     -1
Name: 58, dtype: object

>  <hydroph_interaction:GLU:85>  (59) 
hydroph_interaction:GLU:85    0.0
hydroph_interaction:GLU:85      0
Name: 58, dtype: object

>  <hbond:GLU:85>  (59) 
hbond:GLU:85    0.0
hbond:GLU:85      0
Name: 58, dtype: object

>  <halogenbond:GLU:85>  (59) 
halogenbond:GLU:85    NaN
halogenbond:GLU:85     -1
Name: 58, dtype: object

>  <saltbridge:GLU:85>  (59) 
saltbridge:GLU:85    0.0
saltbridge:GLU:85      0
Name: 58, dtype: object

>  <halogenbond:ALA:86>  (59) 
halogenbond:ALA:86    NaN
halogenbond:ALA:86     -1
Name: 58, dtype: object

>  <hbond:ALA:86>  (59) 
hbond:ALA:86    0.0
hbond:ALA:86      0
Name: 58, dtype: object

>  <hydroph_interaction:ALA:86>  (59) 
hydroph_interaction:ALA:86    NaN
hydroph_interaction:ALA:86     -1
Name: 58, dtype: object

>  <hbond:SER:87>  (59) 
hbond:SER:87    0
hbond:SER:87    0
Name: 58, dtype: object

>  <halogenbond:SER:87>  (59) 
halogenbond:SER:87    NaN
halogenbond:SER:87     -1
Name: 58, dtype: object

>  <hbond:GLU:88>  (59) 
hbond:GLU:88    0.0
hbond:GLU:88      0
Name: 58, dtype: object

>  <hydroph_interaction:GLU:88>  (59) 
hydroph_interaction:GLU:88    0.0
hydroph_interaction:GLU:88      0
Name: 58, dtype: object

>  <halogenbond:GLU:88>  (59) 
halogenbond:GLU:88    NaN
halogenbond:GLU:88     -1
Name: 58, dtype: object

>  <saltbridge:GLU:88>  (59) 
saltbridge:GLU:88    NaN
saltbridge:GLU:88     -1
Name: 58, dtype: object

>  <hydroph_interaction:TYR:89>  (59) 
hydroph_interaction:TYR:89    0.0
hydroph_interaction:TYR:89      0
Name: 58, dtype: object

>  <pistack:TYR:89>  (59) 
pistack:TYR:89    NaN
pistack:TYR:89     -1
Name: 58, dtype: object

>  <hbond:TYR:89>  (59) 
hbond:TYR:89    NaN
hbond:TYR:89     -1
Name: 58, dtype: object

>  <halogenbond:TYR:89>  (59) 
halogenbond:TYR:89    NaN
halogenbond:TYR:89     -1
Name: 58, dtype: object

>  <hydroph_interaction:TYR:90>  (59) 
hydroph_interaction:TYR:90    0.0
hydroph_interaction:TYR:90      0
Name: 58, dtype: object

>  <hbond:TYR:90>  (59) 
hbond:TYR:90    NaN
hbond:TYR:90     -1
Name: 58, dtype: object

>  <pistack:TYR:90>  (59) 
pistack:TYR:90    NaN
pistack:TYR:90     -1
Name: 58, dtype: object

>  <halogenbond:TYR:90>  (59) 
halogenbond:TYR:90    NaN
halogenbond:TYR:90     -1
Name: 58, dtype: object

>  <pication:TYR:90>  (59) 
pication:TYR:90    NaN
pication:TYR:90     -1
Name: 58, dtype: object

>  <hbond:PRO:91>  (59) 
hbond:PRO:91    NaN
hbond:PRO:91     -1
Name: 58, dtype: object

>  <hydroph_interaction:PRO:91>  (59) 
hydroph_interaction:PRO:91    NaN
hydroph_interaction:PRO:91     -1
Name: 58, dtype: object

>  <halogenbond:PRO:91>  (59) 
halogenbond:PRO:91    NaN
halogenbond:PRO:91     -1
Name: 58, dtype: object

>  <hbond:ALA:92>  (59) 
hbond:ALA:92    NaN
hbond:ALA:92     -1
Name: 58, dtype: object

>  <hydroph_interaction:ALA:92>  (59) 
hydroph_interaction:ALA:92    NaN
hydroph_interaction:ALA:92     -1
Name: 58, dtype: object

>  <saltbridge:ARG:93>  (59) 
saltbridge:ARG:93    NaN
saltbridge:ARG:93     -1
Name: 58, dtype: object

>  <hbond:ARG:93>  (59) 
hbond:ARG:93    NaN
hbond:ARG:93     -1
Name: 58, dtype: object

>  <hydroph_interaction:ARG:93>  (59) 
hydroph_interaction:ARG:93    NaN
hydroph_interaction:ARG:93     -1
Name: 58, dtype: object

>  <halogenbond:ARG:93>  (59) 
halogenbond:ARG:93    NaN
halogenbond:ARG:93     -1
Name: 58, dtype: object

>  <pication:ARG:93>  (59) 
pication:ARG:93    NaN
pication:ARG:93     -1
Name: 58, dtype: object

>  <hydroph_interaction:TYR:94>  (59) 
hydroph_interaction:TYR:94    NaN
hydroph_interaction:TYR:94     -1
Name: 58, dtype: object

>  <pistack:TYR:94>  (59) 
pistack:TYR:94    NaN
pistack:TYR:94     -1
Name: 58, dtype: object

>  <hbond:TYR:94>  (59) 
hbond:TYR:94    NaN
hbond:TYR:94     -1
Name: 58, dtype: object

>  <hbond:GLN:95>  (59) 
hbond:GLN:95    0.0
hbond:GLN:95      0
Name: 58, dtype: object

>  <hydroph_interaction:GLN:95>  (59) 
hydroph_interaction:GLN:95    0.0
hydroph_interaction:GLN:95      0
Name: 58, dtype: object

>  <halogenbond:GLN:95>  (59) 
halogenbond:GLN:95    NaN
halogenbond:GLN:95     -1
Name: 58, dtype: object

>  <hbond:SER:96>  (59) 
hbond:SER:96    NaN
hbond:SER:96     -1
Name: 58, dtype: object

>  <halogenbond:HIS:97>  (59) 
halogenbond:HIS:97    NaN
halogenbond:HIS:97     -1
Name: 58, dtype: object

>  <hydroph_interaction:LEU:98>  (59) 
hydroph_interaction:LEU:98    1.0
hydroph_interaction:LEU:98      1
Name: 58, dtype: object

>  <hbond:LEU:98>  (59) 
hbond:LEU:98    NaN
hbond:LEU:98     -1
Name: 58, dtype: object

>  <halogenbond:LEU:98>  (59) 
halogenbond:LEU:98    NaN
halogenbond:LEU:98     -1
Name: 58, dtype: object

>  <hbond:MET:99>  (59) 
hbond:MET:99    NaN
hbond:MET:99     -1
Name: 58, dtype: object

>  <hydroph_interaction:MET:99>  (59) 
hydroph_interaction:MET:99    NaN
hydroph_interaction:MET:99     -1
Name: 58, dtype: object

>  <halogenbond:MET:99>  (59) 
halogenbond:MET:99    NaN
halogenbond:MET:99     -1
Name: 58, dtype: object

>  <hydroph_interaction:LEU:100>  (59) 
hydroph_interaction:LEU:100    1.0
hydroph_interaction:LEU:100      1
Name: 58, dtype: object

>  <hbond:LEU:100>  (59) 
hbond:LEU:100    NaN
hbond:LEU:100     -1
Name: 58, dtype: object

>  <hbond:ALA:101>  (59) 
hbond:ALA:101    NaN
hbond:ALA:101     -1
Name: 58, dtype: object

>  <hydroph_interaction:ALA:101>  (59) 
hydroph_interaction:ALA:101    NaN
hydroph_interaction:ALA:101     -1
Name: 58, dtype: object

>  <hydroph_interaction:VAL:102>  (59) 
hydroph_interaction:VAL:102    NaN
hydroph_interaction:VAL:102     -1
Name: 58, dtype: object

>  <hbond:VAL:102>  (59) 
hbond:VAL:102    NaN
hbond:VAL:102     -1
Name: 58, dtype: object

>  <hbond:GLY:103>  (59) 
hbond:GLY:103    NaN
hbond:GLY:103     -1
Name: 58, dtype: object

>  <halogenbond:GLY:103>  (59) 
halogenbond:GLY:103    NaN
halogenbond:GLY:103     -1
Name: 58, dtype: object

>  <hbond:HIS:104>  (59) 
hbond:HIS:104    NaN
hbond:HIS:104     -1
Name: 58, dtype: object

>  <saltbridge:HIS:104>  (59) 
saltbridge:HIS:104    NaN
saltbridge:HIS:104     -1
Name: 58, dtype: object

>  <pication:HIS:104>  (59) 
pication:HIS:104    NaN
pication:HIS:104     -1
Name: 58, dtype: object

>  <halogenbond:HIS:104>  (59) 
halogenbond:HIS:104    NaN
halogenbond:HIS:104     -1
Name: 58, dtype: object

>  <hydroph_interaction:HIS:104>  (59) 
hydroph_interaction:HIS:104    NaN
hydroph_interaction:HIS:104     -1
Name: 58, dtype: object

>  <pistack:HIS:104>  (59) 
pistack:HIS:104    NaN
pistack:HIS:104     -1
Name: 58, dtype: object

>  <halogenbond:SER:105>  (59) 
halogenbond:SER:105    0.0
halogenbond:SER:105      0
Name: 58, dtype: object

>  <hbond:SER:105>  (59) 
hbond:SER:105    0.0
hbond:SER:105      0
Name: 58, dtype: object

>  <hbond:GLU:106>  (59) 
hbond:GLU:106    0.0
hbond:GLU:106      0
Name: 58, dtype: object

>  <hydroph_interaction:GLU:106>  (59) 
hydroph_interaction:GLU:106    NaN
hydroph_interaction:GLU:106     -1
Name: 58, dtype: object

>  <saltbridge:GLU:106>  (59) 
saltbridge:GLU:106    NaN
saltbridge:GLU:106     -1
Name: 58, dtype: object

>  <halogenbond:GLU:106>  (59) 
halogenbond:GLU:106    NaN
halogenbond:GLU:106     -1
Name: 58, dtype: object

>  <hydroph_interaction:PRO:107>  (59) 
hydroph_interaction:PRO:107    0
hydroph_interaction:PRO:107    0
Name: 58, dtype: object

>  <hbond:PRO:107>  (59) 
hbond:PRO:107    0.0
hbond:PRO:107      0
Name: 58, dtype: object

>  <halogenbond:PRO:107>  (59) 
halogenbond:PRO:107    NaN
halogenbond:PRO:107     -1
Name: 58, dtype: object

>  <hbond:GLY:108>  (59) 
hbond:GLY:108    NaN
hbond:GLY:108     -1
Name: 58, dtype: object

>  <halogenbond:GLY:108>  (59) 
halogenbond:GLY:108    NaN
halogenbond:GLY:108     -1
Name: 58, dtype: object

>  <hbond:ASP:109>  (59) 
hbond:ASP:109    NaN
hbond:ASP:109     -1
Name: 58, dtype: object

>  <hydroph_interaction:ASP:109>  (59) 
hydroph_interaction:ASP:109    NaN
hydroph_interaction:ASP:109     -1
Name: 58, dtype: object

>  <saltbridge:ASP:109>  (59) 
saltbridge:ASP:109    NaN
saltbridge:ASP:109     -1
Name: 58, dtype: object

>  <halogenbond:CYS:110>  (59) 
halogenbond:CYS:110    NaN
halogenbond:CYS:110     -1
Name: 58, dtype: object

>  <hbond:CYS:110>  (59) 
hbond:CYS:110    0.0
hbond:CYS:110      0
Name: 58, dtype: object

>  <hbond:GLY:111>  (59) 
hbond:GLY:111    NaN
hbond:GLY:111     -1
Name: 58, dtype: object

>  <hbond:GLY:112>  (59) 
hbond:GLY:112    NaN
hbond:GLY:112     -1
Name: 58, dtype: object

>  <hbond:ILE:113>  (59) 
hbond:ILE:113    NaN
hbond:ILE:113     -1
Name: 58, dtype: object

>  <hydroph_interaction:LEU:114>  (59) 
hydroph_interaction:LEU:114    NaN
hydroph_interaction:LEU:114     -1
Name: 58, dtype: object

>  <hbond:LEU:114>  (59) 
hbond:LEU:114    NaN
hbond:LEU:114     -1
Name: 58, dtype: object

>  <hydroph_interaction:ILE:123>  (59) 
hydroph_interaction:ILE:123    NaN
hydroph_interaction:ILE:123     -1
Name: 58, dtype: object

>  <hbond:ILE:123>  (59) 
hbond:ILE:123    NaN
hbond:ILE:123     -1
Name: 58, dtype: object

>  <hydroph_interaction:VAL:124>  (59) 
hydroph_interaction:VAL:124    0.0
hydroph_interaction:VAL:124      0
Name: 58, dtype: object

>  <hbond:VAL:124>  (59) 
hbond:VAL:124    NaN
hbond:VAL:124     -1
Name: 58, dtype: object

>  <halogenbond:VAL:124>  (59) 
halogenbond:VAL:124    NaN
halogenbond:VAL:124     -1
Name: 58, dtype: object

>  <hbond:SER:125>  (59) 
hbond:SER:125    0
hbond:SER:125    0
Name: 58, dtype: object

>  <halogenbond:SER:125>  (59) 
halogenbond:SER:125    NaN
halogenbond:SER:125     -1
Name: 58, dtype: object

>  <hydroph_interaction:THR:126>  (59) 
hydroph_interaction:THR:126    0.0
hydroph_interaction:THR:126      0
Name: 58, dtype: object

>  <hbond:THR:126>  (59) 
hbond:THR:126    0.0
hbond:THR:126      0
Name: 58, dtype: object

>  <halogenbond:THR:126>  (59) 
halogenbond:THR:126    0.0
halogenbond:THR:126      0
Name: 58, dtype: object

>  <hbond:GLY:127>  (59) 
hbond:GLY:127    0
hbond:GLY:127    0
Name: 58, dtype: object

>  <halogenbond:GLY:127>  (59) 
halogenbond:GLY:127    NaN
halogenbond:GLY:127     -1
Name: 58, dtype: object

>  <hydroph_interaction:GLY:127>  (59) 
hydroph_interaction:GLY:127    NaN
hydroph_interaction:GLY:127     -1
Name: 58, dtype: object

>  <hbond:GLY:128>  (59) 
hbond:GLY:128    0.0
hbond:GLY:128      0
Name: 58, dtype: object

>  <halogenbond:GLY:128>  (59) 
halogenbond:GLY:128    0.0
halogenbond:GLY:128      0
Name: 58, dtype: object

>  <hydroph_interaction:GLY:128>  (59) 
hydroph_interaction:GLY:128    NaN
hydroph_interaction:GLY:128     -1
Name: 58, dtype: object

>  <hbond:ASN:129>  (59) 
hbond:ASN:129    0.0
hbond:ASN:129      0
Name: 58, dtype: object

>  <hydroph_interaction:ASN:129>  (59) 
hydroph_interaction:ASN:129    0.0
hydroph_interaction:ASN:129      0
Name: 58, dtype: object

>  <halogenbond:ASN:129>  (59) 
halogenbond:ASN:129    0.0
halogenbond:ASN:129      0
Name: 58, dtype: object

>  <hbond:GLY:130>  (59) 
hbond:GLY:130    0.0
hbond:GLY:130      0
Name: 58, dtype: object

>  <hbond:LEU:131>  (59) 
hbond:LEU:131    0.0
hbond:LEU:131      0
Name: 58, dtype: object

>  <hydroph_interaction:LEU:131>  (59) 
hydroph_interaction:LEU:131    1.0
hydroph_interaction:LEU:131      1
Name: 58, dtype: object

>  <halogenbond:LEU:131>  (59) 
halogenbond:LEU:131    0.0
halogenbond:LEU:131      0
Name: 58, dtype: object

>  <hydroph_interaction:VAL:132>  (59) 
hydroph_interaction:VAL:132    0.0
hydroph_interaction:VAL:132      0
Name: 58, dtype: object

>  <hbond:VAL:132>  (59) 
hbond:VAL:132    0.0
hbond:VAL:132      0
Name: 58, dtype: object

>  <hbond:GLY:133>  (59) 
hbond:GLY:133    0.0
hbond:GLY:133      0
Name: 58, dtype: object

>  <halogenbond:GLY:133>  (59) 
halogenbond:GLY:133    NaN
halogenbond:GLY:133     -1
Name: 58, dtype: object

>  <hydroph_interaction:PHE:134>  (59) 
hydroph_interaction:PHE:134    NaN
hydroph_interaction:PHE:134     -1
Name: 58, dtype: object

>  <hbond:PHE:134>  (59) 
hbond:PHE:134    NaN
hbond:PHE:134     -1
Name: 58, dtype: object

>  <pistack:PHE:134>  (59) 
pistack:PHE:134    NaN
pistack:PHE:134     -1
Name: 58, dtype: object

>  <pication:PHE:134>  (59) 
pication:PHE:134    NaN
pication:PHE:134     -1
Name: 58, dtype: object

>  <halogenbond:PHE:134>  (59) 
halogenbond:PHE:134    NaN
halogenbond:PHE:134     -1
Name: 58, dtype: object

>  <hydroph_interaction:ALA:135>  (59) 
hydroph_interaction:ALA:135    NaN
hydroph_interaction:ALA:135     -1
Name: 58, dtype: object

>  <hbond:ALA:135>  (59) 
hbond:ALA:135    NaN
hbond:ALA:135     -1
Name: 58, dtype: object

$$$$
PV_002147894306
     RDKit          3D

 20 20  0  0  0  0  0  0  0  0999 V2000
   12.4400   15.8720   21.6800 C   0  0  0  0  0  0  0  0  0  0  0  0
   11.0830   15.2590   21.4830 C   0  0  0  0  0  0  0  0  0  0  0  0
   10.2690   15.7590   20.7120 O   0  0  0  0  0  0  0  0  0  0  0  0
   10.8570   14.1320   22.2480 N   0  0  0  0  0  0  0  0  0  0  0  0
    9.5650   14.1330   22.8440 O   0  0  0  0  0  0  0  0  0  0  0  0
    9.2680   12.8770   23.3340 C   0  0  0  0  0  0  0  0  0  0  0  0
   10.0360   11.7860   22.9270 C   0  0  0  0  0  0  0  0  0  0  0  0
    9.7400   10.5110   23.4060 C   0  0  0  0  0  0  0  0  0  0  0  0
    8.6820   10.3330   24.2960 C   0  0  0  0  0  0  0  0  0  0  0  0
    7.9190   11.4190   24.7090 C   0  0  0  0  0  0  0  0  0  0  0  0
    8.2120   12.6920   24.2230 C   0  0  0  0  0  0  0  0  0  0  0  0
    7.2510   14.0220   24.7310 Cl  0  0  0  0  0  0  0  0  0  0  0  0
   12.8380   15.5700   22.6530 H   0  0  0  0  0  0  0  0  0  0  0  0
   13.1470   15.5690   20.9000 H   0  0  0  0  0  0  0  0  0  0  0  0
   12.3330   16.9590   21.6450 H   0  0  0  0  0  0  0  0  0  0  0  0
   11.5950   13.8080   22.8650 H   0  0  0  0  0  0  0  0  0  0  0  0
   10.8590   11.9340   22.2340 H   0  0  0  0  0  0  0  0  0  0  0  0
   10.3340    9.6580   23.0850 H   0  0  0  0  0  0  0  0  0  0  0  0
    8.4540    9.3410   24.6660 H   0  0  0  0  0  0  0  0  0  0  0  0
    7.0960   11.2650   25.4040 H   0  0  0  0  0  0  0  0  0  0  0  0
  1  2  1  0
  2  3  2  0
  2  4  1  0
  4  5  1  0
  5  6  1  0
  6  7  2  0
  7  8  1  0
  8  9  2  0
  9 10  1  0
 10 11  2  0
 11 12  1  0
 11  6  1  0
  1 13  1  0
  1 14  1  0
  1 15  1  0
  4 16  1  0
  7 17  1  0
  8 18  1  0
  9 19  1  0
 10 20  1  0
A    1
 C1 
A    2
 C2 
A    3
 O1 
A    4
 N1 
A    5
 O2 
A    6
 C3 
A    7
 C4 
A    8
 C5 
A    9
 C6 
A   10
 C7 
A   11
 C8 
A   12
CL1 
A   13
 H1 
A   14
 H2 
A   15
 H3 
A   16
 H4 
A   17
 H5 
A   18
 H6 
A   19
 H7 
A   20
 H8 
M  END
>  <ref_pdb>  (60) 
x0310_0A

>  <ref_mols>  (60) 
x0732_0A,x0528_0A

>  <original SMILES>  (60) 
CC(=O)NOc1ccccc1Cl

>  <rationale>  (60) 
info halogenbond:G127+D39+S125+Q95+E106+T126+P107+H104+Y64+C65+S87+N129+F83+R93+L131+I82+G128+P91+N19+H21+V84+G133+Y90+Y89+H97+L81+F134+L98+R20+G103+S66+S67+S7+G108+R38+V124+M99+S36; hbond:S87+S125+Q95+D39+E106+D109+G108+G103+G128+G130+L131+N129+N19+H104+R68+V124+R93+P91+F83+S67+S7+S66+G112+G133+V132+R20+Y89+S77+A135+Y63+A92+A101+M99+F134+L100+I82+Y64+S36+L98+V84+L81+Y94+S80+R38+S37+V102+G8+I123+G111+I113+L114+C65+L22+S96; hydroph_interaction:Y90+Y89+L22+E106+D109+N129+D39+N19+L40+I123+A135+Q95+I82+L100+L98+L131+F83+R93+V132+Y63+F134+H104+R20+A86+V74+P91+A101+F76+M99+L114+A92+Y94+R68+Y72+Y64+V18+V102+W28+G127+G128+L81; pication:H104+R93+Y63+F134+Y90+R68+F83+R20; pistack:H21+Y89+Y90+H104+F134+Y63+F83+Y94; saltbridge:R93+H104+E106+D109+E85+E88+R68+R20; 

>  <intxn_cluster>  (60) 
-1

>  <intxn_cluster_rank>  (60) 
-1

>  <N_interactions>  (60) 
4

>  <∆∆G>  (60) 
-8.606379

>  <$/mg>  (60) 
244.5

>  <comRMSD>  (60) 
0.513605

>  <N_rotatable_bonds>  (60) 
3

>  <deep_P1_sidechain>  (60) 
nan

>  <farthest_distance_to_substrate>  (60) 
2.087959

>  <hbond:SER:7>  (60) 
hbond:SER:7    NaN
hbond:SER:7     -1
Name: 59, dtype: object

>  <halogenbond:SER:7>  (60) 
halogenbond:SER:7    NaN
halogenbond:SER:7     -1
Name: 59, dtype: object

>  <hbond:GLY:8>  (60) 
hbond:GLY:8    NaN
hbond:GLY:8     -1
Name: 59, dtype: object

>  <hydroph_interaction:VAL:18>  (60) 
hydroph_interaction:VAL:18    NaN
hydroph_interaction:VAL:18     -1
Name: 59, dtype: object

>  <hbond:ASN:19>  (60) 
hbond:ASN:19    NaN
hbond:ASN:19     -1
Name: 59, dtype: object

>  <hydroph_interaction:ASN:19>  (60) 
hydroph_interaction:ASN:19    NaN
hydroph_interaction:ASN:19     -1
Name: 59, dtype: object

>  <halogenbond:ASN:19>  (60) 
halogenbond:ASN:19    NaN
halogenbond:ASN:19     -1
Name: 59, dtype: object

>  <hbond:ARG:20>  (60) 
hbond:ARG:20    NaN
hbond:ARG:20     -1
Name: 59, dtype: object

>  <hydroph_interaction:ARG:20>  (60) 
hydroph_interaction:ARG:20    NaN
hydroph_interaction:ARG:20     -1
Name: 59, dtype: object

>  <saltbridge:ARG:20>  (60) 
saltbridge:ARG:20    NaN
saltbridge:ARG:20     -1
Name: 59, dtype: object

>  <halogenbond:ARG:20>  (60) 
halogenbond:ARG:20    NaN
halogenbond:ARG:20     -1
Name: 59, dtype: object

>  <pication:ARG:20>  (60) 
pication:ARG:20    NaN
pication:ARG:20     -1
Name: 59, dtype: object

>  <hbond:HIS:21>  (60) 
hbond:HIS:21    0.0
hbond:HIS:21      0
Name: 59, dtype: object

>  <hydroph_interaction:HIS:21>  (60) 
hydroph_interaction:HIS:21    0.0
hydroph_interaction:HIS:21      0
Name: 59, dtype: object

>  <pistack:HIS:21>  (60) 
pistack:HIS:21    NaN
pistack:HIS:21     -1
Name: 59, dtype: object

>  <pication:HIS:21>  (60) 
pication:HIS:21    0.0
pication:HIS:21      0
Name: 59, dtype: object

>  <saltbridge:HIS:21>  (60) 
saltbridge:HIS:21    0.0
saltbridge:HIS:21      0
Name: 59, dtype: object

>  <halogenbond:HIS:21>  (60) 
halogenbond:HIS:21    NaN
halogenbond:HIS:21     -1
Name: 59, dtype: object

>  <hydroph_interaction:LEU:22>  (60) 
hydroph_interaction:LEU:22    NaN
hydroph_interaction:LEU:22     -1
Name: 59, dtype: object

>  <hbond:LEU:22>  (60) 
hbond:LEU:22    NaN
hbond:LEU:22     -1
Name: 59, dtype: object

>  <hydroph_interaction:TRP:28>  (60) 
hydroph_interaction:TRP:28    NaN
hydroph_interaction:TRP:28     -1
Name: 59, dtype: object

>  <hbond:SER:36>  (60) 
hbond:SER:36    NaN
hbond:SER:36     -1
Name: 59, dtype: object

>  <halogenbond:SER:36>  (60) 
halogenbond:SER:36    NaN
halogenbond:SER:36     -1
Name: 59, dtype: object

>  <hbond:SER:37>  (60) 
hbond:SER:37    NaN
hbond:SER:37     -1
Name: 59, dtype: object

>  <hbond:ARG:38>  (60) 
hbond:ARG:38    NaN
hbond:ARG:38     -1
Name: 59, dtype: object

>  <halogenbond:ARG:38>  (60) 
halogenbond:ARG:38    NaN
halogenbond:ARG:38     -1
Name: 59, dtype: object

>  <saltbridge:ASP:39>  (60) 
saltbridge:ASP:39    0.0
saltbridge:ASP:39      0
Name: 59, dtype: object

>  <halogenbond:ASP:39>  (60) 
halogenbond:ASP:39    NaN
halogenbond:ASP:39     -1
Name: 59, dtype: object

>  <hbond:ASP:39>  (60) 
hbond:ASP:39    NaN
hbond:ASP:39     -1
Name: 59, dtype: object

>  <hydroph_interaction:ASP:39>  (60) 
hydroph_interaction:ASP:39    NaN
hydroph_interaction:ASP:39     -1
Name: 59, dtype: object

>  <hydroph_interaction:LEU:40>  (60) 
hydroph_interaction:LEU:40    NaN
hydroph_interaction:LEU:40     -1
Name: 59, dtype: object

>  <hydroph_interaction:TYR:63>  (60) 
hydroph_interaction:TYR:63    NaN
hydroph_interaction:TYR:63     -1
Name: 59, dtype: object

>  <hbond:TYR:63>  (60) 
hbond:TYR:63    NaN
hbond:TYR:63     -1
Name: 59, dtype: object

>  <pistack:TYR:63>  (60) 
pistack:TYR:63    NaN
pistack:TYR:63     -1
Name: 59, dtype: object

>  <pication:TYR:63>  (60) 
pication:TYR:63    NaN
pication:TYR:63     -1
Name: 59, dtype: object

>  <halogenbond:TYR:64>  (60) 
halogenbond:TYR:64    NaN
halogenbond:TYR:64     -1
Name: 59, dtype: object

>  <hbond:TYR:64>  (60) 
hbond:TYR:64    NaN
hbond:TYR:64     -1
Name: 59, dtype: object

>  <hydroph_interaction:TYR:64>  (60) 
hydroph_interaction:TYR:64    NaN
hydroph_interaction:TYR:64     -1
Name: 59, dtype: object

>  <halogenbond:CYS:65>  (60) 
halogenbond:CYS:65    NaN
halogenbond:CYS:65     -1
Name: 59, dtype: object

>  <hbond:CYS:65>  (60) 
hbond:CYS:65    NaN
hbond:CYS:65     -1
Name: 59, dtype: object

>  <hbond:SER:66>  (60) 
hbond:SER:66    NaN
hbond:SER:66     -1
Name: 59, dtype: object

>  <halogenbond:SER:66>  (60) 
halogenbond:SER:66    NaN
halogenbond:SER:66     -1
Name: 59, dtype: object

>  <hbond:SER:67>  (60) 
hbond:SER:67    NaN
hbond:SER:67     -1
Name: 59, dtype: object

>  <halogenbond:SER:67>  (60) 
halogenbond:SER:67    NaN
halogenbond:SER:67     -1
Name: 59, dtype: object

>  <hbond:ARG:68>  (60) 
hbond:ARG:68    NaN
hbond:ARG:68     -1
Name: 59, dtype: object

>  <saltbridge:ARG:68>  (60) 
saltbridge:ARG:68    NaN
saltbridge:ARG:68     -1
Name: 59, dtype: object

>  <hydroph_interaction:ARG:68>  (60) 
hydroph_interaction:ARG:68    NaN
hydroph_interaction:ARG:68     -1
Name: 59, dtype: object

>  <pication:ARG:68>  (60) 
pication:ARG:68    NaN
pication:ARG:68     -1
Name: 59, dtype: object

>  <hydroph_interaction:TYR:72>  (60) 
hydroph_interaction:TYR:72    NaN
hydroph_interaction:TYR:72     -1
Name: 59, dtype: object

>  <hydroph_interaction:VAL:74>  (60) 
hydroph_interaction:VAL:74    NaN
hydroph_interaction:VAL:74     -1
Name: 59, dtype: object

>  <hydroph_interaction:PHE:76>  (60) 
hydroph_interaction:PHE:76    NaN
hydroph_interaction:PHE:76     -1
Name: 59, dtype: object

>  <hbond:SER:77>  (60) 
hbond:SER:77    NaN
hbond:SER:77     -1
Name: 59, dtype: object

>  <hbond:SER:80>  (60) 
hbond:SER:80    NaN
hbond:SER:80     -1
Name: 59, dtype: object

>  <hbond:LEU:81>  (60) 
hbond:LEU:81    NaN
hbond:LEU:81     -1
Name: 59, dtype: object

>  <halogenbond:LEU:81>  (60) 
halogenbond:LEU:81    NaN
halogenbond:LEU:81     -1
Name: 59, dtype: object

>  <hydroph_interaction:LEU:81>  (60) 
hydroph_interaction:LEU:81    NaN
hydroph_interaction:LEU:81     -1
Name: 59, dtype: object

>  <hydroph_interaction:ILE:82>  (60) 
hydroph_interaction:ILE:82    NaN
hydroph_interaction:ILE:82     -1
Name: 59, dtype: object

>  <halogenbond:ILE:82>  (60) 
halogenbond:ILE:82    NaN
halogenbond:ILE:82     -1
Name: 59, dtype: object

>  <hbond:ILE:82>  (60) 
hbond:ILE:82    NaN
hbond:ILE:82     -1
Name: 59, dtype: object

>  <hbond:PHE:83>  (60) 
hbond:PHE:83    NaN
hbond:PHE:83     -1
Name: 59, dtype: object

>  <hydroph_interaction:PHE:83>  (60) 
hydroph_interaction:PHE:83    NaN
hydroph_interaction:PHE:83     -1
Name: 59, dtype: object

>  <halogenbond:PHE:83>  (60) 
halogenbond:PHE:83    NaN
halogenbond:PHE:83     -1
Name: 59, dtype: object

>  <pistack:PHE:83>  (60) 
pistack:PHE:83    NaN
pistack:PHE:83     -1
Name: 59, dtype: object

>  <pication:PHE:83>  (60) 
pication:PHE:83    NaN
pication:PHE:83     -1
Name: 59, dtype: object

>  <hydroph_interaction:VAL:84>  (60) 
hydroph_interaction:VAL:84    0.0
hydroph_interaction:VAL:84      0
Name: 59, dtype: object

>  <halogenbond:VAL:84>  (60) 
halogenbond:VAL:84    NaN
halogenbond:VAL:84     -1
Name: 59, dtype: object

>  <hbond:VAL:84>  (60) 
hbond:VAL:84    NaN
hbond:VAL:84     -1
Name: 59, dtype: object

>  <hydroph_interaction:GLU:85>  (60) 
hydroph_interaction:GLU:85    0.0
hydroph_interaction:GLU:85      0
Name: 59, dtype: object

>  <hbond:GLU:85>  (60) 
hbond:GLU:85    0.0
hbond:GLU:85      0
Name: 59, dtype: object

>  <halogenbond:GLU:85>  (60) 
halogenbond:GLU:85    0.0
halogenbond:GLU:85      0
Name: 59, dtype: object

>  <saltbridge:GLU:85>  (60) 
saltbridge:GLU:85    NaN
saltbridge:GLU:85     -1
Name: 59, dtype: object

>  <halogenbond:ALA:86>  (60) 
halogenbond:ALA:86    0.0
halogenbond:ALA:86      0
Name: 59, dtype: object

>  <hbond:ALA:86>  (60) 
hbond:ALA:86    0.0
hbond:ALA:86      0
Name: 59, dtype: object

>  <hydroph_interaction:ALA:86>  (60) 
hydroph_interaction:ALA:86    NaN
hydroph_interaction:ALA:86     -1
Name: 59, dtype: object

>  <hbond:SER:87>  (60) 
hbond:SER:87    1
hbond:SER:87    1
Name: 59, dtype: object

>  <halogenbond:SER:87>  (60) 
halogenbond:SER:87    NaN
halogenbond:SER:87     -1
Name: 59, dtype: object

>  <hbond:GLU:88>  (60) 
hbond:GLU:88    0.0
hbond:GLU:88      0
Name: 59, dtype: object

>  <hydroph_interaction:GLU:88>  (60) 
hydroph_interaction:GLU:88    0.0
hydroph_interaction:GLU:88      0
Name: 59, dtype: object

>  <halogenbond:GLU:88>  (60) 
halogenbond:GLU:88    0.0
halogenbond:GLU:88      0
Name: 59, dtype: object

>  <saltbridge:GLU:88>  (60) 
saltbridge:GLU:88    NaN
saltbridge:GLU:88     -1
Name: 59, dtype: object

>  <hydroph_interaction:TYR:89>  (60) 
hydroph_interaction:TYR:89    1.0
hydroph_interaction:TYR:89      1
Name: 59, dtype: object

>  <pistack:TYR:89>  (60) 
pistack:TYR:89    NaN
pistack:TYR:89     -1
Name: 59, dtype: object

>  <hbond:TYR:89>  (60) 
hbond:TYR:89    NaN
hbond:TYR:89     -1
Name: 59, dtype: object

>  <halogenbond:TYR:89>  (60) 
halogenbond:TYR:89    NaN
halogenbond:TYR:89     -1
Name: 59, dtype: object

>  <hydroph_interaction:TYR:90>  (60) 
hydroph_interaction:TYR:90    1.0
hydroph_interaction:TYR:90      1
Name: 59, dtype: object

>  <hbond:TYR:90>  (60) 
hbond:TYR:90    0.0
hbond:TYR:90      0
Name: 59, dtype: object

>  <pistack:TYR:90>  (60) 
pistack:TYR:90    NaN
pistack:TYR:90     -1
Name: 59, dtype: object

>  <halogenbond:TYR:90>  (60) 
halogenbond:TYR:90    NaN
halogenbond:TYR:90     -1
Name: 59, dtype: object

>  <pication:TYR:90>  (60) 
pication:TYR:90    NaN
pication:TYR:90     -1
Name: 59, dtype: object

>  <hbond:PRO:91>  (60) 
hbond:PRO:91    NaN
hbond:PRO:91     -1
Name: 59, dtype: object

>  <hydroph_interaction:PRO:91>  (60) 
hydroph_interaction:PRO:91    NaN
hydroph_interaction:PRO:91     -1
Name: 59, dtype: object

>  <halogenbond:PRO:91>  (60) 
halogenbond:PRO:91    NaN
halogenbond:PRO:91     -1
Name: 59, dtype: object

>  <hbond:ALA:92>  (60) 
hbond:ALA:92    NaN
hbond:ALA:92     -1
Name: 59, dtype: object

>  <hydroph_interaction:ALA:92>  (60) 
hydroph_interaction:ALA:92    NaN
hydroph_interaction:ALA:92     -1
Name: 59, dtype: object

>  <saltbridge:ARG:93>  (60) 
saltbridge:ARG:93    NaN
saltbridge:ARG:93     -1
Name: 59, dtype: object

>  <hbond:ARG:93>  (60) 
hbond:ARG:93    NaN
hbond:ARG:93     -1
Name: 59, dtype: object

>  <hydroph_interaction:ARG:93>  (60) 
hydroph_interaction:ARG:93    NaN
hydroph_interaction:ARG:93     -1
Name: 59, dtype: object

>  <halogenbond:ARG:93>  (60) 
halogenbond:ARG:93    NaN
halogenbond:ARG:93     -1
Name: 59, dtype: object

>  <pication:ARG:93>  (60) 
pication:ARG:93    NaN
pication:ARG:93     -1
Name: 59, dtype: object

>  <hydroph_interaction:TYR:94>  (60) 
hydroph_interaction:TYR:94    NaN
hydroph_interaction:TYR:94     -1
Name: 59, dtype: object

>  <pistack:TYR:94>  (60) 
pistack:TYR:94    NaN
pistack:TYR:94     -1
Name: 59, dtype: object

>  <hbond:TYR:94>  (60) 
hbond:TYR:94    NaN
hbond:TYR:94     -1
Name: 59, dtype: object

>  <hbond:GLN:95>  (60) 
hbond:GLN:95    NaN
hbond:GLN:95     -1
Name: 59, dtype: object

>  <hydroph_interaction:GLN:95>  (60) 
hydroph_interaction:GLN:95    NaN
hydroph_interaction:GLN:95     -1
Name: 59, dtype: object

>  <halogenbond:GLN:95>  (60) 
halogenbond:GLN:95    NaN
halogenbond:GLN:95     -1
Name: 59, dtype: object

>  <hbond:SER:96>  (60) 
hbond:SER:96    NaN
hbond:SER:96     -1
Name: 59, dtype: object

>  <halogenbond:HIS:97>  (60) 
halogenbond:HIS:97    NaN
halogenbond:HIS:97     -1
Name: 59, dtype: object

>  <hydroph_interaction:LEU:98>  (60) 
hydroph_interaction:LEU:98    NaN
hydroph_interaction:LEU:98     -1
Name: 59, dtype: object

>  <hbond:LEU:98>  (60) 
hbond:LEU:98    NaN
hbond:LEU:98     -1
Name: 59, dtype: object

>  <halogenbond:LEU:98>  (60) 
halogenbond:LEU:98    NaN
halogenbond:LEU:98     -1
Name: 59, dtype: object

>  <hbond:MET:99>  (60) 
hbond:MET:99    NaN
hbond:MET:99     -1
Name: 59, dtype: object

>  <hydroph_interaction:MET:99>  (60) 
hydroph_interaction:MET:99    NaN
hydroph_interaction:MET:99     -1
Name: 59, dtype: object

>  <halogenbond:MET:99>  (60) 
halogenbond:MET:99    NaN
halogenbond:MET:99     -1
Name: 59, dtype: object

>  <hydroph_interaction:LEU:100>  (60) 
hydroph_interaction:LEU:100    NaN
hydroph_interaction:LEU:100     -1
Name: 59, dtype: object

>  <hbond:LEU:100>  (60) 
hbond:LEU:100    NaN
hbond:LEU:100     -1
Name: 59, dtype: object

>  <hbond:ALA:101>  (60) 
hbond:ALA:101    NaN
hbond:ALA:101     -1
Name: 59, dtype: object

>  <hydroph_interaction:ALA:101>  (60) 
hydroph_interaction:ALA:101    NaN
hydroph_interaction:ALA:101     -1
Name: 59, dtype: object

>  <hydroph_interaction:VAL:102>  (60) 
hydroph_interaction:VAL:102    NaN
hydroph_interaction:VAL:102     -1
Name: 59, dtype: object

>  <hbond:VAL:102>  (60) 
hbond:VAL:102    NaN
hbond:VAL:102     -1
Name: 59, dtype: object

>  <hbond:GLY:103>  (60) 
hbond:GLY:103    NaN
hbond:GLY:103     -1
Name: 59, dtype: object

>  <halogenbond:GLY:103>  (60) 
halogenbond:GLY:103    NaN
halogenbond:GLY:103     -1
Name: 59, dtype: object

>  <hbond:HIS:104>  (60) 
hbond:HIS:104    NaN
hbond:HIS:104     -1
Name: 59, dtype: object

>  <saltbridge:HIS:104>  (60) 
saltbridge:HIS:104    NaN
saltbridge:HIS:104     -1
Name: 59, dtype: object

>  <pication:HIS:104>  (60) 
pication:HIS:104    NaN
pication:HIS:104     -1
Name: 59, dtype: object

>  <halogenbond:HIS:104>  (60) 
halogenbond:HIS:104    NaN
halogenbond:HIS:104     -1
Name: 59, dtype: object

>  <hydroph_interaction:HIS:104>  (60) 
hydroph_interaction:HIS:104    NaN
hydroph_interaction:HIS:104     -1
Name: 59, dtype: object

>  <pistack:HIS:104>  (60) 
pistack:HIS:104    NaN
pistack:HIS:104     -1
Name: 59, dtype: object

>  <halogenbond:SER:105>  (60) 
halogenbond:SER:105    0.0
halogenbond:SER:105      0
Name: 59, dtype: object

>  <hbond:SER:105>  (60) 
hbond:SER:105    0.0
hbond:SER:105      0
Name: 59, dtype: object

>  <hbond:GLU:106>  (60) 
hbond:GLU:106    NaN
hbond:GLU:106     -1
Name: 59, dtype: object

>  <hydroph_interaction:GLU:106>  (60) 
hydroph_interaction:GLU:106    NaN
hydroph_interaction:GLU:106     -1
Name: 59, dtype: object

>  <saltbridge:GLU:106>  (60) 
saltbridge:GLU:106    NaN
saltbridge:GLU:106     -1
Name: 59, dtype: object

>  <halogenbond:GLU:106>  (60) 
halogenbond:GLU:106    NaN
halogenbond:GLU:106     -1
Name: 59, dtype: object

>  <hydroph_interaction:PRO:107>  (60) 
hydroph_interaction:PRO:107    0
hydroph_interaction:PRO:107    0
Name: 59, dtype: object

>  <hbond:PRO:107>  (60) 
hbond:PRO:107    0.0
hbond:PRO:107      0
Name: 59, dtype: object

>  <halogenbond:PRO:107>  (60) 
halogenbond:PRO:107    NaN
halogenbond:PRO:107     -1
Name: 59, dtype: object

>  <hbond:GLY:108>  (60) 
hbond:GLY:108    NaN
hbond:GLY:108     -1
Name: 59, dtype: object

>  <halogenbond:GLY:108>  (60) 
halogenbond:GLY:108    NaN
halogenbond:GLY:108     -1
Name: 59, dtype: object

>  <hbond:ASP:109>  (60) 
hbond:ASP:109    NaN
hbond:ASP:109     -1
Name: 59, dtype: object

>  <hydroph_interaction:ASP:109>  (60) 
hydroph_interaction:ASP:109    NaN
hydroph_interaction:ASP:109     -1
Name: 59, dtype: object

>  <saltbridge:ASP:109>  (60) 
saltbridge:ASP:109    NaN
saltbridge:ASP:109     -1
Name: 59, dtype: object

>  <halogenbond:CYS:110>  (60) 
halogenbond:CYS:110    0.0
halogenbond:CYS:110      0
Name: 59, dtype: object

>  <hbond:CYS:110>  (60) 
hbond:CYS:110    0.0
hbond:CYS:110      0
Name: 59, dtype: object

>  <hbond:GLY:111>  (60) 
hbond:GLY:111    NaN
hbond:GLY:111     -1
Name: 59, dtype: object

>  <hbond:GLY:112>  (60) 
hbond:GLY:112    NaN
hbond:GLY:112     -1
Name: 59, dtype: object

>  <hbond:ILE:113>  (60) 
hbond:ILE:113    NaN
hbond:ILE:113     -1
Name: 59, dtype: object

>  <hydroph_interaction:LEU:114>  (60) 
hydroph_interaction:LEU:114    NaN
hydroph_interaction:LEU:114     -1
Name: 59, dtype: object

>  <hbond:LEU:114>  (60) 
hbond:LEU:114    NaN
hbond:LEU:114     -1
Name: 59, dtype: object

>  <hydroph_interaction:ILE:123>  (60) 
hydroph_interaction:ILE:123    NaN
hydroph_interaction:ILE:123     -1
Name: 59, dtype: object

>  <hbond:ILE:123>  (60) 
hbond:ILE:123    NaN
hbond:ILE:123     -1
Name: 59, dtype: object

>  <hydroph_interaction:VAL:124>  (60) 
hydroph_interaction:VAL:124    0.0
hydroph_interaction:VAL:124      0
Name: 59, dtype: object

>  <hbond:VAL:124>  (60) 
hbond:VAL:124    NaN
hbond:VAL:124     -1
Name: 59, dtype: object

>  <halogenbond:VAL:124>  (60) 
halogenbond:VAL:124    NaN
halogenbond:VAL:124     -1
Name: 59, dtype: object

>  <hbond:SER:125>  (60) 
hbond:SER:125    1
hbond:SER:125    1
Name: 59, dtype: object

>  <halogenbond:SER:125>  (60) 
halogenbond:SER:125    NaN
halogenbond:SER:125     -1
Name: 59, dtype: object

>  <hydroph_interaction:THR:126>  (60) 
hydroph_interaction:THR:126    0.0
hydroph_interaction:THR:126      0
Name: 59, dtype: object

>  <hbond:THR:126>  (60) 
hbond:THR:126    0.0
hbond:THR:126      0
Name: 59, dtype: object

>  <halogenbond:THR:126>  (60) 
halogenbond:THR:126    NaN
halogenbond:THR:126     -1
Name: 59, dtype: object

>  <hbond:GLY:127>  (60) 
hbond:GLY:127    0
hbond:GLY:127    0
Name: 59, dtype: object

>  <halogenbond:GLY:127>  (60) 
halogenbond:GLY:127    NaN
halogenbond:GLY:127     -1
Name: 59, dtype: object

>  <hydroph_interaction:GLY:127>  (60) 
hydroph_interaction:GLY:127    NaN
hydroph_interaction:GLY:127     -1
Name: 59, dtype: object

>  <hbond:GLY:128>  (60) 
hbond:GLY:128    NaN
hbond:GLY:128     -1
Name: 59, dtype: object

>  <halogenbond:GLY:128>  (60) 
halogenbond:GLY:128    NaN
halogenbond:GLY:128     -1
Name: 59, dtype: object

>  <hydroph_interaction:GLY:128>  (60) 
hydroph_interaction:GLY:128    NaN
hydroph_interaction:GLY:128     -1
Name: 59, dtype: object

>  <hbond:ASN:129>  (60) 
hbond:ASN:129    NaN
hbond:ASN:129     -1
Name: 59, dtype: object

>  <hydroph_interaction:ASN:129>  (60) 
hydroph_interaction:ASN:129    NaN
hydroph_interaction:ASN:129     -1
Name: 59, dtype: object

>  <halogenbond:ASN:129>  (60) 
halogenbond:ASN:129    NaN
halogenbond:ASN:129     -1
Name: 59, dtype: object

>  <hbond:GLY:130>  (60) 
hbond:GLY:130    NaN
hbond:GLY:130     -1
Name: 59, dtype: object

>  <hbond:LEU:131>  (60) 
hbond:LEU:131    NaN
hbond:LEU:131     -1
Name: 59, dtype: object

>  <hydroph_interaction:LEU:131>  (60) 
hydroph_interaction:LEU:131    NaN
hydroph_interaction:LEU:131     -1
Name: 59, dtype: object

>  <halogenbond:LEU:131>  (60) 
halogenbond:LEU:131    NaN
halogenbond:LEU:131     -1
Name: 59, dtype: object

>  <hydroph_interaction:VAL:132>  (60) 
hydroph_interaction:VAL:132    NaN
hydroph_interaction:VAL:132     -1
Name: 59, dtype: object

>  <hbond:VAL:132>  (60) 
hbond:VAL:132    NaN
hbond:VAL:132     -1
Name: 59, dtype: object

>  <hbond:GLY:133>  (60) 
hbond:GLY:133    NaN
hbond:GLY:133     -1
Name: 59, dtype: object

>  <halogenbond:GLY:133>  (60) 
halogenbond:GLY:133    NaN
halogenbond:GLY:133     -1
Name: 59, dtype: object

>  <hydroph_interaction:PHE:134>  (60) 
hydroph_interaction:PHE:134    NaN
hydroph_interaction:PHE:134     -1
Name: 59, dtype: object

>  <hbond:PHE:134>  (60) 
hbond:PHE:134    NaN
hbond:PHE:134     -1
Name: 59, dtype: object

>  <pistack:PHE:134>  (60) 
pistack:PHE:134    NaN
pistack:PHE:134     -1
Name: 59, dtype: object

>  <pication:PHE:134>  (60) 
pication:PHE:134    NaN
pication:PHE:134     -1
Name: 59, dtype: object

>  <halogenbond:PHE:134>  (60) 
halogenbond:PHE:134    NaN
halogenbond:PHE:134     -1
Name: 59, dtype: object

>  <hydroph_interaction:ALA:135>  (60) 
hydroph_interaction:ALA:135    NaN
hydroph_interaction:ALA:135     -1
Name: 59, dtype: object

>  <hbond:ALA:135>  (60) 
hbond:ALA:135    NaN
hbond:ALA:135     -1
Name: 59, dtype: object

$$$$
Z5480666518
     RDKit          3D

 35 36  0  0  0  0  0  0  0  0999 V2000
   12.1650   16.1600   21.6740 C   0  0  0  0  0  0  0  0  0  0  0  0
   11.1490   15.0240   21.6080 C   0  0  0  0  0  0  0  0  0  0  0  0
   11.2930   14.2380   22.7310 N   0  0  0  0  0  0  0  0  0  0  0  0
   12.5690   13.8300   23.1380 C   0  0  0  0  0  0  0  0  0  0  0  0
   10.1710   13.9990   23.5460 C   0  0  0  0  0  0  0  0  0  0  0  0
    9.6150   14.8100   24.2460 O   0  0  0  0  0  0  0  0  0  0  0  0
    9.5770   12.6570   23.7760 C   0  0  0  0  0  0  0  0  0  0  0  0
   10.2070   11.5090   23.0520 C   0  0  0  0  0  0  0  0  0  0  0  0
    9.5780   10.1820   23.3690 C   0  0  0  0  0  0  0  0  0  0  0  0
   10.2100    9.0100   22.6350 C   0  0  0  0  0  0  0  0  0  0  0  0
    8.5040   10.0820   24.2700 C   0  0  0  0  0  0  0  0  0  0  0  0
    7.9740   11.2310   24.8890 C   0  0  0  0  0  0  0  0  0  0  0  0
    8.4690   12.4830   24.6600 C   0  0  0  0  0  0  0  0  0  0  0  0
    7.7640   13.4390   25.3780 C   0  0  0  0  0  0  0  0  0  0  0  0
    6.8420   12.7520   26.1530 C   0  0  0  0  0  0  0  0  0  0  0  0
    6.8340   11.3720   25.8750 C   0  0  0  0  0  0  0  0  0  0  0  0
   13.0100   15.9590   21.0090 H   0  0  0  0  0  0  0  0  0  0  0  0
   11.7170   17.1120   21.3830 H   0  0  0  0  0  0  0  0  0  0  0  0
   12.5550   16.2310   22.6940 H   0  0  0  0  0  0  0  0  0  0  0  0
   10.1290   15.3960   21.5200 H   0  0  0  0  0  0  0  0  0  0  0  0
   11.3550   14.4110   20.7210 H   0  0  0  0  0  0  0  0  0  0  0  0
   13.0950   13.4270   22.2710 H   0  0  0  0  0  0  0  0  0  0  0  0
   12.4820   13.0110   23.8630 H   0  0  0  0  0  0  0  0  0  0  0  0
   13.1640   14.6410   23.5650 H   0  0  0  0  0  0  0  0  0  0  0  0
   11.0450   11.6380   22.3670 H   0  0  0  0  0  0  0  0  0  0  0  0
    9.5940    8.2510   22.1800 H   0  0  0  0  0  0  0  0  0  0  0  0
   10.8000    9.4120   21.8080 H   0  0  0  0  0  0  0  0  0  0  0  0
   10.9100    8.5050   23.3080 H   0  0  0  0  0  0  0  0  0  0  0  0
    8.0750    9.1170   24.4860 H   0  0  0  0  0  0  0  0  0  0  0  0
    8.4690   13.9230   26.0570 H   0  0  0  0  0  0  0  0  0  0  0  0
    7.3480   14.2450   24.7770 H   0  0  0  0  0  0  0  0  0  0  0  0
    6.8670   13.0130   27.2100 H   0  0  0  0  0  0  0  0  0  0  0  0
    5.8580   13.1160   25.8220 H   0  0  0  0  0  0  0  0  0  0  0  0
    7.0430   10.7840   26.7740 H   0  0  0  0  0  0  0  0  0  0  0  0
    5.8780   11.0640   25.4710 H   0  0  0  0  0  0  0  0  0  0  0  0
  1  2  1  0
  2  3  1  0
  3  4  1  0
  3  5  1  0
  5  6  2  0
  5  7  1  0
  7  8  2  0
  8  9  1  0
  9 10  1  0
  9 11  2  0
 11 12  1  0
 12 13  2  0
 13 14  1  0
 14 15  1  0
 15 16  1  0
 13  7  1  0
 16 12  1  0
  1 17  1  0
  1 18  1  0
  1 19  1  0
  2 20  1  0
  2 21  1  0
  4 22  1  0
  4 23  1  0
  4 24  1  0
  8 25  1  0
 10 26  1  0
 10 27  1  0
 10 28  1  0
 11 29  1  0
 14 30  1  0
 14 31  1  0
 15 32  1  0
 15 33  1  0
 16 34  1  0
 16 35  1  0
A    1
 C1 
A    2
 C2 
A    3
 N1 
A    4
 C3 
A    5
 C4 
A    6
 O1 
A    7
 C5 
A    8
 C6 
A    9
 C7 
A   10
 C8 
A   11
 C9 
A   12
 C10
A   13
 C11
A   14
 C12
A   15
 C13
A   16
 C14
A   17
 H1 
A   18
 H2 
A   19
 H3 
A   20
 H4 
A   21
 H5 
A   22
 H6 
A   23
 H7 
A   24
 H8 
A   25
 H9 
A   26
 H10
A   27
 H11
A   28
 H12
A   29
 H13
A   30
 H14
A   31
 H15
A   32
 H16
A   33
 H17
A   34
 H18
A   35
 H19
M  END
>  <ref_pdb>  (61) 
x0310_0A

>  <ref_mols>  (61) 
x0554_0A,x0528_0A

>  <original SMILES>  (61) 
CCN(C)C(=O)c1cc(C)cc2c1CCC2

>  <rationale>  (61) 
info halogenbond:C110+G127+D39+A86+S125+E85+Q95+E106+E88+T126+H104+Y64+C65+S87+N129+F83+L131+I82+G128+P91+H21+V84+G133+Y90+Y89+H97+L81+F134+L98+R20+G103+S66+S67+S7+G108+R38+V124+M99+S36; hbond:T126+D109+G108+G103+G128+G130+L131+N129+H104+R68+V124+P91+F83+S67+S66+G112+G133+V132+S77+A135+Y63+A92+A101+M99+F134+L100+I82+Y64+L98+V84+L81+Y94+S80+R38+S37+V102+G8+I123+G111+I113+L114+C65+L22+S96; hydroph_interaction:V124+Y90+Y89+P107+N129+L40+I123+A135+I82+L100+L98+L131+F83+V132+Y63+F134+H104+A86+V74+P91+A101+F76+M99+L114+A92+Y94+R68+Y72+Y64+V18+V102+W28+G127+G128+L81; pication:H104+Y63+F134+Y90+R68+F83+R20; pistack:H104+F134+Y63+F83+Y94; saltbridge:H104+E106+D109+E85+E88+R68; 

>  <intxn_cluster>  (61) 
-1

>  <intxn_cluster_rank>  (61) 
-1

>  <N_interactions>  (61) 
4

>  <∆∆G>  (61) 
-11.696653

>  <$/mg>  (61) 
163.0

>  <comRMSD>  (61) 
0.9088

>  <N_rotatable_bonds>  (61) 
5

>  <deep_P1_sidechain>  (61) 
nan

>  <farthest_distance_to_substrate>  (61) 
2.588773

>  <hbond:SER:7>  (61) 
hbond:SER:7    0.0
hbond:SER:7      0
Name: 60, dtype: object

>  <halogenbond:SER:7>  (61) 
halogenbond:SER:7    NaN
halogenbond:SER:7     -1
Name: 60, dtype: object

>  <hbond:GLY:8>  (61) 
hbond:GLY:8    NaN
hbond:GLY:8     -1
Name: 60, dtype: object

>  <hydroph_interaction:VAL:18>  (61) 
hydroph_interaction:VAL:18    NaN
hydroph_interaction:VAL:18     -1
Name: 60, dtype: object

>  <hbond:ASN:19>  (61) 
hbond:ASN:19    0.0
hbond:ASN:19      0
Name: 60, dtype: object

>  <hydroph_interaction:ASN:19>  (61) 
hydroph_interaction:ASN:19    0.0
hydroph_interaction:ASN:19      0
Name: 60, dtype: object

>  <halogenbond:ASN:19>  (61) 
halogenbond:ASN:19    0.0
halogenbond:ASN:19      0
Name: 60, dtype: object

>  <hbond:ARG:20>  (61) 
hbond:ARG:20    0.0
hbond:ARG:20      0
Name: 60, dtype: object

>  <hydroph_interaction:ARG:20>  (61) 
hydroph_interaction:ARG:20    0.0
hydroph_interaction:ARG:20      0
Name: 60, dtype: object

>  <saltbridge:ARG:20>  (61) 
saltbridge:ARG:20    0.0
saltbridge:ARG:20      0
Name: 60, dtype: object

>  <halogenbond:ARG:20>  (61) 
halogenbond:ARG:20    NaN
halogenbond:ARG:20     -1
Name: 60, dtype: object

>  <pication:ARG:20>  (61) 
pication:ARG:20    NaN
pication:ARG:20     -1
Name: 60, dtype: object

>  <hbond:HIS:21>  (61) 
hbond:HIS:21    0.0
hbond:HIS:21      0
Name: 60, dtype: object

>  <hydroph_interaction:HIS:21>  (61) 
hydroph_interaction:HIS:21    0.0
hydroph_interaction:HIS:21      0
Name: 60, dtype: object

>  <pistack:HIS:21>  (61) 
pistack:HIS:21    0.0
pistack:HIS:21      0
Name: 60, dtype: object

>  <pication:HIS:21>  (61) 
pication:HIS:21    0.0
pication:HIS:21      0
Name: 60, dtype: object

>  <saltbridge:HIS:21>  (61) 
saltbridge:HIS:21    0.0
saltbridge:HIS:21      0
Name: 60, dtype: object

>  <halogenbond:HIS:21>  (61) 
halogenbond:HIS:21    NaN
halogenbond:HIS:21     -1
Name: 60, dtype: object

>  <hydroph_interaction:LEU:22>  (61) 
hydroph_interaction:LEU:22    0.0
hydroph_interaction:LEU:22      0
Name: 60, dtype: object

>  <hbond:LEU:22>  (61) 
hbond:LEU:22    NaN
hbond:LEU:22     -1
Name: 60, dtype: object

>  <hydroph_interaction:TRP:28>  (61) 
hydroph_interaction:TRP:28    NaN
hydroph_interaction:TRP:28     -1
Name: 60, dtype: object

>  <hbond:SER:36>  (61) 
hbond:SER:36    0.0
hbond:SER:36      0
Name: 60, dtype: object

>  <halogenbond:SER:36>  (61) 
halogenbond:SER:36    NaN
halogenbond:SER:36     -1
Name: 60, dtype: object

>  <hbond:SER:37>  (61) 
hbond:SER:37    NaN
hbond:SER:37     -1
Name: 60, dtype: object

>  <hbond:ARG:38>  (61) 
hbond:ARG:38    NaN
hbond:ARG:38     -1
Name: 60, dtype: object

>  <halogenbond:ARG:38>  (61) 
halogenbond:ARG:38    NaN
halogenbond:ARG:38     -1
Name: 60, dtype: object

>  <saltbridge:ASP:39>  (61) 
saltbridge:ASP:39    0.0
saltbridge:ASP:39      0
Name: 60, dtype: object

>  <halogenbond:ASP:39>  (61) 
halogenbond:ASP:39    NaN
halogenbond:ASP:39     -1
Name: 60, dtype: object

>  <hbond:ASP:39>  (61) 
hbond:ASP:39    0.0
hbond:ASP:39      0
Name: 60, dtype: object

>  <hydroph_interaction:ASP:39>  (61) 
hydroph_interaction:ASP:39    0.0
hydroph_interaction:ASP:39      0
Name: 60, dtype: object

>  <hydroph_interaction:LEU:40>  (61) 
hydroph_interaction:LEU:40    NaN
hydroph_interaction:LEU:40     -1
Name: 60, dtype: object

>  <hydroph_interaction:TYR:63>  (61) 
hydroph_interaction:TYR:63    NaN
hydroph_interaction:TYR:63     -1
Name: 60, dtype: object

>  <hbond:TYR:63>  (61) 
hbond:TYR:63    NaN
hbond:TYR:63     -1
Name: 60, dtype: object

>  <pistack:TYR:63>  (61) 
pistack:TYR:63    NaN
pistack:TYR:63     -1
Name: 60, dtype: object

>  <pication:TYR:63>  (61) 
pication:TYR:63    NaN
pication:TYR:63     -1
Name: 60, dtype: object

>  <halogenbond:TYR:64>  (61) 
halogenbond:TYR:64    NaN
halogenbond:TYR:64     -1
Name: 60, dtype: object

>  <hbond:TYR:64>  (61) 
hbond:TYR:64    NaN
hbond:TYR:64     -1
Name: 60, dtype: object

>  <hydroph_interaction:TYR:64>  (61) 
hydroph_interaction:TYR:64    NaN
hydroph_interaction:TYR:64     -1
Name: 60, dtype: object

>  <halogenbond:CYS:65>  (61) 
halogenbond:CYS:65    NaN
halogenbond:CYS:65     -1
Name: 60, dtype: object

>  <hbond:CYS:65>  (61) 
hbond:CYS:65    NaN
hbond:CYS:65     -1
Name: 60, dtype: object

>  <hbond:SER:66>  (61) 
hbond:SER:66    NaN
hbond:SER:66     -1
Name: 60, dtype: object

>  <halogenbond:SER:66>  (61) 
halogenbond:SER:66    NaN
halogenbond:SER:66     -1
Name: 60, dtype: object

>  <hbond:SER:67>  (61) 
hbond:SER:67    NaN
hbond:SER:67     -1
Name: 60, dtype: object

>  <halogenbond:SER:67>  (61) 
halogenbond:SER:67    NaN
halogenbond:SER:67     -1
Name: 60, dtype: object

>  <hbond:ARG:68>  (61) 
hbond:ARG:68    NaN
hbond:ARG:68     -1
Name: 60, dtype: object

>  <saltbridge:ARG:68>  (61) 
saltbridge:ARG:68    NaN
saltbridge:ARG:68     -1
Name: 60, dtype: object

>  <hydroph_interaction:ARG:68>  (61) 
hydroph_interaction:ARG:68    NaN
hydroph_interaction:ARG:68     -1
Name: 60, dtype: object

>  <pication:ARG:68>  (61) 
pication:ARG:68    NaN
pication:ARG:68     -1
Name: 60, dtype: object

>  <hydroph_interaction:TYR:72>  (61) 
hydroph_interaction:TYR:72    NaN
hydroph_interaction:TYR:72     -1
Name: 60, dtype: object

>  <hydroph_interaction:VAL:74>  (61) 
hydroph_interaction:VAL:74    NaN
hydroph_interaction:VAL:74     -1
Name: 60, dtype: object

>  <hydroph_interaction:PHE:76>  (61) 
hydroph_interaction:PHE:76    NaN
hydroph_interaction:PHE:76     -1
Name: 60, dtype: object

>  <hbond:SER:77>  (61) 
hbond:SER:77    NaN
hbond:SER:77     -1
Name: 60, dtype: object

>  <hbond:SER:80>  (61) 
hbond:SER:80    NaN
hbond:SER:80     -1
Name: 60, dtype: object

>  <hbond:LEU:81>  (61) 
hbond:LEU:81    NaN
hbond:LEU:81     -1
Name: 60, dtype: object

>  <halogenbond:LEU:81>  (61) 
halogenbond:LEU:81    NaN
halogenbond:LEU:81     -1
Name: 60, dtype: object

>  <hydroph_interaction:LEU:81>  (61) 
hydroph_interaction:LEU:81    NaN
hydroph_interaction:LEU:81     -1
Name: 60, dtype: object

>  <hydroph_interaction:ILE:82>  (61) 
hydroph_interaction:ILE:82    NaN
hydroph_interaction:ILE:82     -1
Name: 60, dtype: object

>  <halogenbond:ILE:82>  (61) 
halogenbond:ILE:82    NaN
halogenbond:ILE:82     -1
Name: 60, dtype: object

>  <hbond:ILE:82>  (61) 
hbond:ILE:82    NaN
hbond:ILE:82     -1
Name: 60, dtype: object

>  <hbond:PHE:83>  (61) 
hbond:PHE:83    NaN
hbond:PHE:83     -1
Name: 60, dtype: object

>  <hydroph_interaction:PHE:83>  (61) 
hydroph_interaction:PHE:83    NaN
hydroph_interaction:PHE:83     -1
Name: 60, dtype: object

>  <halogenbond:PHE:83>  (61) 
halogenbond:PHE:83    NaN
halogenbond:PHE:83     -1
Name: 60, dtype: object

>  <pistack:PHE:83>  (61) 
pistack:PHE:83    NaN
pistack:PHE:83     -1
Name: 60, dtype: object

>  <pication:PHE:83>  (61) 
pication:PHE:83    NaN
pication:PHE:83     -1
Name: 60, dtype: object

>  <hydroph_interaction:VAL:84>  (61) 
hydroph_interaction:VAL:84    0.0
hydroph_interaction:VAL:84      0
Name: 60, dtype: object

>  <halogenbond:VAL:84>  (61) 
halogenbond:VAL:84    NaN
halogenbond:VAL:84     -1
Name: 60, dtype: object

>  <hbond:VAL:84>  (61) 
hbond:VAL:84    NaN
hbond:VAL:84     -1
Name: 60, dtype: object

>  <hydroph_interaction:GLU:85>  (61) 
hydroph_interaction:GLU:85    0.0
hydroph_interaction:GLU:85      0
Name: 60, dtype: object

>  <hbond:GLU:85>  (61) 
hbond:GLU:85    0.0
hbond:GLU:85      0
Name: 60, dtype: object

>  <halogenbond:GLU:85>  (61) 
halogenbond:GLU:85    NaN
halogenbond:GLU:85     -1
Name: 60, dtype: object

>  <saltbridge:GLU:85>  (61) 
saltbridge:GLU:85    NaN
saltbridge:GLU:85     -1
Name: 60, dtype: object

>  <halogenbond:ALA:86>  (61) 
halogenbond:ALA:86    NaN
halogenbond:ALA:86     -1
Name: 60, dtype: object

>  <hbond:ALA:86>  (61) 
hbond:ALA:86    0.0
hbond:ALA:86      0
Name: 60, dtype: object

>  <hydroph_interaction:ALA:86>  (61) 
hydroph_interaction:ALA:86    NaN
hydroph_interaction:ALA:86     -1
Name: 60, dtype: object

>  <hbond:SER:87>  (61) 
hbond:SER:87    0
hbond:SER:87    0
Name: 60, dtype: object

>  <halogenbond:SER:87>  (61) 
halogenbond:SER:87    NaN
halogenbond:SER:87     -1
Name: 60, dtype: object

>  <hbond:GLU:88>  (61) 
hbond:GLU:88    0.0
hbond:GLU:88      0
Name: 60, dtype: object

>  <hydroph_interaction:GLU:88>  (61) 
hydroph_interaction:GLU:88    0.0
hydroph_interaction:GLU:88      0
Name: 60, dtype: object

>  <halogenbond:GLU:88>  (61) 
halogenbond:GLU:88    NaN
halogenbond:GLU:88     -1
Name: 60, dtype: object

>  <saltbridge:GLU:88>  (61) 
saltbridge:GLU:88    NaN
saltbridge:GLU:88     -1
Name: 60, dtype: object

>  <hydroph_interaction:TYR:89>  (61) 
hydroph_interaction:TYR:89    1.0
hydroph_interaction:TYR:89      1
Name: 60, dtype: object

>  <pistack:TYR:89>  (61) 
pistack:TYR:89    0.0
pistack:TYR:89      0
Name: 60, dtype: object

>  <hbond:TYR:89>  (61) 
hbond:TYR:89    0.0
hbond:TYR:89      0
Name: 60, dtype: object

>  <halogenbond:TYR:89>  (61) 
halogenbond:TYR:89    NaN
halogenbond:TYR:89     -1
Name: 60, dtype: object

>  <hydroph_interaction:TYR:90>  (61) 
hydroph_interaction:TYR:90    1.0
hydroph_interaction:TYR:90      1
Name: 60, dtype: object

>  <hbond:TYR:90>  (61) 
hbond:TYR:90    0.0
hbond:TYR:90      0
Name: 60, dtype: object

>  <pistack:TYR:90>  (61) 
pistack:TYR:90    0.0
pistack:TYR:90      0
Name: 60, dtype: object

>  <halogenbond:TYR:90>  (61) 
halogenbond:TYR:90    NaN
halogenbond:TYR:90     -1
Name: 60, dtype: object

>  <pication:TYR:90>  (61) 
pication:TYR:90    NaN
pication:TYR:90     -1
Name: 60, dtype: object

>  <hbond:PRO:91>  (61) 
hbond:PRO:91    NaN
hbond:PRO:91     -1
Name: 60, dtype: object

>  <hydroph_interaction:PRO:91>  (61) 
hydroph_interaction:PRO:91    NaN
hydroph_interaction:PRO:91     -1
Name: 60, dtype: object

>  <halogenbond:PRO:91>  (61) 
halogenbond:PRO:91    NaN
halogenbond:PRO:91     -1
Name: 60, dtype: object

>  <hbond:ALA:92>  (61) 
hbond:ALA:92    NaN
hbond:ALA:92     -1
Name: 60, dtype: object

>  <hydroph_interaction:ALA:92>  (61) 
hydroph_interaction:ALA:92    NaN
hydroph_interaction:ALA:92     -1
Name: 60, dtype: object

>  <saltbridge:ARG:93>  (61) 
saltbridge:ARG:93    0.0
saltbridge:ARG:93      0
Name: 60, dtype: object

>  <hbond:ARG:93>  (61) 
hbond:ARG:93    0.0
hbond:ARG:93      0
Name: 60, dtype: object

>  <hydroph_interaction:ARG:93>  (61) 
hydroph_interaction:ARG:93    0.0
hydroph_interaction:ARG:93      0
Name: 60, dtype: object

>  <halogenbond:ARG:93>  (61) 
halogenbond:ARG:93    0.0
halogenbond:ARG:93      0
Name: 60, dtype: object

>  <pication:ARG:93>  (61) 
pication:ARG:93    0.0
pication:ARG:93      0
Name: 60, dtype: object

>  <hydroph_interaction:TYR:94>  (61) 
hydroph_interaction:TYR:94    NaN
hydroph_interaction:TYR:94     -1
Name: 60, dtype: object

>  <pistack:TYR:94>  (61) 
pistack:TYR:94    NaN
pistack:TYR:94     -1
Name: 60, dtype: object

>  <hbond:TYR:94>  (61) 
hbond:TYR:94    NaN
hbond:TYR:94     -1
Name: 60, dtype: object

>  <hbond:GLN:95>  (61) 
hbond:GLN:95    0.0
hbond:GLN:95      0
Name: 60, dtype: object

>  <hydroph_interaction:GLN:95>  (61) 
hydroph_interaction:GLN:95    0.0
hydroph_interaction:GLN:95      0
Name: 60, dtype: object

>  <halogenbond:GLN:95>  (61) 
halogenbond:GLN:95    NaN
halogenbond:GLN:95     -1
Name: 60, dtype: object

>  <hbond:SER:96>  (61) 
hbond:SER:96    NaN
hbond:SER:96     -1
Name: 60, dtype: object

>  <halogenbond:HIS:97>  (61) 
halogenbond:HIS:97    NaN
halogenbond:HIS:97     -1
Name: 60, dtype: object

>  <hydroph_interaction:LEU:98>  (61) 
hydroph_interaction:LEU:98    NaN
hydroph_interaction:LEU:98     -1
Name: 60, dtype: object

>  <hbond:LEU:98>  (61) 
hbond:LEU:98    NaN
hbond:LEU:98     -1
Name: 60, dtype: object

>  <halogenbond:LEU:98>  (61) 
halogenbond:LEU:98    NaN
halogenbond:LEU:98     -1
Name: 60, dtype: object

>  <hbond:MET:99>  (61) 
hbond:MET:99    NaN
hbond:MET:99     -1
Name: 60, dtype: object

>  <hydroph_interaction:MET:99>  (61) 
hydroph_interaction:MET:99    NaN
hydroph_interaction:MET:99     -1
Name: 60, dtype: object

>  <halogenbond:MET:99>  (61) 
halogenbond:MET:99    NaN
halogenbond:MET:99     -1
Name: 60, dtype: object

>  <hydroph_interaction:LEU:100>  (61) 
hydroph_interaction:LEU:100    NaN
hydroph_interaction:LEU:100     -1
Name: 60, dtype: object

>  <hbond:LEU:100>  (61) 
hbond:LEU:100    NaN
hbond:LEU:100     -1
Name: 60, dtype: object

>  <hbond:ALA:101>  (61) 
hbond:ALA:101    NaN
hbond:ALA:101     -1
Name: 60, dtype: object

>  <hydroph_interaction:ALA:101>  (61) 
hydroph_interaction:ALA:101    NaN
hydroph_interaction:ALA:101     -1
Name: 60, dtype: object

>  <hydroph_interaction:VAL:102>  (61) 
hydroph_interaction:VAL:102    NaN
hydroph_interaction:VAL:102     -1
Name: 60, dtype: object

>  <hbond:VAL:102>  (61) 
hbond:VAL:102    NaN
hbond:VAL:102     -1
Name: 60, dtype: object

>  <hbond:GLY:103>  (61) 
hbond:GLY:103    NaN
hbond:GLY:103     -1
Name: 60, dtype: object

>  <halogenbond:GLY:103>  (61) 
halogenbond:GLY:103    NaN
halogenbond:GLY:103     -1
Name: 60, dtype: object

>  <hbond:HIS:104>  (61) 
hbond:HIS:104    NaN
hbond:HIS:104     -1
Name: 60, dtype: object

>  <saltbridge:HIS:104>  (61) 
saltbridge:HIS:104    NaN
saltbridge:HIS:104     -1
Name: 60, dtype: object

>  <pication:HIS:104>  (61) 
pication:HIS:104    NaN
pication:HIS:104     -1
Name: 60, dtype: object

>  <halogenbond:HIS:104>  (61) 
halogenbond:HIS:104    NaN
halogenbond:HIS:104     -1
Name: 60, dtype: object

>  <hydroph_interaction:HIS:104>  (61) 
hydroph_interaction:HIS:104    NaN
hydroph_interaction:HIS:104     -1
Name: 60, dtype: object

>  <pistack:HIS:104>  (61) 
pistack:HIS:104    NaN
pistack:HIS:104     -1
Name: 60, dtype: object

>  <halogenbond:SER:105>  (61) 
halogenbond:SER:105    0.0
halogenbond:SER:105      0
Name: 60, dtype: object

>  <hbond:SER:105>  (61) 
hbond:SER:105    0.0
hbond:SER:105      0
Name: 60, dtype: object

>  <hbond:GLU:106>  (61) 
hbond:GLU:106    0.0
hbond:GLU:106      0
Name: 60, dtype: object

>  <hydroph_interaction:GLU:106>  (61) 
hydroph_interaction:GLU:106    0.0
hydroph_interaction:GLU:106      0
Name: 60, dtype: object

>  <saltbridge:GLU:106>  (61) 
saltbridge:GLU:106    NaN
saltbridge:GLU:106     -1
Name: 60, dtype: object

>  <halogenbond:GLU:106>  (61) 
halogenbond:GLU:106    NaN
halogenbond:GLU:106     -1
Name: 60, dtype: object

>  <hydroph_interaction:PRO:107>  (61) 
hydroph_interaction:PRO:107    1
hydroph_interaction:PRO:107    1
Name: 60, dtype: object

>  <hbond:PRO:107>  (61) 
hbond:PRO:107    0.0
hbond:PRO:107      0
Name: 60, dtype: object

>  <halogenbond:PRO:107>  (61) 
halogenbond:PRO:107    0.0
halogenbond:PRO:107      0
Name: 60, dtype: object

>  <hbond:GLY:108>  (61) 
hbond:GLY:108    NaN
hbond:GLY:108     -1
Name: 60, dtype: object

>  <halogenbond:GLY:108>  (61) 
halogenbond:GLY:108    NaN
halogenbond:GLY:108     -1
Name: 60, dtype: object

>  <hbond:ASP:109>  (61) 
hbond:ASP:109    NaN
hbond:ASP:109     -1
Name: 60, dtype: object

>  <hydroph_interaction:ASP:109>  (61) 
hydroph_interaction:ASP:109    0.0
hydroph_interaction:ASP:109      0
Name: 60, dtype: object

>  <saltbridge:ASP:109>  (61) 
saltbridge:ASP:109    NaN
saltbridge:ASP:109     -1
Name: 60, dtype: object

>  <halogenbond:CYS:110>  (61) 
halogenbond:CYS:110    NaN
halogenbond:CYS:110     -1
Name: 60, dtype: object

>  <hbond:CYS:110>  (61) 
hbond:CYS:110    0.0
hbond:CYS:110      0
Name: 60, dtype: object

>  <hbond:GLY:111>  (61) 
hbond:GLY:111    NaN
hbond:GLY:111     -1
Name: 60, dtype: object

>  <hbond:GLY:112>  (61) 
hbond:GLY:112    NaN
hbond:GLY:112     -1
Name: 60, dtype: object

>  <hbond:ILE:113>  (61) 
hbond:ILE:113    NaN
hbond:ILE:113     -1
Name: 60, dtype: object

>  <hydroph_interaction:LEU:114>  (61) 
hydroph_interaction:LEU:114    NaN
hydroph_interaction:LEU:114     -1
Name: 60, dtype: object

>  <hbond:LEU:114>  (61) 
hbond:LEU:114    NaN
hbond:LEU:114     -1
Name: 60, dtype: object

>  <hydroph_interaction:ILE:123>  (61) 
hydroph_interaction:ILE:123    NaN
hydroph_interaction:ILE:123     -1
Name: 60, dtype: object

>  <hbond:ILE:123>  (61) 
hbond:ILE:123    NaN
hbond:ILE:123     -1
Name: 60, dtype: object

>  <hydroph_interaction:VAL:124>  (61) 
hydroph_interaction:VAL:124    1.0
hydroph_interaction:VAL:124      1
Name: 60, dtype: object

>  <hbond:VAL:124>  (61) 
hbond:VAL:124    NaN
hbond:VAL:124     -1
Name: 60, dtype: object

>  <halogenbond:VAL:124>  (61) 
halogenbond:VAL:124    NaN
halogenbond:VAL:124     -1
Name: 60, dtype: object

>  <hbond:SER:125>  (61) 
hbond:SER:125    0
hbond:SER:125    0
Name: 60, dtype: object

>  <halogenbond:SER:125>  (61) 
halogenbond:SER:125    NaN
halogenbond:SER:125     -1
Name: 60, dtype: object

>  <hydroph_interaction:THR:126>  (61) 
hydroph_interaction:THR:126    0.0
hydroph_interaction:THR:126      0
Name: 60, dtype: object

>  <hbond:THR:126>  (61) 
hbond:THR:126    NaN
hbond:THR:126     -1
Name: 60, dtype: object

>  <halogenbond:THR:126>  (61) 
halogenbond:THR:126    NaN
halogenbond:THR:126     -1
Name: 60, dtype: object

>  <hbond:GLY:127>  (61) 
hbond:GLY:127    0
hbond:GLY:127    0
Name: 60, dtype: object

>  <halogenbond:GLY:127>  (61) 
halogenbond:GLY:127    NaN
halogenbond:GLY:127     -1
Name: 60, dtype: object

>  <hydroph_interaction:GLY:127>  (61) 
hydroph_interaction:GLY:127    NaN
hydroph_interaction:GLY:127     -1
Name: 60, dtype: object

>  <hbond:GLY:128>  (61) 
hbond:GLY:128    NaN
hbond:GLY:128     -1
Name: 60, dtype: object

>  <halogenbond:GLY:128>  (61) 
halogenbond:GLY:128    NaN
halogenbond:GLY:128     -1
Name: 60, dtype: object

>  <hydroph_interaction:GLY:128>  (61) 
hydroph_interaction:GLY:128    NaN
hydroph_interaction:GLY:128     -1
Name: 60, dtype: object

>  <hbond:ASN:129>  (61) 
hbond:ASN:129    NaN
hbond:ASN:129     -1
Name: 60, dtype: object

>  <hydroph_interaction:ASN:129>  (61) 
hydroph_interaction:ASN:129    NaN
hydroph_interaction:ASN:129     -1
Name: 60, dtype: object

>  <halogenbond:ASN:129>  (61) 
halogenbond:ASN:129    NaN
halogenbond:ASN:129     -1
Name: 60, dtype: object

>  <hbond:GLY:130>  (61) 
hbond:GLY:130    NaN
hbond:GLY:130     -1
Name: 60, dtype: object

>  <hbond:LEU:131>  (61) 
hbond:LEU:131    NaN
hbond:LEU:131     -1
Name: 60, dtype: object

>  <hydroph_interaction:LEU:131>  (61) 
hydroph_interaction:LEU:131    NaN
hydroph_interaction:LEU:131     -1
Name: 60, dtype: object

>  <halogenbond:LEU:131>  (61) 
halogenbond:LEU:131    NaN
halogenbond:LEU:131     -1
Name: 60, dtype: object

>  <hydroph_interaction:VAL:132>  (61) 
hydroph_interaction:VAL:132    NaN
hydroph_interaction:VAL:132     -1
Name: 60, dtype: object

>  <hbond:VAL:132>  (61) 
hbond:VAL:132    NaN
hbond:VAL:132     -1
Name: 60, dtype: object

>  <hbond:GLY:133>  (61) 
hbond:GLY:133    NaN
hbond:GLY:133     -1
Name: 60, dtype: object

>  <halogenbond:GLY:133>  (61) 
halogenbond:GLY:133    NaN
halogenbond:GLY:133     -1
Name: 60, dtype: object

>  <hydroph_interaction:PHE:134>  (61) 
hydroph_interaction:PHE:134    NaN
hydroph_interaction:PHE:134     -1
Name: 60, dtype: object

>  <hbond:PHE:134>  (61) 
hbond:PHE:134    NaN
hbond:PHE:134     -1
Name: 60, dtype: object

>  <pistack:PHE:134>  (61) 
pistack:PHE:134    NaN
pistack:PHE:134     -1
Name: 60, dtype: object

>  <pication:PHE:134>  (61) 
pication:PHE:134    NaN
pication:PHE:134     -1
Name: 60, dtype: object

>  <halogenbond:PHE:134>  (61) 
halogenbond:PHE:134    NaN
halogenbond:PHE:134     -1
Name: 60, dtype: object

>  <hydroph_interaction:ALA:135>  (61) 
hydroph_interaction:ALA:135    NaN
hydroph_interaction:ALA:135     -1
Name: 60, dtype: object

>  <hbond:ALA:135>  (61) 
hbond:ALA:135    NaN
hbond:ALA:135     -1
Name: 60, dtype: object

$$$$
Z1480922451
     RDKit          3D

 26 26  0  0  0  0  0  0  0  0999 V2000
   12.8770   15.2230   21.7710 C   0  0  0  0  0  0  0  0  0  0  0  0
   11.5250   15.1910   21.9210 N   0  0  0  0  0  0  0  0  0  0  0  0
   11.0550   14.3340   22.8930 C   0  0  0  0  0  0  0  0  0  0  0  0
   11.4550   14.5050   24.4940 S   0  0  0  0  0  0  0  0  0  0  0  0
   10.2590   13.3750   22.3370 N   0  0  0  0  0  0  0  0  0  0  0  0
    9.7100   12.2770   22.9960 C   0  0  0  0  0  0  0  0  0  0  0  0
   10.1780   11.0480   22.6730 C   0  0  0  0  0  0  0  0  0  0  0  0
    9.6460    9.8680   23.2950 C   0  0  0  0  0  0  0  0  0  0  0  0
   10.1870    8.6760   22.8840 C   0  0  0  0  0  0  0  0  0  0  0  0
    8.6450   10.0550   24.2340 C   0  0  0  0  0  0  0  0  0  0  0  0
    8.2200   11.3570   24.5140 C   0  0  0  0  0  0  0  0  0  0  0  0
    7.1080   11.5510   25.5450 C   0  0  0  0  0  0  0  0  0  0  0  0
    8.7320   12.4740   23.9160 N   0  0  0  0  0  0  0  0  0  0  0  0
   13.1690   15.5880   20.7840 H   0  0  0  0  0  0  0  0  0  0  0  0
   13.3140   15.8450   22.5520 H   0  0  0  0  0  0  0  0  0  0  0  0
   13.2300   14.2030   21.8840 H   0  0  0  0  0  0  0  0  0  0  0  0
   11.0920   16.1120   21.8700 H   0  0  0  0  0  0  0  0  0  0  0  0
   10.5740   13.1180   21.4000 H   0  0  0  0  0  0  0  0  0  0  0  0
   10.9480   10.9090   21.9460 H   0  0  0  0  0  0  0  0  0  0  0  0
    9.5780    8.2760   22.0700 H   0  0  0  0  0  0  0  0  0  0  0  0
   10.3410    7.8980   23.5920 H   0  0  0  0  0  0  0  0  0  0  0  0
   11.1620    8.8910   22.4500 H   0  0  0  0  0  0  0  0  0  0  0  0
    8.1850    9.2180   24.7490 H   0  0  0  0  0  0  0  0  0  0  0  0
    6.2780   12.1070   25.1040 H   0  0  0  0  0  0  0  0  0  0  0  0
    7.4840   12.0660   26.4320 H   0  0  0  0  0  0  0  0  0  0  0  0
    6.7240   10.5730   25.8570 H   0  0  0  0  0  0  0  0  0  0  0  0
  1  2  1  0
  2  3  1  0
  3  4  2  0
  3  5  1  0
  5  6  1  0
  6  7  2  0
  7  8  1  0
  8  9  1  0
  8 10  2  0
 10 11  1  0
 11 12  1  0
 11 13  2  0
 13  6  1  0
  1 14  1  0
  1 15  1  0
  1 16  1  0
  2 17  1  0
  5 18  1  0
  7 19  1  0
  9 20  1  0
  9 21  1  0
  9 22  1  0
 10 23  1  0
 12 24  1  0
 12 25  1  0
 12 26  1  0
A    1
 C1 
A    2
 N1 
A    3
 C2 
A    4
 S1 
A    5
 N2 
A    6
 C3 
A    7
 C4 
A    8
 C5 
A    9
 C6 
A   10
 C7 
A   11
 C8 
A   12
 C9 
A   13
 N3 
A   14
 H1 
A   15
 H2 
A   16
 H3 
A   17
 H4 
A   18
 H5 
A   19
 H6 
A   20
 H7 
A   21
 H8 
A   22
 H9 
A   23
 H10
A   24
 H11
A   25
 H12
A   26
 H13
M  END
>  <ref_pdb>  (62) 
x0310_0A

>  <ref_mols>  (62) 
x0554_0A,x0739_0A

>  <original SMILES>  (62) 
CNC(=S)Nc1cc(C)cc(C)n1

>  <rationale>  (62) 
info halogenbond:C110+G127+D39+A86+E85+Q95+E106+E88+T126+P107+H104+Y64+C65+S87+N129+F83+R93+L131+I82+G128+P91+N19+H21+V84+G133+Y90+Y89+H97+L81+F134+L98+R20+G103+S66+S67+S7+G108+R38+V124+M99+S36; hbond:S87+S125+G127+Q95+A86+E85+G108+G103+G128+G130+L131+N129+N19+H104+R68+R93+P91+F83+S67+S7+S66+G112+V132+R20+Y89+S77+A135+Y63+A92+A101+M99+F134+L100+I82+Y64+S36+L98+V84+L81+Y94+S80+R38+S37+V102+G8+I123+G111+I113+L114+C65+L22+S96; hydroph_interaction:V124+L22+E85+E88+N129+D39+N19+L40+I123+A135+Q95+I82+L100+L98+L131+F83+R93+Y63+F134+H104+R20+A86+V74+P91+A101+F76+M99+L114+A92+Y94+R68+Y72+Y64+V18+V102+W28+G127+G128+L81; pication:H104+R93+Y63+F134+Y90+R68+F83+R20; pistack:H21+Y89+Y90+H104+F134+Y63+F83+Y94; saltbridge:R93+H104+E106+D109+E85+E88+R68+R20; 

>  <intxn_cluster>  (62) 
-1

>  <intxn_cluster_rank>  (62) 
-1

>  <N_interactions>  (62) 
5

>  <∆∆G>  (62) 
-11.516324

>  <$/mg>  (62) 
163.0

>  <comRMSD>  (62) 
0.795427

>  <N_rotatable_bonds>  (62) 
4

>  <deep_P1_sidechain>  (62) 
nan

>  <farthest_distance_to_substrate>  (62) 
2.365271

>  <hbond:SER:7>  (62) 
hbond:SER:7    NaN
hbond:SER:7     -1
Name: 61, dtype: object

>  <halogenbond:SER:7>  (62) 
halogenbond:SER:7    NaN
halogenbond:SER:7     -1
Name: 61, dtype: object

>  <hbond:GLY:8>  (62) 
hbond:GLY:8    NaN
hbond:GLY:8     -1
Name: 61, dtype: object

>  <hydroph_interaction:VAL:18>  (62) 
hydroph_interaction:VAL:18    NaN
hydroph_interaction:VAL:18     -1
Name: 61, dtype: object

>  <hbond:ASN:19>  (62) 
hbond:ASN:19    NaN
hbond:ASN:19     -1
Name: 61, dtype: object

>  <hydroph_interaction:ASN:19>  (62) 
hydroph_interaction:ASN:19    NaN
hydroph_interaction:ASN:19     -1
Name: 61, dtype: object

>  <halogenbond:ASN:19>  (62) 
halogenbond:ASN:19    NaN
halogenbond:ASN:19     -1
Name: 61, dtype: object

>  <hbond:ARG:20>  (62) 
hbond:ARG:20    NaN
hbond:ARG:20     -1
Name: 61, dtype: object

>  <hydroph_interaction:ARG:20>  (62) 
hydroph_interaction:ARG:20    NaN
hydroph_interaction:ARG:20     -1
Name: 61, dtype: object

>  <saltbridge:ARG:20>  (62) 
saltbridge:ARG:20    NaN
saltbridge:ARG:20     -1
Name: 61, dtype: object

>  <halogenbond:ARG:20>  (62) 
halogenbond:ARG:20    NaN
halogenbond:ARG:20     -1
Name: 61, dtype: object

>  <pication:ARG:20>  (62) 
pication:ARG:20    NaN
pication:ARG:20     -1
Name: 61, dtype: object

>  <hbond:HIS:21>  (62) 
hbond:HIS:21    0.0
hbond:HIS:21      0
Name: 61, dtype: object

>  <hydroph_interaction:HIS:21>  (62) 
hydroph_interaction:HIS:21    0.0
hydroph_interaction:HIS:21      0
Name: 61, dtype: object

>  <pistack:HIS:21>  (62) 
pistack:HIS:21    NaN
pistack:HIS:21     -1
Name: 61, dtype: object

>  <pication:HIS:21>  (62) 
pication:HIS:21    0.0
pication:HIS:21      0
Name: 61, dtype: object

>  <saltbridge:HIS:21>  (62) 
saltbridge:HIS:21    0.0
saltbridge:HIS:21      0
Name: 61, dtype: object

>  <halogenbond:HIS:21>  (62) 
halogenbond:HIS:21    NaN
halogenbond:HIS:21     -1
Name: 61, dtype: object

>  <hydroph_interaction:LEU:22>  (62) 
hydroph_interaction:LEU:22    NaN
hydroph_interaction:LEU:22     -1
Name: 61, dtype: object

>  <hbond:LEU:22>  (62) 
hbond:LEU:22    NaN
hbond:LEU:22     -1
Name: 61, dtype: object

>  <hydroph_interaction:TRP:28>  (62) 
hydroph_interaction:TRP:28    NaN
hydroph_interaction:TRP:28     -1
Name: 61, dtype: object

>  <hbond:SER:36>  (62) 
hbond:SER:36    NaN
hbond:SER:36     -1
Name: 61, dtype: object

>  <halogenbond:SER:36>  (62) 
halogenbond:SER:36    NaN
halogenbond:SER:36     -1
Name: 61, dtype: object

>  <hbond:SER:37>  (62) 
hbond:SER:37    NaN
hbond:SER:37     -1
Name: 61, dtype: object

>  <hbond:ARG:38>  (62) 
hbond:ARG:38    NaN
hbond:ARG:38     -1
Name: 61, dtype: object

>  <halogenbond:ARG:38>  (62) 
halogenbond:ARG:38    NaN
halogenbond:ARG:38     -1
Name: 61, dtype: object

>  <saltbridge:ASP:39>  (62) 
saltbridge:ASP:39    0.0
saltbridge:ASP:39      0
Name: 61, dtype: object

>  <halogenbond:ASP:39>  (62) 
halogenbond:ASP:39    NaN
halogenbond:ASP:39     -1
Name: 61, dtype: object

>  <hbond:ASP:39>  (62) 
hbond:ASP:39    0.0
hbond:ASP:39      0
Name: 61, dtype: object

>  <hydroph_interaction:ASP:39>  (62) 
hydroph_interaction:ASP:39    NaN
hydroph_interaction:ASP:39     -1
Name: 61, dtype: object

>  <hydroph_interaction:LEU:40>  (62) 
hydroph_interaction:LEU:40    NaN
hydroph_interaction:LEU:40     -1
Name: 61, dtype: object

>  <hydroph_interaction:TYR:63>  (62) 
hydroph_interaction:TYR:63    NaN
hydroph_interaction:TYR:63     -1
Name: 61, dtype: object

>  <hbond:TYR:63>  (62) 
hbond:TYR:63    NaN
hbond:TYR:63     -1
Name: 61, dtype: object

>  <pistack:TYR:63>  (62) 
pistack:TYR:63    NaN
pistack:TYR:63     -1
Name: 61, dtype: object

>  <pication:TYR:63>  (62) 
pication:TYR:63    NaN
pication:TYR:63     -1
Name: 61, dtype: object

>  <halogenbond:TYR:64>  (62) 
halogenbond:TYR:64    NaN
halogenbond:TYR:64     -1
Name: 61, dtype: object

>  <hbond:TYR:64>  (62) 
hbond:TYR:64    NaN
hbond:TYR:64     -1
Name: 61, dtype: object

>  <hydroph_interaction:TYR:64>  (62) 
hydroph_interaction:TYR:64    NaN
hydroph_interaction:TYR:64     -1
Name: 61, dtype: object

>  <halogenbond:CYS:65>  (62) 
halogenbond:CYS:65    NaN
halogenbond:CYS:65     -1
Name: 61, dtype: object

>  <hbond:CYS:65>  (62) 
hbond:CYS:65    NaN
hbond:CYS:65     -1
Name: 61, dtype: object

>  <hbond:SER:66>  (62) 
hbond:SER:66    NaN
hbond:SER:66     -1
Name: 61, dtype: object

>  <halogenbond:SER:66>  (62) 
halogenbond:SER:66    NaN
halogenbond:SER:66     -1
Name: 61, dtype: object

>  <hbond:SER:67>  (62) 
hbond:SER:67    NaN
hbond:SER:67     -1
Name: 61, dtype: object

>  <halogenbond:SER:67>  (62) 
halogenbond:SER:67    NaN
halogenbond:SER:67     -1
Name: 61, dtype: object

>  <hbond:ARG:68>  (62) 
hbond:ARG:68    NaN
hbond:ARG:68     -1
Name: 61, dtype: object

>  <saltbridge:ARG:68>  (62) 
saltbridge:ARG:68    NaN
saltbridge:ARG:68     -1
Name: 61, dtype: object

>  <hydroph_interaction:ARG:68>  (62) 
hydroph_interaction:ARG:68    NaN
hydroph_interaction:ARG:68     -1
Name: 61, dtype: object

>  <pication:ARG:68>  (62) 
pication:ARG:68    NaN
pication:ARG:68     -1
Name: 61, dtype: object

>  <hydroph_interaction:TYR:72>  (62) 
hydroph_interaction:TYR:72    NaN
hydroph_interaction:TYR:72     -1
Name: 61, dtype: object

>  <hydroph_interaction:VAL:74>  (62) 
hydroph_interaction:VAL:74    NaN
hydroph_interaction:VAL:74     -1
Name: 61, dtype: object

>  <hydroph_interaction:PHE:76>  (62) 
hydroph_interaction:PHE:76    NaN
hydroph_interaction:PHE:76     -1
Name: 61, dtype: object

>  <hbond:SER:77>  (62) 
hbond:SER:77    NaN
hbond:SER:77     -1
Name: 61, dtype: object

>  <hbond:SER:80>  (62) 
hbond:SER:80    NaN
hbond:SER:80     -1
Name: 61, dtype: object

>  <hbond:LEU:81>  (62) 
hbond:LEU:81    NaN
hbond:LEU:81     -1
Name: 61, dtype: object

>  <halogenbond:LEU:81>  (62) 
halogenbond:LEU:81    NaN
halogenbond:LEU:81     -1
Name: 61, dtype: object

>  <hydroph_interaction:LEU:81>  (62) 
hydroph_interaction:LEU:81    NaN
hydroph_interaction:LEU:81     -1
Name: 61, dtype: object

>  <hydroph_interaction:ILE:82>  (62) 
hydroph_interaction:ILE:82    NaN
hydroph_interaction:ILE:82     -1
Name: 61, dtype: object

>  <halogenbond:ILE:82>  (62) 
halogenbond:ILE:82    NaN
halogenbond:ILE:82     -1
Name: 61, dtype: object

>  <hbond:ILE:82>  (62) 
hbond:ILE:82    NaN
hbond:ILE:82     -1
Name: 61, dtype: object

>  <hbond:PHE:83>  (62) 
hbond:PHE:83    NaN
hbond:PHE:83     -1
Name: 61, dtype: object

>  <hydroph_interaction:PHE:83>  (62) 
hydroph_interaction:PHE:83    NaN
hydroph_interaction:PHE:83     -1
Name: 61, dtype: object

>  <halogenbond:PHE:83>  (62) 
halogenbond:PHE:83    NaN
halogenbond:PHE:83     -1
Name: 61, dtype: object

>  <pistack:PHE:83>  (62) 
pistack:PHE:83    NaN
pistack:PHE:83     -1
Name: 61, dtype: object

>  <pication:PHE:83>  (62) 
pication:PHE:83    NaN
pication:PHE:83     -1
Name: 61, dtype: object

>  <hydroph_interaction:VAL:84>  (62) 
hydroph_interaction:VAL:84    0.0
hydroph_interaction:VAL:84      0
Name: 61, dtype: object

>  <halogenbond:VAL:84>  (62) 
halogenbond:VAL:84    NaN
halogenbond:VAL:84     -1
Name: 61, dtype: object

>  <hbond:VAL:84>  (62) 
hbond:VAL:84    NaN
hbond:VAL:84     -1
Name: 61, dtype: object

>  <hydroph_interaction:GLU:85>  (62) 
hydroph_interaction:GLU:85    NaN
hydroph_interaction:GLU:85     -1
Name: 61, dtype: object

>  <hbond:GLU:85>  (62) 
hbond:GLU:85    NaN
hbond:GLU:85     -1
Name: 61, dtype: object

>  <halogenbond:GLU:85>  (62) 
halogenbond:GLU:85    NaN
halogenbond:GLU:85     -1
Name: 61, dtype: object

>  <saltbridge:GLU:85>  (62) 
saltbridge:GLU:85    NaN
saltbridge:GLU:85     -1
Name: 61, dtype: object

>  <halogenbond:ALA:86>  (62) 
halogenbond:ALA:86    NaN
halogenbond:ALA:86     -1
Name: 61, dtype: object

>  <hbond:ALA:86>  (62) 
hbond:ALA:86    NaN
hbond:ALA:86     -1
Name: 61, dtype: object

>  <hydroph_interaction:ALA:86>  (62) 
hydroph_interaction:ALA:86    NaN
hydroph_interaction:ALA:86     -1
Name: 61, dtype: object

>  <hbond:SER:87>  (62) 
hbond:SER:87    2
hbond:SER:87    2
Name: 61, dtype: object

>  <halogenbond:SER:87>  (62) 
halogenbond:SER:87    NaN
halogenbond:SER:87     -1
Name: 61, dtype: object

>  <hbond:GLU:88>  (62) 
hbond:GLU:88    0.0
hbond:GLU:88      0
Name: 61, dtype: object

>  <hydroph_interaction:GLU:88>  (62) 
hydroph_interaction:GLU:88    NaN
hydroph_interaction:GLU:88     -1
Name: 61, dtype: object

>  <halogenbond:GLU:88>  (62) 
halogenbond:GLU:88    NaN
halogenbond:GLU:88     -1
Name: 61, dtype: object

>  <saltbridge:GLU:88>  (62) 
saltbridge:GLU:88    NaN
saltbridge:GLU:88     -1
Name: 61, dtype: object

>  <hydroph_interaction:TYR:89>  (62) 
hydroph_interaction:TYR:89    0.0
hydroph_interaction:TYR:89      0
Name: 61, dtype: object

>  <pistack:TYR:89>  (62) 
pistack:TYR:89    NaN
pistack:TYR:89     -1
Name: 61, dtype: object

>  <hbond:TYR:89>  (62) 
hbond:TYR:89    NaN
hbond:TYR:89     -1
Name: 61, dtype: object

>  <halogenbond:TYR:89>  (62) 
halogenbond:TYR:89    NaN
halogenbond:TYR:89     -1
Name: 61, dtype: object

>  <hydroph_interaction:TYR:90>  (62) 
hydroph_interaction:TYR:90    0.0
hydroph_interaction:TYR:90      0
Name: 61, dtype: object

>  <hbond:TYR:90>  (62) 
hbond:TYR:90    0.0
hbond:TYR:90      0
Name: 61, dtype: object

>  <pistack:TYR:90>  (62) 
pistack:TYR:90    NaN
pistack:TYR:90     -1
Name: 61, dtype: object

>  <halogenbond:TYR:90>  (62) 
halogenbond:TYR:90    NaN
halogenbond:TYR:90     -1
Name: 61, dtype: object

>  <pication:TYR:90>  (62) 
pication:TYR:90    NaN
pication:TYR:90     -1
Name: 61, dtype: object

>  <hbond:PRO:91>  (62) 
hbond:PRO:91    NaN
hbond:PRO:91     -1
Name: 61, dtype: object

>  <hydroph_interaction:PRO:91>  (62) 
hydroph_interaction:PRO:91    NaN
hydroph_interaction:PRO:91     -1
Name: 61, dtype: object

>  <halogenbond:PRO:91>  (62) 
halogenbond:PRO:91    NaN
halogenbond:PRO:91     -1
Name: 61, dtype: object

>  <hbond:ALA:92>  (62) 
hbond:ALA:92    NaN
hbond:ALA:92     -1
Name: 61, dtype: object

>  <hydroph_interaction:ALA:92>  (62) 
hydroph_interaction:ALA:92    NaN
hydroph_interaction:ALA:92     -1
Name: 61, dtype: object

>  <saltbridge:ARG:93>  (62) 
saltbridge:ARG:93    NaN
saltbridge:ARG:93     -1
Name: 61, dtype: object

>  <hbond:ARG:93>  (62) 
hbond:ARG:93    NaN
hbond:ARG:93     -1
Name: 61, dtype: object

>  <hydroph_interaction:ARG:93>  (62) 
hydroph_interaction:ARG:93    NaN
hydroph_interaction:ARG:93     -1
Name: 61, dtype: object

>  <halogenbond:ARG:93>  (62) 
halogenbond:ARG:93    NaN
halogenbond:ARG:93     -1
Name: 61, dtype: object

>  <pication:ARG:93>  (62) 
pication:ARG:93    NaN
pication:ARG:93     -1
Name: 61, dtype: object

>  <hydroph_interaction:TYR:94>  (62) 
hydroph_interaction:TYR:94    NaN
hydroph_interaction:TYR:94     -1
Name: 61, dtype: object

>  <pistack:TYR:94>  (62) 
pistack:TYR:94    NaN
pistack:TYR:94     -1
Name: 61, dtype: object

>  <hbond:TYR:94>  (62) 
hbond:TYR:94    NaN
hbond:TYR:94     -1
Name: 61, dtype: object

>  <hbond:GLN:95>  (62) 
hbond:GLN:95    NaN
hbond:GLN:95     -1
Name: 61, dtype: object

>  <hydroph_interaction:GLN:95>  (62) 
hydroph_interaction:GLN:95    NaN
hydroph_interaction:GLN:95     -1
Name: 61, dtype: object

>  <halogenbond:GLN:95>  (62) 
halogenbond:GLN:95    NaN
halogenbond:GLN:95     -1
Name: 61, dtype: object

>  <hbond:SER:96>  (62) 
hbond:SER:96    NaN
hbond:SER:96     -1
Name: 61, dtype: object

>  <halogenbond:HIS:97>  (62) 
halogenbond:HIS:97    NaN
halogenbond:HIS:97     -1
Name: 61, dtype: object

>  <hydroph_interaction:LEU:98>  (62) 
hydroph_interaction:LEU:98    NaN
hydroph_interaction:LEU:98     -1
Name: 61, dtype: object

>  <hbond:LEU:98>  (62) 
hbond:LEU:98    NaN
hbond:LEU:98     -1
Name: 61, dtype: object

>  <halogenbond:LEU:98>  (62) 
halogenbond:LEU:98    NaN
halogenbond:LEU:98     -1
Name: 61, dtype: object

>  <hbond:MET:99>  (62) 
hbond:MET:99    NaN
hbond:MET:99     -1
Name: 61, dtype: object

>  <hydroph_interaction:MET:99>  (62) 
hydroph_interaction:MET:99    NaN
hydroph_interaction:MET:99     -1
Name: 61, dtype: object

>  <halogenbond:MET:99>  (62) 
halogenbond:MET:99    NaN
halogenbond:MET:99     -1
Name: 61, dtype: object

>  <hydroph_interaction:LEU:100>  (62) 
hydroph_interaction:LEU:100    NaN
hydroph_interaction:LEU:100     -1
Name: 61, dtype: object

>  <hbond:LEU:100>  (62) 
hbond:LEU:100    NaN
hbond:LEU:100     -1
Name: 61, dtype: object

>  <hbond:ALA:101>  (62) 
hbond:ALA:101    NaN
hbond:ALA:101     -1
Name: 61, dtype: object

>  <hydroph_interaction:ALA:101>  (62) 
hydroph_interaction:ALA:101    NaN
hydroph_interaction:ALA:101     -1
Name: 61, dtype: object

>  <hydroph_interaction:VAL:102>  (62) 
hydroph_interaction:VAL:102    NaN
hydroph_interaction:VAL:102     -1
Name: 61, dtype: object

>  <hbond:VAL:102>  (62) 
hbond:VAL:102    NaN
hbond:VAL:102     -1
Name: 61, dtype: object

>  <hbond:GLY:103>  (62) 
hbond:GLY:103    NaN
hbond:GLY:103     -1
Name: 61, dtype: object

>  <halogenbond:GLY:103>  (62) 
halogenbond:GLY:103    NaN
halogenbond:GLY:103     -1
Name: 61, dtype: object

>  <hbond:HIS:104>  (62) 
hbond:HIS:104    NaN
hbond:HIS:104     -1
Name: 61, dtype: object

>  <saltbridge:HIS:104>  (62) 
saltbridge:HIS:104    NaN
saltbridge:HIS:104     -1
Name: 61, dtype: object

>  <pication:HIS:104>  (62) 
pication:HIS:104    NaN
pication:HIS:104     -1
Name: 61, dtype: object

>  <halogenbond:HIS:104>  (62) 
halogenbond:HIS:104    NaN
halogenbond:HIS:104     -1
Name: 61, dtype: object

>  <hydroph_interaction:HIS:104>  (62) 
hydroph_interaction:HIS:104    NaN
hydroph_interaction:HIS:104     -1
Name: 61, dtype: object

>  <pistack:HIS:104>  (62) 
pistack:HIS:104    NaN
pistack:HIS:104     -1
Name: 61, dtype: object

>  <halogenbond:SER:105>  (62) 
halogenbond:SER:105    0.0
halogenbond:SER:105      0
Name: 61, dtype: object

>  <hbond:SER:105>  (62) 
hbond:SER:105    0.0
hbond:SER:105      0
Name: 61, dtype: object

>  <hbond:GLU:106>  (62) 
hbond:GLU:106    0.0
hbond:GLU:106      0
Name: 61, dtype: object

>  <hydroph_interaction:GLU:106>  (62) 
hydroph_interaction:GLU:106    0.0
hydroph_interaction:GLU:106      0
Name: 61, dtype: object

>  <saltbridge:GLU:106>  (62) 
saltbridge:GLU:106    NaN
saltbridge:GLU:106     -1
Name: 61, dtype: object

>  <halogenbond:GLU:106>  (62) 
halogenbond:GLU:106    NaN
halogenbond:GLU:106     -1
Name: 61, dtype: object

>  <hydroph_interaction:PRO:107>  (62) 
hydroph_interaction:PRO:107    0
hydroph_interaction:PRO:107    0
Name: 61, dtype: object

>  <hbond:PRO:107>  (62) 
hbond:PRO:107    0.0
hbond:PRO:107      0
Name: 61, dtype: object

>  <halogenbond:PRO:107>  (62) 
halogenbond:PRO:107    NaN
halogenbond:PRO:107     -1
Name: 61, dtype: object

>  <hbond:GLY:108>  (62) 
hbond:GLY:108    NaN
hbond:GLY:108     -1
Name: 61, dtype: object

>  <halogenbond:GLY:108>  (62) 
halogenbond:GLY:108    NaN
halogenbond:GLY:108     -1
Name: 61, dtype: object

>  <hbond:ASP:109>  (62) 
hbond:ASP:109    0.0
hbond:ASP:109      0
Name: 61, dtype: object

>  <hydroph_interaction:ASP:109>  (62) 
hydroph_interaction:ASP:109    0.0
hydroph_interaction:ASP:109      0
Name: 61, dtype: object

>  <saltbridge:ASP:109>  (62) 
saltbridge:ASP:109    NaN
saltbridge:ASP:109     -1
Name: 61, dtype: object

>  <halogenbond:CYS:110>  (62) 
halogenbond:CYS:110    NaN
halogenbond:CYS:110     -1
Name: 61, dtype: object

>  <hbond:CYS:110>  (62) 
hbond:CYS:110    0.0
hbond:CYS:110      0
Name: 61, dtype: object

>  <hbond:GLY:111>  (62) 
hbond:GLY:111    NaN
hbond:GLY:111     -1
Name: 61, dtype: object

>  <hbond:GLY:112>  (62) 
hbond:GLY:112    NaN
hbond:GLY:112     -1
Name: 61, dtype: object

>  <hbond:ILE:113>  (62) 
hbond:ILE:113    NaN
hbond:ILE:113     -1
Name: 61, dtype: object

>  <hydroph_interaction:LEU:114>  (62) 
hydroph_interaction:LEU:114    NaN
hydroph_interaction:LEU:114     -1
Name: 61, dtype: object

>  <hbond:LEU:114>  (62) 
hbond:LEU:114    NaN
hbond:LEU:114     -1
Name: 61, dtype: object

>  <hydroph_interaction:ILE:123>  (62) 
hydroph_interaction:ILE:123    NaN
hydroph_interaction:ILE:123     -1
Name: 61, dtype: object

>  <hbond:ILE:123>  (62) 
hbond:ILE:123    NaN
hbond:ILE:123     -1
Name: 61, dtype: object

>  <hydroph_interaction:VAL:124>  (62) 
hydroph_interaction:VAL:124    1.0
hydroph_interaction:VAL:124      1
Name: 61, dtype: object

>  <hbond:VAL:124>  (62) 
hbond:VAL:124    0.0
hbond:VAL:124      0
Name: 61, dtype: object

>  <halogenbond:VAL:124>  (62) 
halogenbond:VAL:124    NaN
halogenbond:VAL:124     -1
Name: 61, dtype: object

>  <hbond:SER:125>  (62) 
hbond:SER:125    1
hbond:SER:125    1
Name: 61, dtype: object

>  <halogenbond:SER:125>  (62) 
halogenbond:SER:125    0.0
halogenbond:SER:125      0
Name: 61, dtype: object

>  <hydroph_interaction:THR:126>  (62) 
hydroph_interaction:THR:126    0.0
hydroph_interaction:THR:126      0
Name: 61, dtype: object

>  <hbond:THR:126>  (62) 
hbond:THR:126    0.0
hbond:THR:126      0
Name: 61, dtype: object

>  <halogenbond:THR:126>  (62) 
halogenbond:THR:126    NaN
halogenbond:THR:126     -1
Name: 61, dtype: object

>  <hbond:GLY:127>  (62) 
hbond:GLY:127    1
hbond:GLY:127    1
Name: 61, dtype: object

>  <halogenbond:GLY:127>  (62) 
halogenbond:GLY:127    NaN
halogenbond:GLY:127     -1
Name: 61, dtype: object

>  <hydroph_interaction:GLY:127>  (62) 
hydroph_interaction:GLY:127    NaN
hydroph_interaction:GLY:127     -1
Name: 61, dtype: object

>  <hbond:GLY:128>  (62) 
hbond:GLY:128    NaN
hbond:GLY:128     -1
Name: 61, dtype: object

>  <halogenbond:GLY:128>  (62) 
halogenbond:GLY:128    NaN
halogenbond:GLY:128     -1
Name: 61, dtype: object

>  <hydroph_interaction:GLY:128>  (62) 
hydroph_interaction:GLY:128    NaN
hydroph_interaction:GLY:128     -1
Name: 61, dtype: object

>  <hbond:ASN:129>  (62) 
hbond:ASN:129    NaN
hbond:ASN:129     -1
Name: 61, dtype: object

>  <hydroph_interaction:ASN:129>  (62) 
hydroph_interaction:ASN:129    NaN
hydroph_interaction:ASN:129     -1
Name: 61, dtype: object

>  <halogenbond:ASN:129>  (62) 
halogenbond:ASN:129    NaN
halogenbond:ASN:129     -1
Name: 61, dtype: object

>  <hbond:GLY:130>  (62) 
hbond:GLY:130    NaN
hbond:GLY:130     -1
Name: 61, dtype: object

>  <hbond:LEU:131>  (62) 
hbond:LEU:131    NaN
hbond:LEU:131     -1
Name: 61, dtype: object

>  <hydroph_interaction:LEU:131>  (62) 
hydroph_interaction:LEU:131    NaN
hydroph_interaction:LEU:131     -1
Name: 61, dtype: object

>  <halogenbond:LEU:131>  (62) 
halogenbond:LEU:131    NaN
halogenbond:LEU:131     -1
Name: 61, dtype: object

>  <hydroph_interaction:VAL:132>  (62) 
hydroph_interaction:VAL:132    0.0
hydroph_interaction:VAL:132      0
Name: 61, dtype: object

>  <hbond:VAL:132>  (62) 
hbond:VAL:132    NaN
hbond:VAL:132     -1
Name: 61, dtype: object

>  <hbond:GLY:133>  (62) 
hbond:GLY:133    0.0
hbond:GLY:133      0
Name: 61, dtype: object

>  <halogenbond:GLY:133>  (62) 
halogenbond:GLY:133    NaN
halogenbond:GLY:133     -1
Name: 61, dtype: object

>  <hydroph_interaction:PHE:134>  (62) 
hydroph_interaction:PHE:134    NaN
hydroph_interaction:PHE:134     -1
Name: 61, dtype: object

>  <hbond:PHE:134>  (62) 
hbond:PHE:134    NaN
hbond:PHE:134     -1
Name: 61, dtype: object

>  <pistack:PHE:134>  (62) 
pistack:PHE:134    NaN
pistack:PHE:134     -1
Name: 61, dtype: object

>  <pication:PHE:134>  (62) 
pication:PHE:134    NaN
pication:PHE:134     -1
Name: 61, dtype: object

>  <halogenbond:PHE:134>  (62) 
halogenbond:PHE:134    NaN
halogenbond:PHE:134     -1
Name: 61, dtype: object

>  <hydroph_interaction:ALA:135>  (62) 
hydroph_interaction:ALA:135    NaN
hydroph_interaction:ALA:135     -1
Name: 61, dtype: object

>  <hbond:ALA:135>  (62) 
hbond:ALA:135    NaN
hbond:ALA:135     -1
Name: 61, dtype: object

$$$$
Z1462143294
     RDKit          3D

 24 24  0  0  0  0  0  0  0  0999 V2000
   10.6740   15.1730   25.6390 C   0  0  0  0  0  0  0  0  0  0  0  0
   11.6340   15.1510   24.5690 N   0  0  0  0  0  0  0  0  0  0  0  0
   11.2870   14.5470   23.3630 C   0  0  0  0  0  0  0  0  0  0  0  0
   12.2920   14.5170   22.0390 S   0  0  0  0  0  0  0  0  0  0  0  0
   10.0070   13.9990   23.4260 N   0  0  0  0  0  0  0  0  0  0  0  0
    9.6000   12.6610   23.5570 C   0  0  0  0  0  0  0  0  0  0  0  0
    8.5480   12.4400   24.4320 C   0  0  0  0  0  0  0  0  0  0  0  0
    8.0470   11.0830   24.6680 C   0  0  0  0  0  0  0  0  0  0  0  0
    6.9880   10.8720   25.5500 C   0  0  0  0  0  0  0  0  0  0  0  0
    8.6590   10.0330   23.9880 C   0  0  0  0  0  0  0  0  0  0  0  0
    9.7070   10.2780   23.1030 C   0  0  0  0  0  0  0  0  0  0  0  0
   10.2670    9.2480   22.4550 F   0  0  0  0  0  0  0  0  0  0  0  0
   10.1770   11.5710   22.8850 C   0  0  0  0  0  0  0  0  0  0  0  0
   11.1480   14.9600   26.6020 H   0  0  0  0  0  0  0  0  0  0  0  0
   10.1670   16.1260   25.6800 H   0  0  0  0  0  0  0  0  0  0  0  0
    9.9050   14.4220   25.4390 H   0  0  0  0  0  0  0  0  0  0  0  0
   12.3140   15.9270   24.5580 H   0  0  0  0  0  0  0  0  0  0  0  0
    9.2750   14.6650   23.1440 H   0  0  0  0  0  0  0  0  0  0  0  0
    8.0860   13.2730   24.9550 H   0  0  0  0  0  0  0  0  0  0  0  0
    7.1860   10.8230   26.6100 H   0  0  0  0  0  0  0  0  0  0  0  0
    6.2580   11.6650   25.4030 H   0  0  0  0  0  0  0  0  0  0  0  0
    6.5020    9.9270   25.3060 H   0  0  0  0  0  0  0  0  0  0  0  0
    8.3270    9.0080   24.1300 H   0  0  0  0  0  0  0  0  0  0  0  0
   10.9900   11.6910   22.1950 H   0  0  0  0  0  0  0  0  0  0  0  0
  1  2  1  0
  2  3  1  0
  3  4  2  0
  3  5  1  0
  5  6  1  0
  6  7  2  0
  7  8  1  0
  8  9  1  0
  8 10  2  0
 10 11  1  0
 11 12  1  0
 11 13  2  0
 13  6  1  0
  1 14  1  0
  1 15  1  0
  1 16  1  0
  2 17  1  0
  5 18  1  0
  7 19  1  0
  9 20  1  0
  9 21  1  0
  9 22  1  0
 10 23  1  0
 13 24  1  0
A    1
 C1 
A    2
 N1 
A    3
 C2 
A    4
 S1 
A    5
 N2 
A    6
 C3 
A    7
 C4 
A    8
 C5 
A    9
 C6 
A   10
 C7 
A   11
 C8 
A   12
 F1 
A   13
 C9 
A   14
 H1 
A   15
 H2 
A   16
 H3 
A   17
 H4 
A   18
 H5 
A   19
 H6 
A   20
 H7 
A   21
 H8 
A   22
 H9 
A   23
 H10
A   24
 H11
M  END
>  <ref_pdb>  (63) 
x0310_0A

>  <ref_mols>  (63) 
x0451_0A,x0739_0A

>  <original SMILES>  (63) 
CNC(=S)Nc1cc(C)cc(F)c1

>  <rationale>  (63) 
info halogenbond:G127+D39+E85+Q95+E106+E88+T126+P107+H104+Y64+C65+S87+N129+F83+R93+L131+I82+G128+P91+N19+H21+V84+G133+Y90+Y89+H97+L81+F134+L98+R20+G103+S66+S67+S7+G108+R38+V124+M99+S36; hbond:S87+E88+Q95+D39+A86+E85+G108+G103+G128+G130+L131+N129+N19+H104+R68+R93+P91+F83+S67+S7+S66+G112+G133+V132+R20+Y89+S77+A135+Y63+A92+A101+M99+F134+L100+I82+Y64+S36+L98+V84+L81+Y94+S80+R38+S37+V102+G8+I123+G111+I113+L114+C65+L22+S96; hydroph_interaction:H21+P107+L22+E85+E106+N129+D39+N19+L40+I123+A135+Q95+I82+L100+L98+L131+F83+R93+V132+Y63+F134+H104+R20+A86+V74+P91+A101+F76+M99+L114+A92+Y94+R68+Y72+Y64+V18+V102+W28+G127+G128+L81; pication:H21+H104+R93+Y63+F134+Y90+R68+F83+R20; pistack:H21+Y89+Y90+H104+F134+Y63+F83+Y94; saltbridge:D39+R93+H104+E106+D109+E85+E88+R68+R20; 

>  <intxn_cluster>  (63) 
-1

>  <intxn_cluster_rank>  (63) 
-1

>  <N_interactions>  (63) 
5

>  <∆∆G>  (63) 
-7.783468

>  <$/mg>  (63) 
163.0

>  <comRMSD>  (63) 
0.794548

>  <N_rotatable_bonds>  (63) 
3

>  <deep_P1_sidechain>  (63) 
nan

>  <farthest_distance_to_substrate>  (63) 
2.605786

>  <hbond:SER:7>  (63) 
hbond:SER:7    NaN
hbond:SER:7     -1
Name: 62, dtype: object

>  <halogenbond:SER:7>  (63) 
halogenbond:SER:7    NaN
halogenbond:SER:7     -1
Name: 62, dtype: object

>  <hbond:GLY:8>  (63) 
hbond:GLY:8    NaN
hbond:GLY:8     -1
Name: 62, dtype: object

>  <hydroph_interaction:VAL:18>  (63) 
hydroph_interaction:VAL:18    NaN
hydroph_interaction:VAL:18     -1
Name: 62, dtype: object

>  <hbond:ASN:19>  (63) 
hbond:ASN:19    NaN
hbond:ASN:19     -1
Name: 62, dtype: object

>  <hydroph_interaction:ASN:19>  (63) 
hydroph_interaction:ASN:19    NaN
hydroph_interaction:ASN:19     -1
Name: 62, dtype: object

>  <halogenbond:ASN:19>  (63) 
halogenbond:ASN:19    NaN
halogenbond:ASN:19     -1
Name: 62, dtype: object

>  <hbond:ARG:20>  (63) 
hbond:ARG:20    NaN
hbond:ARG:20     -1
Name: 62, dtype: object

>  <hydroph_interaction:ARG:20>  (63) 
hydroph_interaction:ARG:20    NaN
hydroph_interaction:ARG:20     -1
Name: 62, dtype: object

>  <saltbridge:ARG:20>  (63) 
saltbridge:ARG:20    NaN
saltbridge:ARG:20     -1
Name: 62, dtype: object

>  <halogenbond:ARG:20>  (63) 
halogenbond:ARG:20    NaN
halogenbond:ARG:20     -1
Name: 62, dtype: object

>  <pication:ARG:20>  (63) 
pication:ARG:20    NaN
pication:ARG:20     -1
Name: 62, dtype: object

>  <hbond:HIS:21>  (63) 
hbond:HIS:21    0.0
hbond:HIS:21      0
Name: 62, dtype: object

>  <hydroph_interaction:HIS:21>  (63) 
hydroph_interaction:HIS:21    NaN
hydroph_interaction:HIS:21     -1
Name: 62, dtype: object

>  <pistack:HIS:21>  (63) 
pistack:HIS:21    NaN
pistack:HIS:21     -1
Name: 62, dtype: object

>  <pication:HIS:21>  (63) 
pication:HIS:21    NaN
pication:HIS:21     -1
Name: 62, dtype: object

>  <saltbridge:HIS:21>  (63) 
saltbridge:HIS:21    0.0
saltbridge:HIS:21      0
Name: 62, dtype: object

>  <halogenbond:HIS:21>  (63) 
halogenbond:HIS:21    NaN
halogenbond:HIS:21     -1
Name: 62, dtype: object

>  <hydroph_interaction:LEU:22>  (63) 
hydroph_interaction:LEU:22    NaN
hydroph_interaction:LEU:22     -1
Name: 62, dtype: object

>  <hbond:LEU:22>  (63) 
hbond:LEU:22    NaN
hbond:LEU:22     -1
Name: 62, dtype: object

>  <hydroph_interaction:TRP:28>  (63) 
hydroph_interaction:TRP:28    NaN
hydroph_interaction:TRP:28     -1
Name: 62, dtype: object

>  <hbond:SER:36>  (63) 
hbond:SER:36    NaN
hbond:SER:36     -1
Name: 62, dtype: object

>  <halogenbond:SER:36>  (63) 
halogenbond:SER:36    NaN
halogenbond:SER:36     -1
Name: 62, dtype: object

>  <hbond:SER:37>  (63) 
hbond:SER:37    NaN
hbond:SER:37     -1
Name: 62, dtype: object

>  <hbond:ARG:38>  (63) 
hbond:ARG:38    NaN
hbond:ARG:38     -1
Name: 62, dtype: object

>  <halogenbond:ARG:38>  (63) 
halogenbond:ARG:38    NaN
halogenbond:ARG:38     -1
Name: 62, dtype: object

>  <saltbridge:ASP:39>  (63) 
saltbridge:ASP:39    NaN
saltbridge:ASP:39     -1
Name: 62, dtype: object

>  <halogenbond:ASP:39>  (63) 
halogenbond:ASP:39    NaN
halogenbond:ASP:39     -1
Name: 62, dtype: object

>  <hbond:ASP:39>  (63) 
hbond:ASP:39    NaN
hbond:ASP:39     -1
Name: 62, dtype: object

>  <hydroph_interaction:ASP:39>  (63) 
hydroph_interaction:ASP:39    NaN
hydroph_interaction:ASP:39     -1
Name: 62, dtype: object

>  <hydroph_interaction:LEU:40>  (63) 
hydroph_interaction:LEU:40    NaN
hydroph_interaction:LEU:40     -1
Name: 62, dtype: object

>  <hydroph_interaction:TYR:63>  (63) 
hydroph_interaction:TYR:63    NaN
hydroph_interaction:TYR:63     -1
Name: 62, dtype: object

>  <hbond:TYR:63>  (63) 
hbond:TYR:63    NaN
hbond:TYR:63     -1
Name: 62, dtype: object

>  <pistack:TYR:63>  (63) 
pistack:TYR:63    NaN
pistack:TYR:63     -1
Name: 62, dtype: object

>  <pication:TYR:63>  (63) 
pication:TYR:63    NaN
pication:TYR:63     -1
Name: 62, dtype: object

>  <halogenbond:TYR:64>  (63) 
halogenbond:TYR:64    NaN
halogenbond:TYR:64     -1
Name: 62, dtype: object

>  <hbond:TYR:64>  (63) 
hbond:TYR:64    NaN
hbond:TYR:64     -1
Name: 62, dtype: object

>  <hydroph_interaction:TYR:64>  (63) 
hydroph_interaction:TYR:64    NaN
hydroph_interaction:TYR:64     -1
Name: 62, dtype: object

>  <halogenbond:CYS:65>  (63) 
halogenbond:CYS:65    NaN
halogenbond:CYS:65     -1
Name: 62, dtype: object

>  <hbond:CYS:65>  (63) 
hbond:CYS:65    NaN
hbond:CYS:65     -1
Name: 62, dtype: object

>  <hbond:SER:66>  (63) 
hbond:SER:66    NaN
hbond:SER:66     -1
Name: 62, dtype: object

>  <halogenbond:SER:66>  (63) 
halogenbond:SER:66    NaN
halogenbond:SER:66     -1
Name: 62, dtype: object

>  <hbond:SER:67>  (63) 
hbond:SER:67    NaN
hbond:SER:67     -1
Name: 62, dtype: object

>  <halogenbond:SER:67>  (63) 
halogenbond:SER:67    NaN
halogenbond:SER:67     -1
Name: 62, dtype: object

>  <hbond:ARG:68>  (63) 
hbond:ARG:68    NaN
hbond:ARG:68     -1
Name: 62, dtype: object

>  <saltbridge:ARG:68>  (63) 
saltbridge:ARG:68    NaN
saltbridge:ARG:68     -1
Name: 62, dtype: object

>  <hydroph_interaction:ARG:68>  (63) 
hydroph_interaction:ARG:68    NaN
hydroph_interaction:ARG:68     -1
Name: 62, dtype: object

>  <pication:ARG:68>  (63) 
pication:ARG:68    NaN
pication:ARG:68     -1
Name: 62, dtype: object

>  <hydroph_interaction:TYR:72>  (63) 
hydroph_interaction:TYR:72    NaN
hydroph_interaction:TYR:72     -1
Name: 62, dtype: object

>  <hydroph_interaction:VAL:74>  (63) 
hydroph_interaction:VAL:74    NaN
hydroph_interaction:VAL:74     -1
Name: 62, dtype: object

>  <hydroph_interaction:PHE:76>  (63) 
hydroph_interaction:PHE:76    NaN
hydroph_interaction:PHE:76     -1
Name: 62, dtype: object

>  <hbond:SER:77>  (63) 
hbond:SER:77    NaN
hbond:SER:77     -1
Name: 62, dtype: object

>  <hbond:SER:80>  (63) 
hbond:SER:80    NaN
hbond:SER:80     -1
Name: 62, dtype: object

>  <hbond:LEU:81>  (63) 
hbond:LEU:81    NaN
hbond:LEU:81     -1
Name: 62, dtype: object

>  <halogenbond:LEU:81>  (63) 
halogenbond:LEU:81    NaN
halogenbond:LEU:81     -1
Name: 62, dtype: object

>  <hydroph_interaction:LEU:81>  (63) 
hydroph_interaction:LEU:81    NaN
hydroph_interaction:LEU:81     -1
Name: 62, dtype: object

>  <hydroph_interaction:ILE:82>  (63) 
hydroph_interaction:ILE:82    NaN
hydroph_interaction:ILE:82     -1
Name: 62, dtype: object

>  <halogenbond:ILE:82>  (63) 
halogenbond:ILE:82    NaN
halogenbond:ILE:82     -1
Name: 62, dtype: object

>  <hbond:ILE:82>  (63) 
hbond:ILE:82    NaN
hbond:ILE:82     -1
Name: 62, dtype: object

>  <hbond:PHE:83>  (63) 
hbond:PHE:83    NaN
hbond:PHE:83     -1
Name: 62, dtype: object

>  <hydroph_interaction:PHE:83>  (63) 
hydroph_interaction:PHE:83    NaN
hydroph_interaction:PHE:83     -1
Name: 62, dtype: object

>  <halogenbond:PHE:83>  (63) 
halogenbond:PHE:83    NaN
halogenbond:PHE:83     -1
Name: 62, dtype: object

>  <pistack:PHE:83>  (63) 
pistack:PHE:83    NaN
pistack:PHE:83     -1
Name: 62, dtype: object

>  <pication:PHE:83>  (63) 
pication:PHE:83    NaN
pication:PHE:83     -1
Name: 62, dtype: object

>  <hydroph_interaction:VAL:84>  (63) 
hydroph_interaction:VAL:84    0.0
hydroph_interaction:VAL:84      0
Name: 62, dtype: object

>  <halogenbond:VAL:84>  (63) 
halogenbond:VAL:84    NaN
halogenbond:VAL:84     -1
Name: 62, dtype: object

>  <hbond:VAL:84>  (63) 
hbond:VAL:84    NaN
hbond:VAL:84     -1
Name: 62, dtype: object

>  <hydroph_interaction:GLU:85>  (63) 
hydroph_interaction:GLU:85    NaN
hydroph_interaction:GLU:85     -1
Name: 62, dtype: object

>  <hbond:GLU:85>  (63) 
hbond:GLU:85    NaN
hbond:GLU:85     -1
Name: 62, dtype: object

>  <halogenbond:GLU:85>  (63) 
halogenbond:GLU:85    NaN
halogenbond:GLU:85     -1
Name: 62, dtype: object

>  <saltbridge:GLU:85>  (63) 
saltbridge:GLU:85    NaN
saltbridge:GLU:85     -1
Name: 62, dtype: object

>  <halogenbond:ALA:86>  (63) 
halogenbond:ALA:86    0.0
halogenbond:ALA:86      0
Name: 62, dtype: object

>  <hbond:ALA:86>  (63) 
hbond:ALA:86    NaN
hbond:ALA:86     -1
Name: 62, dtype: object

>  <hydroph_interaction:ALA:86>  (63) 
hydroph_interaction:ALA:86    NaN
hydroph_interaction:ALA:86     -1
Name: 62, dtype: object

>  <hbond:SER:87>  (63) 
hbond:SER:87    2
hbond:SER:87    2
Name: 62, dtype: object

>  <halogenbond:SER:87>  (63) 
halogenbond:SER:87    NaN
halogenbond:SER:87     -1
Name: 62, dtype: object

>  <hbond:GLU:88>  (63) 
hbond:GLU:88    2.0
hbond:GLU:88      2
Name: 62, dtype: object

>  <hydroph_interaction:GLU:88>  (63) 
hydroph_interaction:GLU:88    0.0
hydroph_interaction:GLU:88      0
Name: 62, dtype: object

>  <halogenbond:GLU:88>  (63) 
halogenbond:GLU:88    NaN
halogenbond:GLU:88     -1
Name: 62, dtype: object

>  <saltbridge:GLU:88>  (63) 
saltbridge:GLU:88    NaN
saltbridge:GLU:88     -1
Name: 62, dtype: object

>  <hydroph_interaction:TYR:89>  (63) 
hydroph_interaction:TYR:89    0.0
hydroph_interaction:TYR:89      0
Name: 62, dtype: object

>  <pistack:TYR:89>  (63) 
pistack:TYR:89    NaN
pistack:TYR:89     -1
Name: 62, dtype: object

>  <hbond:TYR:89>  (63) 
hbond:TYR:89    NaN
hbond:TYR:89     -1
Name: 62, dtype: object

>  <halogenbond:TYR:89>  (63) 
halogenbond:TYR:89    NaN
halogenbond:TYR:89     -1
Name: 62, dtype: object

>  <hydroph_interaction:TYR:90>  (63) 
hydroph_interaction:TYR:90    0.0
hydroph_interaction:TYR:90      0
Name: 62, dtype: object

>  <hbond:TYR:90>  (63) 
hbond:TYR:90    0.0
hbond:TYR:90      0
Name: 62, dtype: object

>  <pistack:TYR:90>  (63) 
pistack:TYR:90    NaN
pistack:TYR:90     -1
Name: 62, dtype: object

>  <halogenbond:TYR:90>  (63) 
halogenbond:TYR:90    NaN
halogenbond:TYR:90     -1
Name: 62, dtype: object

>  <pication:TYR:90>  (63) 
pication:TYR:90    NaN
pication:TYR:90     -1
Name: 62, dtype: object

>  <hbond:PRO:91>  (63) 
hbond:PRO:91    NaN
hbond:PRO:91     -1
Name: 62, dtype: object

>  <hydroph_interaction:PRO:91>  (63) 
hydroph_interaction:PRO:91    NaN
hydroph_interaction:PRO:91     -1
Name: 62, dtype: object

>  <halogenbond:PRO:91>  (63) 
halogenbond:PRO:91    NaN
halogenbond:PRO:91     -1
Name: 62, dtype: object

>  <hbond:ALA:92>  (63) 
hbond:ALA:92    NaN
hbond:ALA:92     -1
Name: 62, dtype: object

>  <hydroph_interaction:ALA:92>  (63) 
hydroph_interaction:ALA:92    NaN
hydroph_interaction:ALA:92     -1
Name: 62, dtype: object

>  <saltbridge:ARG:93>  (63) 
saltbridge:ARG:93    NaN
saltbridge:ARG:93     -1
Name: 62, dtype: object

>  <hbond:ARG:93>  (63) 
hbond:ARG:93    NaN
hbond:ARG:93     -1
Name: 62, dtype: object

>  <hydroph_interaction:ARG:93>  (63) 
hydroph_interaction:ARG:93    NaN
hydroph_interaction:ARG:93     -1
Name: 62, dtype: object

>  <halogenbond:ARG:93>  (63) 
halogenbond:ARG:93    NaN
halogenbond:ARG:93     -1
Name: 62, dtype: object

>  <pication:ARG:93>  (63) 
pication:ARG:93    NaN
pication:ARG:93     -1
Name: 62, dtype: object

>  <hydroph_interaction:TYR:94>  (63) 
hydroph_interaction:TYR:94    NaN
hydroph_interaction:TYR:94     -1
Name: 62, dtype: object

>  <pistack:TYR:94>  (63) 
pistack:TYR:94    NaN
pistack:TYR:94     -1
Name: 62, dtype: object

>  <hbond:TYR:94>  (63) 
hbond:TYR:94    NaN
hbond:TYR:94     -1
Name: 62, dtype: object

>  <hbond:GLN:95>  (63) 
hbond:GLN:95    NaN
hbond:GLN:95     -1
Name: 62, dtype: object

>  <hydroph_interaction:GLN:95>  (63) 
hydroph_interaction:GLN:95    NaN
hydroph_interaction:GLN:95     -1
Name: 62, dtype: object

>  <halogenbond:GLN:95>  (63) 
halogenbond:GLN:95    NaN
halogenbond:GLN:95     -1
Name: 62, dtype: object

>  <hbond:SER:96>  (63) 
hbond:SER:96    NaN
hbond:SER:96     -1
Name: 62, dtype: object

>  <halogenbond:HIS:97>  (63) 
halogenbond:HIS:97    NaN
halogenbond:HIS:97     -1
Name: 62, dtype: object

>  <hydroph_interaction:LEU:98>  (63) 
hydroph_interaction:LEU:98    NaN
hydroph_interaction:LEU:98     -1
Name: 62, dtype: object

>  <hbond:LEU:98>  (63) 
hbond:LEU:98    NaN
hbond:LEU:98     -1
Name: 62, dtype: object

>  <halogenbond:LEU:98>  (63) 
halogenbond:LEU:98    NaN
halogenbond:LEU:98     -1
Name: 62, dtype: object

>  <hbond:MET:99>  (63) 
hbond:MET:99    NaN
hbond:MET:99     -1
Name: 62, dtype: object

>  <hydroph_interaction:MET:99>  (63) 
hydroph_interaction:MET:99    NaN
hydroph_interaction:MET:99     -1
Name: 62, dtype: object

>  <halogenbond:MET:99>  (63) 
halogenbond:MET:99    NaN
halogenbond:MET:99     -1
Name: 62, dtype: object

>  <hydroph_interaction:LEU:100>  (63) 
hydroph_interaction:LEU:100    NaN
hydroph_interaction:LEU:100     -1
Name: 62, dtype: object

>  <hbond:LEU:100>  (63) 
hbond:LEU:100    NaN
hbond:LEU:100     -1
Name: 62, dtype: object

>  <hbond:ALA:101>  (63) 
hbond:ALA:101    NaN
hbond:ALA:101     -1
Name: 62, dtype: object

>  <hydroph_interaction:ALA:101>  (63) 
hydroph_interaction:ALA:101    NaN
hydroph_interaction:ALA:101     -1
Name: 62, dtype: object

>  <hydroph_interaction:VAL:102>  (63) 
hydroph_interaction:VAL:102    NaN
hydroph_interaction:VAL:102     -1
Name: 62, dtype: object

>  <hbond:VAL:102>  (63) 
hbond:VAL:102    NaN
hbond:VAL:102     -1
Name: 62, dtype: object

>  <hbond:GLY:103>  (63) 
hbond:GLY:103    NaN
hbond:GLY:103     -1
Name: 62, dtype: object

>  <halogenbond:GLY:103>  (63) 
halogenbond:GLY:103    NaN
halogenbond:GLY:103     -1
Name: 62, dtype: object

>  <hbond:HIS:104>  (63) 
hbond:HIS:104    NaN
hbond:HIS:104     -1
Name: 62, dtype: object

>  <saltbridge:HIS:104>  (63) 
saltbridge:HIS:104    NaN
saltbridge:HIS:104     -1
Name: 62, dtype: object

>  <pication:HIS:104>  (63) 
pication:HIS:104    NaN
pication:HIS:104     -1
Name: 62, dtype: object

>  <halogenbond:HIS:104>  (63) 
halogenbond:HIS:104    NaN
halogenbond:HIS:104     -1
Name: 62, dtype: object

>  <hydroph_interaction:HIS:104>  (63) 
hydroph_interaction:HIS:104    NaN
hydroph_interaction:HIS:104     -1
Name: 62, dtype: object

>  <pistack:HIS:104>  (63) 
pistack:HIS:104    NaN
pistack:HIS:104     -1
Name: 62, dtype: object

>  <halogenbond:SER:105>  (63) 
halogenbond:SER:105    0.0
halogenbond:SER:105      0
Name: 62, dtype: object

>  <hbond:SER:105>  (63) 
hbond:SER:105    0.0
hbond:SER:105      0
Name: 62, dtype: object

>  <hbond:GLU:106>  (63) 
hbond:GLU:106    0.0
hbond:GLU:106      0
Name: 62, dtype: object

>  <hydroph_interaction:GLU:106>  (63) 
hydroph_interaction:GLU:106    NaN
hydroph_interaction:GLU:106     -1
Name: 62, dtype: object

>  <saltbridge:GLU:106>  (63) 
saltbridge:GLU:106    NaN
saltbridge:GLU:106     -1
Name: 62, dtype: object

>  <halogenbond:GLU:106>  (63) 
halogenbond:GLU:106    NaN
halogenbond:GLU:106     -1
Name: 62, dtype: object

>  <hydroph_interaction:PRO:107>  (63) 
hydroph_interaction:PRO:107    1
hydroph_interaction:PRO:107    1
Name: 62, dtype: object

>  <hbond:PRO:107>  (63) 
hbond:PRO:107    0.0
hbond:PRO:107      0
Name: 62, dtype: object

>  <halogenbond:PRO:107>  (63) 
halogenbond:PRO:107    NaN
halogenbond:PRO:107     -1
Name: 62, dtype: object

>  <hbond:GLY:108>  (63) 
hbond:GLY:108    NaN
hbond:GLY:108     -1
Name: 62, dtype: object

>  <halogenbond:GLY:108>  (63) 
halogenbond:GLY:108    NaN
halogenbond:GLY:108     -1
Name: 62, dtype: object

>  <hbond:ASP:109>  (63) 
hbond:ASP:109    0.0
hbond:ASP:109      0
Name: 62, dtype: object

>  <hydroph_interaction:ASP:109>  (63) 
hydroph_interaction:ASP:109    0.0
hydroph_interaction:ASP:109      0
Name: 62, dtype: object

>  <saltbridge:ASP:109>  (63) 
saltbridge:ASP:109    NaN
saltbridge:ASP:109     -1
Name: 62, dtype: object

>  <halogenbond:CYS:110>  (63) 
halogenbond:CYS:110    0.0
halogenbond:CYS:110      0
Name: 62, dtype: object

>  <hbond:CYS:110>  (63) 
hbond:CYS:110    0.0
hbond:CYS:110      0
Name: 62, dtype: object

>  <hbond:GLY:111>  (63) 
hbond:GLY:111    NaN
hbond:GLY:111     -1
Name: 62, dtype: object

>  <hbond:GLY:112>  (63) 
hbond:GLY:112    NaN
hbond:GLY:112     -1
Name: 62, dtype: object

>  <hbond:ILE:113>  (63) 
hbond:ILE:113    NaN
hbond:ILE:113     -1
Name: 62, dtype: object

>  <hydroph_interaction:LEU:114>  (63) 
hydroph_interaction:LEU:114    NaN
hydroph_interaction:LEU:114     -1
Name: 62, dtype: object

>  <hbond:LEU:114>  (63) 
hbond:LEU:114    NaN
hbond:LEU:114     -1
Name: 62, dtype: object

>  <hydroph_interaction:ILE:123>  (63) 
hydroph_interaction:ILE:123    NaN
hydroph_interaction:ILE:123     -1
Name: 62, dtype: object

>  <hbond:ILE:123>  (63) 
hbond:ILE:123    NaN
hbond:ILE:123     -1
Name: 62, dtype: object

>  <hydroph_interaction:VAL:124>  (63) 
hydroph_interaction:VAL:124    0.0
hydroph_interaction:VAL:124      0
Name: 62, dtype: object

>  <hbond:VAL:124>  (63) 
hbond:VAL:124    0.0
hbond:VAL:124      0
Name: 62, dtype: object

>  <halogenbond:VAL:124>  (63) 
halogenbond:VAL:124    NaN
halogenbond:VAL:124     -1
Name: 62, dtype: object

>  <hbond:SER:125>  (63) 
hbond:SER:125    0
hbond:SER:125    0
Name: 62, dtype: object

>  <halogenbond:SER:125>  (63) 
halogenbond:SER:125    0.0
halogenbond:SER:125      0
Name: 62, dtype: object

>  <hydroph_interaction:THR:126>  (63) 
hydroph_interaction:THR:126    0.0
hydroph_interaction:THR:126      0
Name: 62, dtype: object

>  <hbond:THR:126>  (63) 
hbond:THR:126    0.0
hbond:THR:126      0
Name: 62, dtype: object

>  <halogenbond:THR:126>  (63) 
halogenbond:THR:126    NaN
halogenbond:THR:126     -1
Name: 62, dtype: object

>  <hbond:GLY:127>  (63) 
hbond:GLY:127    0
hbond:GLY:127    0
Name: 62, dtype: object

>  <halogenbond:GLY:127>  (63) 
halogenbond:GLY:127    NaN
halogenbond:GLY:127     -1
Name: 62, dtype: object

>  <hydroph_interaction:GLY:127>  (63) 
hydroph_interaction:GLY:127    NaN
hydroph_interaction:GLY:127     -1
Name: 62, dtype: object

>  <hbond:GLY:128>  (63) 
hbond:GLY:128    NaN
hbond:GLY:128     -1
Name: 62, dtype: object

>  <halogenbond:GLY:128>  (63) 
halogenbond:GLY:128    NaN
halogenbond:GLY:128     -1
Name: 62, dtype: object

>  <hydroph_interaction:GLY:128>  (63) 
hydroph_interaction:GLY:128    NaN
hydroph_interaction:GLY:128     -1
Name: 62, dtype: object

>  <hbond:ASN:129>  (63) 
hbond:ASN:129    NaN
hbond:ASN:129     -1
Name: 62, dtype: object

>  <hydroph_interaction:ASN:129>  (63) 
hydroph_interaction:ASN:129    NaN
hydroph_interaction:ASN:129     -1
Name: 62, dtype: object

>  <halogenbond:ASN:129>  (63) 
halogenbond:ASN:129    NaN
halogenbond:ASN:129     -1
Name: 62, dtype: object

>  <hbond:GLY:130>  (63) 
hbond:GLY:130    NaN
hbond:GLY:130     -1
Name: 62, dtype: object

>  <hbond:LEU:131>  (63) 
hbond:LEU:131    NaN
hbond:LEU:131     -1
Name: 62, dtype: object

>  <hydroph_interaction:LEU:131>  (63) 
hydroph_interaction:LEU:131    NaN
hydroph_interaction:LEU:131     -1
Name: 62, dtype: object

>  <halogenbond:LEU:131>  (63) 
halogenbond:LEU:131    NaN
halogenbond:LEU:131     -1
Name: 62, dtype: object

>  <hydroph_interaction:VAL:132>  (63) 
hydroph_interaction:VAL:132    NaN
hydroph_interaction:VAL:132     -1
Name: 62, dtype: object

>  <hbond:VAL:132>  (63) 
hbond:VAL:132    NaN
hbond:VAL:132     -1
Name: 62, dtype: object

>  <hbond:GLY:133>  (63) 
hbond:GLY:133    NaN
hbond:GLY:133     -1
Name: 62, dtype: object

>  <halogenbond:GLY:133>  (63) 
halogenbond:GLY:133    NaN
halogenbond:GLY:133     -1
Name: 62, dtype: object

>  <hydroph_interaction:PHE:134>  (63) 
hydroph_interaction:PHE:134    NaN
hydroph_interaction:PHE:134     -1
Name: 62, dtype: object

>  <hbond:PHE:134>  (63) 
hbond:PHE:134    NaN
hbond:PHE:134     -1
Name: 62, dtype: object

>  <pistack:PHE:134>  (63) 
pistack:PHE:134    NaN
pistack:PHE:134     -1
Name: 62, dtype: object

>  <pication:PHE:134>  (63) 
pication:PHE:134    NaN
pication:PHE:134     -1
Name: 62, dtype: object

>  <halogenbond:PHE:134>  (63) 
halogenbond:PHE:134    NaN
halogenbond:PHE:134     -1
Name: 62, dtype: object

>  <hydroph_interaction:ALA:135>  (63) 
hydroph_interaction:ALA:135    NaN
hydroph_interaction:ALA:135     -1
Name: 62, dtype: object

>  <hbond:ALA:135>  (63) 
hbond:ALA:135    NaN
hbond:ALA:135     -1
Name: 62, dtype: object

$$$$
Z2518855390
     RDKit          3D

 33 34  0  0  0  0  0  0  0  0999 V2000
    9.8290    8.9970   23.1880 C   0  0  0  0  0  0  0  0  0  0  0  0
    9.5300   10.3610   23.4140 N   0  0  0  0  0  0  0  0  0  0  0  0
    8.6410   10.8720   24.3160 C   0  0  0  0  0  0  0  0  0  0  0  0
    8.6810   12.2400   24.1820 C   0  0  0  0  0  0  0  0  0  0  0  0
    9.6260   12.5310   23.1610 C   0  0  0  0  0  0  0  0  0  0  0  0
   10.1000   13.6830   22.5520 C   0  0  0  0  0  0  0  0  0  0  0  0
   11.4210   14.0930   22.9770 N   0  0  0  0  0  0  0  0  0  0  0  0
   12.4100   14.2330   22.1730 C   0  0  0  0  0  0  0  0  0  0  0  0
   12.4530   14.0370   20.8260 N   0  0  0  0  0  0  0  0  0  0  0  0
   13.6570   14.6190   22.5320 N   0  0  0  0  0  0  0  0  0  0  0  0
   14.7650   13.8020   22.8160 C   0  0  0  0  0  0  0  0  0  0  0  0
   15.0760   13.5000   24.1490 C   0  0  0  0  0  0  0  0  0  0  0  0
   16.1710   12.6950   24.4730 C   0  0  0  0  0  0  0  0  0  0  0  0
   16.9840   12.1730   23.4930 C   0  0  0  0  0  0  0  0  0  0  0  0
   16.6820   12.4660   22.1730 C   0  0  0  0  0  0  0  0  0  0  0  0
   15.5920   13.2650   21.8380 C   0  0  0  0  0  0  0  0  0  0  0  0
   10.1340   11.3390   22.7200 C   0  0  0  0  0  0  0  0  0  0  0  0
   10.9160    8.8740   23.1560 H   0  0  0  0  0  0  0  0  0  0  0  0
    9.4210    8.4510   24.0190 H   0  0  0  0  0  0  0  0  0  0  0  0
    9.3670    8.6770   22.2540 H   0  0  0  0  0  0  0  0  0  0  0  0
    8.0610   10.2320   24.9700 H   0  0  0  0  0  0  0  0  0  0  0  0
    8.0930   12.9490   24.7500 H   0  0  0  0  0  0  0  0  0  0  0  0
    9.4390   14.5250   22.5610 H   0  0  0  0  0  0  0  0  0  0  0  0
   10.2000   13.4480   21.4910 H   0  0  0  0  0  0  0  0  0  0  0  0
   11.8140   13.3100   20.5250 H   0  0  0  0  0  0  0  0  0  0  0  0
   13.3780   13.7110   20.5600 H   0  0  0  0  0  0  0  0  0  0  0  0
   13.9180   15.4380   22.0060 H   0  0  0  0  0  0  0  0  0  0  0  0
   14.4640   13.8910   24.9590 H   0  0  0  0  0  0  0  0  0  0  0  0
   16.3830   12.4790   25.5160 H   0  0  0  0  0  0  0  0  0  0  0  0
   17.8370   11.5480   23.7430 H   0  0  0  0  0  0  0  0  0  0  0  0
   17.2940   12.0710   21.3740 H   0  0  0  0  0  0  0  0  0  0  0  0
   15.4050   13.4590   20.7830 H   0  0  0  0  0  0  0  0  0  0  0  0
   10.8640   11.1100   21.9730 H   0  0  0  0  0  0  0  0  0  0  0  0
  1  2  1  0
  2  3  1  0
  3  4  2  0
  4  5  1  0
  5  6  1  0
  6  7  1  0
  7  8  2  3
  8  9  1  0
  8 10  1  0
 10 11  1  0
 11 12  2  0
 12 13  1  0
 13 14  2  0
 14 15  1  0
 15 16  2  0
  5 17  2  0
 17  2  1  0
 16 11  1  0
  1 18  1  0
  1 19  1  0
  1 20  1  0
  3 21  1  0
  4 22  1  0
  6 23  1  0
  6 24  1  0
  9 25  1  0
  9 26  1  0
 10 27  1  0
 12 28  1  0
 13 29  1  0
 14 30  1  0
 15 31  1  0
 16 32  1  0
 17 33  1  0
A    1
 C1 
A    2
 N1 
A    3
 C2 
A    4
 C3 
A    5
 C4 
A    6
 C5 
A    7
 N2 
A    8
 C6 
A    9
 N3 
A   10
 N4 
A   11
 C7 
A   12
 C8 
A   13
 C9 
A   14
 C10
A   15
 C11
A   16
 C12
A   17
 C13
A   18
 H1 
A   19
 H2 
A   20
 H3 
A   21
 H4 
A   22
 H5 
A   23
 H6 
A   24
 H7 
A   25
 H8 
A   26
 H9 
A   27
 H10
A   28
 H11
A   29
 H12
A   30
 H13
A   31
 H14
A   32
 H15
A   33
 H16
M  END
>  <ref_pdb>  (64) 
x0310_0A

>  <ref_mols>  (64) 
x0451_0A,x0416_0A

>  <original SMILES>  (64) 
Cn1ccc(CN=C(N)Nc2ccccc2)c1

>  <rationale>  (64) 
info halogenbond:C110+G127+D39+S125+E85+E106+T126+P107+H104+Y64+C65+S87+N129+F83+R93+L131+I82+G128+P91+N19+H21+V84+G133+Y90+Y89+H97+L81+F134+L98+R20+G103+S66+S67+S7+G108+R38+V124+M99+S36; hbond:S87+E88+Y90+P107+Q95+D39+C110+D109+E85+G108+G103+G128+G130+L131+N129+H104+R68+V124+P91+F83+S67+S7+S66+G112+G133+V132+R20+Y89+S77+A135+Y63+A92+A101+M99+F134+L100+I82+Y64+S36+L98+V84+L81+Y94+S80+R38+S37+V102+G8+I123+G111+I113+L114+C65+L22+S96; hydroph_interaction:Y89+H21+L22+D109+N129+N19+L40+I123+A135+Q95+I82+L100+L98+L131+F83+V132+Y63+F134+H104+V74+P91+A101+F76+M99+L114+A92+Y94+R68+Y72+Y64+V18+V102+W28+G127+G128+L81; pication:H104+R93+Y63+F134+Y90+R68+F83+R20; pistack:H104+F134+Y63+F83+Y94; saltbridge:R93+H104+E106+D109+E85+R68+R20; 

>  <intxn_cluster>  (64) 
-1

>  <intxn_cluster_rank>  (64) 
-1

>  <N_interactions>  (64) 
7

>  <∆∆G>  (64) 
-10.436666

>  <$/mg>  (64) 
163.0

>  <comRMSD>  (64) 
0.865565

>  <N_rotatable_bonds>  (64) 
4

>  <deep_P1_sidechain>  (64) 
nan

>  <farthest_distance_to_substrate>  (64) 
2.695935

>  <hbond:SER:7>  (64) 
hbond:SER:7    NaN
hbond:SER:7     -1
Name: 63, dtype: object

>  <halogenbond:SER:7>  (64) 
halogenbond:SER:7    NaN
halogenbond:SER:7     -1
Name: 63, dtype: object

>  <hbond:GLY:8>  (64) 
hbond:GLY:8    NaN
hbond:GLY:8     -1
Name: 63, dtype: object

>  <hydroph_interaction:VAL:18>  (64) 
hydroph_interaction:VAL:18    NaN
hydroph_interaction:VAL:18     -1
Name: 63, dtype: object

>  <hbond:ASN:19>  (64) 
hbond:ASN:19    0.0
hbond:ASN:19      0
Name: 63, dtype: object

>  <hydroph_interaction:ASN:19>  (64) 
hydroph_interaction:ASN:19    1.0
hydroph_interaction:ASN:19      1
Name: 63, dtype: object

>  <halogenbond:ASN:19>  (64) 
halogenbond:ASN:19    NaN
halogenbond:ASN:19     -1
Name: 63, dtype: object

>  <hbond:ARG:20>  (64) 
hbond:ARG:20    NaN
hbond:ARG:20     -1
Name: 63, dtype: object

>  <hydroph_interaction:ARG:20>  (64) 
hydroph_interaction:ARG:20    0.0
hydroph_interaction:ARG:20      0
Name: 63, dtype: object

>  <saltbridge:ARG:20>  (64) 
saltbridge:ARG:20    NaN
saltbridge:ARG:20     -1
Name: 63, dtype: object

>  <halogenbond:ARG:20>  (64) 
halogenbond:ARG:20    NaN
halogenbond:ARG:20     -1
Name: 63, dtype: object

>  <pication:ARG:20>  (64) 
pication:ARG:20    NaN
pication:ARG:20     -1
Name: 63, dtype: object

>  <hbond:HIS:21>  (64) 
hbond:HIS:21    0.0
hbond:HIS:21      0
Name: 63, dtype: object

>  <hydroph_interaction:HIS:21>  (64) 
hydroph_interaction:HIS:21    1.0
hydroph_interaction:HIS:21      1
Name: 63, dtype: object

>  <pistack:HIS:21>  (64) 
pistack:HIS:21    0.0
pistack:HIS:21      0
Name: 63, dtype: object

>  <pication:HIS:21>  (64) 
pication:HIS:21    0.0
pication:HIS:21      0
Name: 63, dtype: object

>  <saltbridge:HIS:21>  (64) 
saltbridge:HIS:21    0.0
saltbridge:HIS:21      0
Name: 63, dtype: object

>  <halogenbond:HIS:21>  (64) 
halogenbond:HIS:21    NaN
halogenbond:HIS:21     -1
Name: 63, dtype: object

>  <hydroph_interaction:LEU:22>  (64) 
hydroph_interaction:LEU:22    1.0
hydroph_interaction:LEU:22      1
Name: 63, dtype: object

>  <hbond:LEU:22>  (64) 
hbond:LEU:22    NaN
hbond:LEU:22     -1
Name: 63, dtype: object

>  <hydroph_interaction:TRP:28>  (64) 
hydroph_interaction:TRP:28    NaN
hydroph_interaction:TRP:28     -1
Name: 63, dtype: object

>  <hbond:SER:36>  (64) 
hbond:SER:36    NaN
hbond:SER:36     -1
Name: 63, dtype: object

>  <halogenbond:SER:36>  (64) 
halogenbond:SER:36    NaN
halogenbond:SER:36     -1
Name: 63, dtype: object

>  <hbond:SER:37>  (64) 
hbond:SER:37    NaN
hbond:SER:37     -1
Name: 63, dtype: object

>  <hbond:ARG:38>  (64) 
hbond:ARG:38    NaN
hbond:ARG:38     -1
Name: 63, dtype: object

>  <halogenbond:ARG:38>  (64) 
halogenbond:ARG:38    NaN
halogenbond:ARG:38     -1
Name: 63, dtype: object

>  <saltbridge:ASP:39>  (64) 
saltbridge:ASP:39    0.0
saltbridge:ASP:39      0
Name: 63, dtype: object

>  <halogenbond:ASP:39>  (64) 
halogenbond:ASP:39    NaN
halogenbond:ASP:39     -1
Name: 63, dtype: object

>  <hbond:ASP:39>  (64) 
hbond:ASP:39    1.0
hbond:ASP:39      1
Name: 63, dtype: object

>  <hydroph_interaction:ASP:39>  (64) 
hydroph_interaction:ASP:39    0.0
hydroph_interaction:ASP:39      0
Name: 63, dtype: object

>  <hydroph_interaction:LEU:40>  (64) 
hydroph_interaction:LEU:40    NaN
hydroph_interaction:LEU:40     -1
Name: 63, dtype: object

>  <hydroph_interaction:TYR:63>  (64) 
hydroph_interaction:TYR:63    NaN
hydroph_interaction:TYR:63     -1
Name: 63, dtype: object

>  <hbond:TYR:63>  (64) 
hbond:TYR:63    NaN
hbond:TYR:63     -1
Name: 63, dtype: object

>  <pistack:TYR:63>  (64) 
pistack:TYR:63    NaN
pistack:TYR:63     -1
Name: 63, dtype: object

>  <pication:TYR:63>  (64) 
pication:TYR:63    NaN
pication:TYR:63     -1
Name: 63, dtype: object

>  <halogenbond:TYR:64>  (64) 
halogenbond:TYR:64    NaN
halogenbond:TYR:64     -1
Name: 63, dtype: object

>  <hbond:TYR:64>  (64) 
hbond:TYR:64    NaN
hbond:TYR:64     -1
Name: 63, dtype: object

>  <hydroph_interaction:TYR:64>  (64) 
hydroph_interaction:TYR:64    NaN
hydroph_interaction:TYR:64     -1
Name: 63, dtype: object

>  <halogenbond:CYS:65>  (64) 
halogenbond:CYS:65    NaN
halogenbond:CYS:65     -1
Name: 63, dtype: object

>  <hbond:CYS:65>  (64) 
hbond:CYS:65    NaN
hbond:CYS:65     -1
Name: 63, dtype: object

>  <hbond:SER:66>  (64) 
hbond:SER:66    NaN
hbond:SER:66     -1
Name: 63, dtype: object

>  <halogenbond:SER:66>  (64) 
halogenbond:SER:66    NaN
halogenbond:SER:66     -1
Name: 63, dtype: object

>  <hbond:SER:67>  (64) 
hbond:SER:67    NaN
hbond:SER:67     -1
Name: 63, dtype: object

>  <halogenbond:SER:67>  (64) 
halogenbond:SER:67    NaN
halogenbond:SER:67     -1
Name: 63, dtype: object

>  <hbond:ARG:68>  (64) 
hbond:ARG:68    NaN
hbond:ARG:68     -1
Name: 63, dtype: object

>  <saltbridge:ARG:68>  (64) 
saltbridge:ARG:68    NaN
saltbridge:ARG:68     -1
Name: 63, dtype: object

>  <hydroph_interaction:ARG:68>  (64) 
hydroph_interaction:ARG:68    NaN
hydroph_interaction:ARG:68     -1
Name: 63, dtype: object

>  <pication:ARG:68>  (64) 
pication:ARG:68    NaN
pication:ARG:68     -1
Name: 63, dtype: object

>  <hydroph_interaction:TYR:72>  (64) 
hydroph_interaction:TYR:72    NaN
hydroph_interaction:TYR:72     -1
Name: 63, dtype: object

>  <hydroph_interaction:VAL:74>  (64) 
hydroph_interaction:VAL:74    NaN
hydroph_interaction:VAL:74     -1
Name: 63, dtype: object

>  <hydroph_interaction:PHE:76>  (64) 
hydroph_interaction:PHE:76    NaN
hydroph_interaction:PHE:76     -1
Name: 63, dtype: object

>  <hbond:SER:77>  (64) 
hbond:SER:77    NaN
hbond:SER:77     -1
Name: 63, dtype: object

>  <hbond:SER:80>  (64) 
hbond:SER:80    NaN
hbond:SER:80     -1
Name: 63, dtype: object

>  <hbond:LEU:81>  (64) 
hbond:LEU:81    NaN
hbond:LEU:81     -1
Name: 63, dtype: object

>  <halogenbond:LEU:81>  (64) 
halogenbond:LEU:81    NaN
halogenbond:LEU:81     -1
Name: 63, dtype: object

>  <hydroph_interaction:LEU:81>  (64) 
hydroph_interaction:LEU:81    NaN
hydroph_interaction:LEU:81     -1
Name: 63, dtype: object

>  <hydroph_interaction:ILE:82>  (64) 
hydroph_interaction:ILE:82    NaN
hydroph_interaction:ILE:82     -1
Name: 63, dtype: object

>  <halogenbond:ILE:82>  (64) 
halogenbond:ILE:82    NaN
halogenbond:ILE:82     -1
Name: 63, dtype: object

>  <hbond:ILE:82>  (64) 
hbond:ILE:82    NaN
hbond:ILE:82     -1
Name: 63, dtype: object

>  <hbond:PHE:83>  (64) 
hbond:PHE:83    NaN
hbond:PHE:83     -1
Name: 63, dtype: object

>  <hydroph_interaction:PHE:83>  (64) 
hydroph_interaction:PHE:83    NaN
hydroph_interaction:PHE:83     -1
Name: 63, dtype: object

>  <halogenbond:PHE:83>  (64) 
halogenbond:PHE:83    NaN
halogenbond:PHE:83     -1
Name: 63, dtype: object

>  <pistack:PHE:83>  (64) 
pistack:PHE:83    NaN
pistack:PHE:83     -1
Name: 63, dtype: object

>  <pication:PHE:83>  (64) 
pication:PHE:83    NaN
pication:PHE:83     -1
Name: 63, dtype: object

>  <hydroph_interaction:VAL:84>  (64) 
hydroph_interaction:VAL:84    0.0
hydroph_interaction:VAL:84      0
Name: 63, dtype: object

>  <halogenbond:VAL:84>  (64) 
halogenbond:VAL:84    NaN
halogenbond:VAL:84     -1
Name: 63, dtype: object

>  <hbond:VAL:84>  (64) 
hbond:VAL:84    NaN
hbond:VAL:84     -1
Name: 63, dtype: object

>  <hydroph_interaction:GLU:85>  (64) 
hydroph_interaction:GLU:85    0.0
hydroph_interaction:GLU:85      0
Name: 63, dtype: object

>  <hbond:GLU:85>  (64) 
hbond:GLU:85    NaN
hbond:GLU:85     -1
Name: 63, dtype: object

>  <halogenbond:GLU:85>  (64) 
halogenbond:GLU:85    NaN
halogenbond:GLU:85     -1
Name: 63, dtype: object

>  <saltbridge:GLU:85>  (64) 
saltbridge:GLU:85    NaN
saltbridge:GLU:85     -1
Name: 63, dtype: object

>  <halogenbond:ALA:86>  (64) 
halogenbond:ALA:86    0.0
halogenbond:ALA:86      0
Name: 63, dtype: object

>  <hbond:ALA:86>  (64) 
hbond:ALA:86    0.0
hbond:ALA:86      0
Name: 63, dtype: object

>  <hydroph_interaction:ALA:86>  (64) 
hydroph_interaction:ALA:86    0.0
hydroph_interaction:ALA:86      0
Name: 63, dtype: object

>  <hbond:SER:87>  (64) 
hbond:SER:87    1
hbond:SER:87    1
Name: 63, dtype: object

>  <halogenbond:SER:87>  (64) 
halogenbond:SER:87    NaN
halogenbond:SER:87     -1
Name: 63, dtype: object

>  <hbond:GLU:88>  (64) 
hbond:GLU:88    1.0
hbond:GLU:88      1
Name: 63, dtype: object

>  <hydroph_interaction:GLU:88>  (64) 
hydroph_interaction:GLU:88    0.0
hydroph_interaction:GLU:88      0
Name: 63, dtype: object

>  <halogenbond:GLU:88>  (64) 
halogenbond:GLU:88    0.0
halogenbond:GLU:88      0
Name: 63, dtype: object

>  <saltbridge:GLU:88>  (64) 
saltbridge:GLU:88    0.0
saltbridge:GLU:88      0
Name: 63, dtype: object

>  <hydroph_interaction:TYR:89>  (64) 
hydroph_interaction:TYR:89    1.0
hydroph_interaction:TYR:89      1
Name: 63, dtype: object

>  <pistack:TYR:89>  (64) 
pistack:TYR:89    0.0
pistack:TYR:89      0
Name: 63, dtype: object

>  <hbond:TYR:89>  (64) 
hbond:TYR:89    NaN
hbond:TYR:89     -1
Name: 63, dtype: object

>  <halogenbond:TYR:89>  (64) 
halogenbond:TYR:89    NaN
halogenbond:TYR:89     -1
Name: 63, dtype: object

>  <hydroph_interaction:TYR:90>  (64) 
hydroph_interaction:TYR:90    0.0
hydroph_interaction:TYR:90      0
Name: 63, dtype: object

>  <hbond:TYR:90>  (64) 
hbond:TYR:90    NaN
hbond:TYR:90     -1
Name: 63, dtype: object

>  <pistack:TYR:90>  (64) 
pistack:TYR:90    0.0
pistack:TYR:90      0
Name: 63, dtype: object

>  <halogenbond:TYR:90>  (64) 
halogenbond:TYR:90    NaN
halogenbond:TYR:90     -1
Name: 63, dtype: object

>  <pication:TYR:90>  (64) 
pication:TYR:90    NaN
pication:TYR:90     -1
Name: 63, dtype: object

>  <hbond:PRO:91>  (64) 
hbond:PRO:91    NaN
hbond:PRO:91     -1
Name: 63, dtype: object

>  <hydroph_interaction:PRO:91>  (64) 
hydroph_interaction:PRO:91    NaN
hydroph_interaction:PRO:91     -1
Name: 63, dtype: object

>  <halogenbond:PRO:91>  (64) 
halogenbond:PRO:91    NaN
halogenbond:PRO:91     -1
Name: 63, dtype: object

>  <hbond:ALA:92>  (64) 
hbond:ALA:92    NaN
hbond:ALA:92     -1
Name: 63, dtype: object

>  <hydroph_interaction:ALA:92>  (64) 
hydroph_interaction:ALA:92    NaN
hydroph_interaction:ALA:92     -1
Name: 63, dtype: object

>  <saltbridge:ARG:93>  (64) 
saltbridge:ARG:93    NaN
saltbridge:ARG:93     -1
Name: 63, dtype: object

>  <hbond:ARG:93>  (64) 
hbond:ARG:93    0.0
hbond:ARG:93      0
Name: 63, dtype: object

>  <hydroph_interaction:ARG:93>  (64) 
hydroph_interaction:ARG:93    0.0
hydroph_interaction:ARG:93      0
Name: 63, dtype: object

>  <halogenbond:ARG:93>  (64) 
halogenbond:ARG:93    NaN
halogenbond:ARG:93     -1
Name: 63, dtype: object

>  <pication:ARG:93>  (64) 
pication:ARG:93    NaN
pication:ARG:93     -1
Name: 63, dtype: object

>  <hydroph_interaction:TYR:94>  (64) 
hydroph_interaction:TYR:94    NaN
hydroph_interaction:TYR:94     -1
Name: 63, dtype: object

>  <pistack:TYR:94>  (64) 
pistack:TYR:94    NaN
pistack:TYR:94     -1
Name: 63, dtype: object

>  <hbond:TYR:94>  (64) 
hbond:TYR:94    NaN
hbond:TYR:94     -1
Name: 63, dtype: object

>  <hbond:GLN:95>  (64) 
hbond:GLN:95    NaN
hbond:GLN:95     -1
Name: 63, dtype: object

>  <hydroph_interaction:GLN:95>  (64) 
hydroph_interaction:GLN:95    NaN
hydroph_interaction:GLN:95     -1
Name: 63, dtype: object

>  <halogenbond:GLN:95>  (64) 
halogenbond:GLN:95    0.0
halogenbond:GLN:95      0
Name: 63, dtype: object

>  <hbond:SER:96>  (64) 
hbond:SER:96    NaN
hbond:SER:96     -1
Name: 63, dtype: object

>  <halogenbond:HIS:97>  (64) 
halogenbond:HIS:97    NaN
halogenbond:HIS:97     -1
Name: 63, dtype: object

>  <hydroph_interaction:LEU:98>  (64) 
hydroph_interaction:LEU:98    NaN
hydroph_interaction:LEU:98     -1
Name: 63, dtype: object

>  <hbond:LEU:98>  (64) 
hbond:LEU:98    NaN
hbond:LEU:98     -1
Name: 63, dtype: object

>  <halogenbond:LEU:98>  (64) 
halogenbond:LEU:98    NaN
halogenbond:LEU:98     -1
Name: 63, dtype: object

>  <hbond:MET:99>  (64) 
hbond:MET:99    NaN
hbond:MET:99     -1
Name: 63, dtype: object

>  <hydroph_interaction:MET:99>  (64) 
hydroph_interaction:MET:99    NaN
hydroph_interaction:MET:99     -1
Name: 63, dtype: object

>  <halogenbond:MET:99>  (64) 
halogenbond:MET:99    NaN
halogenbond:MET:99     -1
Name: 63, dtype: object

>  <hydroph_interaction:LEU:100>  (64) 
hydroph_interaction:LEU:100    NaN
hydroph_interaction:LEU:100     -1
Name: 63, dtype: object

>  <hbond:LEU:100>  (64) 
hbond:LEU:100    NaN
hbond:LEU:100     -1
Name: 63, dtype: object

>  <hbond:ALA:101>  (64) 
hbond:ALA:101    NaN
hbond:ALA:101     -1
Name: 63, dtype: object

>  <hydroph_interaction:ALA:101>  (64) 
hydroph_interaction:ALA:101    NaN
hydroph_interaction:ALA:101     -1
Name: 63, dtype: object

>  <hydroph_interaction:VAL:102>  (64) 
hydroph_interaction:VAL:102    NaN
hydroph_interaction:VAL:102     -1
Name: 63, dtype: object

>  <hbond:VAL:102>  (64) 
hbond:VAL:102    NaN
hbond:VAL:102     -1
Name: 63, dtype: object

>  <hbond:GLY:103>  (64) 
hbond:GLY:103    NaN
hbond:GLY:103     -1
Name: 63, dtype: object

>  <halogenbond:GLY:103>  (64) 
halogenbond:GLY:103    NaN
halogenbond:GLY:103     -1
Name: 63, dtype: object

>  <hbond:HIS:104>  (64) 
hbond:HIS:104    NaN
hbond:HIS:104     -1
Name: 63, dtype: object

>  <saltbridge:HIS:104>  (64) 
saltbridge:HIS:104    NaN
saltbridge:HIS:104     -1
Name: 63, dtype: object

>  <pication:HIS:104>  (64) 
pication:HIS:104    NaN
pication:HIS:104     -1
Name: 63, dtype: object

>  <halogenbond:HIS:104>  (64) 
halogenbond:HIS:104    NaN
halogenbond:HIS:104     -1
Name: 63, dtype: object

>  <hydroph_interaction:HIS:104>  (64) 
hydroph_interaction:HIS:104    NaN
hydroph_interaction:HIS:104     -1
Name: 63, dtype: object

>  <pistack:HIS:104>  (64) 
pistack:HIS:104    NaN
pistack:HIS:104     -1
Name: 63, dtype: object

>  <halogenbond:SER:105>  (64) 
halogenbond:SER:105    0.0
halogenbond:SER:105      0
Name: 63, dtype: object

>  <hbond:SER:105>  (64) 
hbond:SER:105    0.0
hbond:SER:105      0
Name: 63, dtype: object

>  <hbond:GLU:106>  (64) 
hbond:GLU:106    0.0
hbond:GLU:106      0
Name: 63, dtype: object

>  <hydroph_interaction:GLU:106>  (64) 
hydroph_interaction:GLU:106    0.0
hydroph_interaction:GLU:106      0
Name: 63, dtype: object

>  <saltbridge:GLU:106>  (64) 
saltbridge:GLU:106    NaN
saltbridge:GLU:106     -1
Name: 63, dtype: object

>  <halogenbond:GLU:106>  (64) 
halogenbond:GLU:106    NaN
halogenbond:GLU:106     -1
Name: 63, dtype: object

>  <hydroph_interaction:PRO:107>  (64) 
hydroph_interaction:PRO:107    0
hydroph_interaction:PRO:107    0
Name: 63, dtype: object

>  <hbond:PRO:107>  (64) 
hbond:PRO:107    NaN
hbond:PRO:107     -1
Name: 63, dtype: object

>  <halogenbond:PRO:107>  (64) 
halogenbond:PRO:107    NaN
halogenbond:PRO:107     -1
Name: 63, dtype: object

>  <hbond:GLY:108>  (64) 
hbond:GLY:108    NaN
hbond:GLY:108     -1
Name: 63, dtype: object

>  <halogenbond:GLY:108>  (64) 
halogenbond:GLY:108    NaN
halogenbond:GLY:108     -1
Name: 63, dtype: object

>  <hbond:ASP:109>  (64) 
hbond:ASP:109    NaN
hbond:ASP:109     -1
Name: 63, dtype: object

>  <hydroph_interaction:ASP:109>  (64) 
hydroph_interaction:ASP:109    NaN
hydroph_interaction:ASP:109     -1
Name: 63, dtype: object

>  <saltbridge:ASP:109>  (64) 
saltbridge:ASP:109    NaN
saltbridge:ASP:109     -1
Name: 63, dtype: object

>  <halogenbond:CYS:110>  (64) 
halogenbond:CYS:110    NaN
halogenbond:CYS:110     -1
Name: 63, dtype: object

>  <hbond:CYS:110>  (64) 
hbond:CYS:110    NaN
hbond:CYS:110     -1
Name: 63, dtype: object

>  <hbond:GLY:111>  (64) 
hbond:GLY:111    NaN
hbond:GLY:111     -1
Name: 63, dtype: object

>  <hbond:GLY:112>  (64) 
hbond:GLY:112    NaN
hbond:GLY:112     -1
Name: 63, dtype: object

>  <hbond:ILE:113>  (64) 
hbond:ILE:113    NaN
hbond:ILE:113     -1
Name: 63, dtype: object

>  <hydroph_interaction:LEU:114>  (64) 
hydroph_interaction:LEU:114    NaN
hydroph_interaction:LEU:114     -1
Name: 63, dtype: object

>  <hbond:LEU:114>  (64) 
hbond:LEU:114    NaN
hbond:LEU:114     -1
Name: 63, dtype: object

>  <hydroph_interaction:ILE:123>  (64) 
hydroph_interaction:ILE:123    NaN
hydroph_interaction:ILE:123     -1
Name: 63, dtype: object

>  <hbond:ILE:123>  (64) 
hbond:ILE:123    NaN
hbond:ILE:123     -1
Name: 63, dtype: object

>  <hydroph_interaction:VAL:124>  (64) 
hydroph_interaction:VAL:124    0.0
hydroph_interaction:VAL:124      0
Name: 63, dtype: object

>  <hbond:VAL:124>  (64) 
hbond:VAL:124    NaN
hbond:VAL:124     -1
Name: 63, dtype: object

>  <halogenbond:VAL:124>  (64) 
halogenbond:VAL:124    NaN
halogenbond:VAL:124     -1
Name: 63, dtype: object

>  <hbond:SER:125>  (64) 
hbond:SER:125    0
hbond:SER:125    0
Name: 63, dtype: object

>  <halogenbond:SER:125>  (64) 
halogenbond:SER:125    NaN
halogenbond:SER:125     -1
Name: 63, dtype: object

>  <hydroph_interaction:THR:126>  (64) 
hydroph_interaction:THR:126    0.0
hydroph_interaction:THR:126      0
Name: 63, dtype: object

>  <hbond:THR:126>  (64) 
hbond:THR:126    0.0
hbond:THR:126      0
Name: 63, dtype: object

>  <halogenbond:THR:126>  (64) 
halogenbond:THR:126    NaN
halogenbond:THR:126     -1
Name: 63, dtype: object

>  <hbond:GLY:127>  (64) 
hbond:GLY:127    0
hbond:GLY:127    0
Name: 63, dtype: object

>  <halogenbond:GLY:127>  (64) 
halogenbond:GLY:127    NaN
halogenbond:GLY:127     -1
Name: 63, dtype: object

>  <hydroph_interaction:GLY:127>  (64) 
hydroph_interaction:GLY:127    NaN
hydroph_interaction:GLY:127     -1
Name: 63, dtype: object

>  <hbond:GLY:128>  (64) 
hbond:GLY:128    NaN
hbond:GLY:128     -1
Name: 63, dtype: object

>  <halogenbond:GLY:128>  (64) 
halogenbond:GLY:128    NaN
halogenbond:GLY:128     -1
Name: 63, dtype: object

>  <hydroph_interaction:GLY:128>  (64) 
hydroph_interaction:GLY:128    NaN
hydroph_interaction:GLY:128     -1
Name: 63, dtype: object

>  <hbond:ASN:129>  (64) 
hbond:ASN:129    NaN
hbond:ASN:129     -1
Name: 63, dtype: object

>  <hydroph_interaction:ASN:129>  (64) 
hydroph_interaction:ASN:129    NaN
hydroph_interaction:ASN:129     -1
Name: 63, dtype: object

>  <halogenbond:ASN:129>  (64) 
halogenbond:ASN:129    NaN
halogenbond:ASN:129     -1
Name: 63, dtype: object

>  <hbond:GLY:130>  (64) 
hbond:GLY:130    NaN
hbond:GLY:130     -1
Name: 63, dtype: object

>  <hbond:LEU:131>  (64) 
hbond:LEU:131    NaN
hbond:LEU:131     -1
Name: 63, dtype: object

>  <hydroph_interaction:LEU:131>  (64) 
hydroph_interaction:LEU:131    NaN
hydroph_interaction:LEU:131     -1
Name: 63, dtype: object

>  <halogenbond:LEU:131>  (64) 
halogenbond:LEU:131    NaN
halogenbond:LEU:131     -1
Name: 63, dtype: object

>  <hydroph_interaction:VAL:132>  (64) 
hydroph_interaction:VAL:132    NaN
hydroph_interaction:VAL:132     -1
Name: 63, dtype: object

>  <hbond:VAL:132>  (64) 
hbond:VAL:132    NaN
hbond:VAL:132     -1
Name: 63, dtype: object

>  <hbond:GLY:133>  (64) 
hbond:GLY:133    NaN
hbond:GLY:133     -1
Name: 63, dtype: object

>  <halogenbond:GLY:133>  (64) 
halogenbond:GLY:133    NaN
halogenbond:GLY:133     -1
Name: 63, dtype: object

>  <hydroph_interaction:PHE:134>  (64) 
hydroph_interaction:PHE:134    NaN
hydroph_interaction:PHE:134     -1
Name: 63, dtype: object

>  <hbond:PHE:134>  (64) 
hbond:PHE:134    NaN
hbond:PHE:134     -1
Name: 63, dtype: object

>  <pistack:PHE:134>  (64) 
pistack:PHE:134    NaN
pistack:PHE:134     -1
Name: 63, dtype: object

>  <pication:PHE:134>  (64) 
pication:PHE:134    NaN
pication:PHE:134     -1
Name: 63, dtype: object

>  <halogenbond:PHE:134>  (64) 
halogenbond:PHE:134    NaN
halogenbond:PHE:134     -1
Name: 63, dtype: object

>  <hydroph_interaction:ALA:135>  (64) 
hydroph_interaction:ALA:135    NaN
hydroph_interaction:ALA:135     -1
Name: 63, dtype: object

>  <hbond:ALA:135>  (64) 
hbond:ALA:135    NaN
hbond:ALA:135     -1
Name: 63, dtype: object

$$$$
PV_002243752341
     RDKit          3D

 28 28  0  0  0  0  0  0  0  0999 V2000
   12.3250   15.2360   22.0950 C   0  0  0  0  0  0  0  0  0  0  0  0
   11.3450   14.0620   22.1800 C   0  0  0  0  0  0  0  0  0  0  0  0
   10.6940   14.0270   23.4150 N   0  0  0  0  0  0  0  0  0  0  0  0
   11.2380   14.6840   24.5550 C   0  0  0  0  0  0  0  0  0  0  0  0
   12.7430   14.8370   24.6570 C   0  0  0  0  0  0  0  0  0  0  0  0
   10.5740   15.1520   25.4780 O   0  0  0  0  0  0  0  0  0  0  0  0
    9.9780   12.8710   23.6670 C   0  0  0  0  0  0  0  0  0  0  0  0
    8.8970   12.9000   24.5520 C   0  0  0  0  0  0  0  0  0  0  0  0
    8.2060   11.7160   24.8270 C   0  0  0  0  0  0  0  0  0  0  0  0
    8.5890   10.5190   24.2280 C   0  0  0  0  0  0  0  0  0  0  0  0
    9.6360   10.4910   23.3520 C   0  0  0  0  0  0  0  0  0  0  0  0
   10.0960    9.3370   22.6930 C   0  0  0  0  0  0  0  0  0  0  0  0
   10.3090   11.6700   23.0820 C   0  0  0  0  0  0  0  0  0  0  0  0
   12.0040   16.0720   22.7240 H   0  0  0  0  0  0  0  0  0  0  0  0
   12.4270   15.5790   21.0600 H   0  0  0  0  0  0  0  0  0  0  0  0
   13.3120   14.9130   22.4340 H   0  0  0  0  0  0  0  0  0  0  0  0
   10.7490   14.1030   21.2580 H   0  0  0  0  0  0  0  0  0  0  0  0
   11.9460   13.1480   22.0800 H   0  0  0  0  0  0  0  0  0  0  0  0
   13.0620   15.5030   23.8660 H   0  0  0  0  0  0  0  0  0  0  0  0
   13.0040   15.2600   25.6360 H   0  0  0  0  0  0  0  0  0  0  0  0
   13.2370   13.8620   24.5570 H   0  0  0  0  0  0  0  0  0  0  0  0
    8.5610   13.8090   25.0550 H   0  0  0  0  0  0  0  0  0  0  0  0
    7.3690   11.7700   25.5270 H   0  0  0  0  0  0  0  0  0  0  0  0
    8.0410    9.6030   24.4640 H   0  0  0  0  0  0  0  0  0  0  0  0
   10.6990    8.6830   23.3270 H   0  0  0  0  0  0  0  0  0  0  0  0
   10.6600    9.5270   21.7790 H   0  0  0  0  0  0  0  0  0  0  0  0
    9.1960    8.7960   22.3810 H   0  0  0  0  0  0  0  0  0  0  0  0
   11.1370   11.6140   22.3790 H   0  0  0  0  0  0  0  0  0  0  0  0
  1  2  1  0
  2  3  1  0
  3  4  1  0
  4  5  1  0
  4  6  2  0
  3  7  1  0
  7  8  2  0
  8  9  1  0
  9 10  2  0
 10 11  1  0
 11 12  1  0
 11 13  2  0
 13  7  1  0
  1 14  1  0
  1 15  1  0
  1 16  1  0
  2 17  1  0
  2 18  1  0
  5 19  1  0
  5 20  1  0
  5 21  1  0
  8 22  1  0
  9 23  1  0
 10 24  1  0
 12 25  1  0
 12 26  1  0
 12 27  1  0
 13 28  1  0
A    1
 C1 
A    2
 C2 
A    3
 N1 
A    4
 C3 
A    5
 C4 
A    6
 O1 
A    7
 C5 
A    8
 C6 
A    9
 C7 
A   10
 C8 
A   11
 C9 
A   12
 C10
A   13
 C11
A   14
 H1 
A   15
 H2 
A   16
 H3 
A   17
 H4 
A   18
 H5 
A   19
 H6 
A   20
 H7 
A   21
 H8 
A   22
 H9 
A   23
 H10
A   24
 H11
A   25
 H12
A   26
 H13
A   27
 H14
A   28
 H15
M  END
>  <ref_pdb>  (65) 
x0310_0A

>  <ref_mols>  (65) 
x0310_0A,x0528_0A

>  <original SMILES>  (65) 
CCN(C(C)=O)c1cccc(C)c1

>  <rationale>  (65) 
info halogenbond:G127+D39+S125+E85+Q95+E106+E88+T126+P107+H104+Y64+C65+S87+N129+F83+R93+L131+I82+G128+P91+N19+H21+V84+G133+Y90+Y89+H97+L81+F134+L98+R20+G103+S66+S67+S7+G108+R38+V124+M99+S36; hbond:E88+T126+G108+G103+G128+G130+N129+H104+R68+V124+P91+F83+S67+S7+S66+G112+V132+R20+S77+A135+Y63+A92+A101+M99+F134+L100+I82+Y64+S36+L98+V84+L81+Y94+S80+S37+V102+G8+I123+G111+I113+L114+C65+L22+S96; hydroph_interaction:V124+Y89+P107+N129+N19+L40+I123+I82+L100+L131+F83+R93+Y63+F134+H104+A86+V74+P91+A101+F76+M99+L114+A92+Y94+R68+Y72+Y64+V18+V102+W28+G127+G128+L81; pication:H104+R93+Y63+F134+Y90+R68+F83+R20; pistack:Y89+Y90+H104+F134+Y63+F83+Y94; saltbridge:R93+H104+E106+D109+E85+E88+R68+R20; 

>  <intxn_cluster>  (65) 
-1

>  <intxn_cluster_rank>  (65) 
-1

>  <N_interactions>  (65) 
5

>  <∆∆G>  (65) 
-11.750901

>  <$/mg>  (65) 
163.0

>  <comRMSD>  (65) 
0.788684

>  <N_rotatable_bonds>  (65) 
5

>  <deep_P1_sidechain>  (65) 
nan

>  <farthest_distance_to_substrate>  (65) 
2.599404

>  <hbond:SER:7>  (65) 
hbond:SER:7    NaN
hbond:SER:7     -1
Name: 64, dtype: object

>  <halogenbond:SER:7>  (65) 
halogenbond:SER:7    NaN
halogenbond:SER:7     -1
Name: 64, dtype: object

>  <hbond:GLY:8>  (65) 
hbond:GLY:8    NaN
hbond:GLY:8     -1
Name: 64, dtype: object

>  <hydroph_interaction:VAL:18>  (65) 
hydroph_interaction:VAL:18    NaN
hydroph_interaction:VAL:18     -1
Name: 64, dtype: object

>  <hbond:ASN:19>  (65) 
hbond:ASN:19    0.0
hbond:ASN:19      0
Name: 64, dtype: object

>  <hydroph_interaction:ASN:19>  (65) 
hydroph_interaction:ASN:19    NaN
hydroph_interaction:ASN:19     -1
Name: 64, dtype: object

>  <halogenbond:ASN:19>  (65) 
halogenbond:ASN:19    NaN
halogenbond:ASN:19     -1
Name: 64, dtype: object

>  <hbond:ARG:20>  (65) 
hbond:ARG:20    NaN
hbond:ARG:20     -1
Name: 64, dtype: object

>  <hydroph_interaction:ARG:20>  (65) 
hydroph_interaction:ARG:20    0.0
hydroph_interaction:ARG:20      0
Name: 64, dtype: object

>  <saltbridge:ARG:20>  (65) 
saltbridge:ARG:20    NaN
saltbridge:ARG:20     -1
Name: 64, dtype: object

>  <halogenbond:ARG:20>  (65) 
halogenbond:ARG:20    NaN
halogenbond:ARG:20     -1
Name: 64, dtype: object

>  <pication:ARG:20>  (65) 
pication:ARG:20    NaN
pication:ARG:20     -1
Name: 64, dtype: object

>  <hbond:HIS:21>  (65) 
hbond:HIS:21    0.0
hbond:HIS:21      0
Name: 64, dtype: object

>  <hydroph_interaction:HIS:21>  (65) 
hydroph_interaction:HIS:21    0.0
hydroph_interaction:HIS:21      0
Name: 64, dtype: object

>  <pistack:HIS:21>  (65) 
pistack:HIS:21    0.0
pistack:HIS:21      0
Name: 64, dtype: object

>  <pication:HIS:21>  (65) 
pication:HIS:21    0.0
pication:HIS:21      0
Name: 64, dtype: object

>  <saltbridge:HIS:21>  (65) 
saltbridge:HIS:21    0.0
saltbridge:HIS:21      0
Name: 64, dtype: object

>  <halogenbond:HIS:21>  (65) 
halogenbond:HIS:21    NaN
halogenbond:HIS:21     -1
Name: 64, dtype: object

>  <hydroph_interaction:LEU:22>  (65) 
hydroph_interaction:LEU:22    0.0
hydroph_interaction:LEU:22      0
Name: 64, dtype: object

>  <hbond:LEU:22>  (65) 
hbond:LEU:22    NaN
hbond:LEU:22     -1
Name: 64, dtype: object

>  <hydroph_interaction:TRP:28>  (65) 
hydroph_interaction:TRP:28    NaN
hydroph_interaction:TRP:28     -1
Name: 64, dtype: object

>  <hbond:SER:36>  (65) 
hbond:SER:36    NaN
hbond:SER:36     -1
Name: 64, dtype: object

>  <halogenbond:SER:36>  (65) 
halogenbond:SER:36    NaN
halogenbond:SER:36     -1
Name: 64, dtype: object

>  <hbond:SER:37>  (65) 
hbond:SER:37    NaN
hbond:SER:37     -1
Name: 64, dtype: object

>  <hbond:ARG:38>  (65) 
hbond:ARG:38    0.0
hbond:ARG:38      0
Name: 64, dtype: object

>  <halogenbond:ARG:38>  (65) 
halogenbond:ARG:38    NaN
halogenbond:ARG:38     -1
Name: 64, dtype: object

>  <saltbridge:ASP:39>  (65) 
saltbridge:ASP:39    0.0
saltbridge:ASP:39      0
Name: 64, dtype: object

>  <halogenbond:ASP:39>  (65) 
halogenbond:ASP:39    NaN
halogenbond:ASP:39     -1
Name: 64, dtype: object

>  <hbond:ASP:39>  (65) 
hbond:ASP:39    0.0
hbond:ASP:39      0
Name: 64, dtype: object

>  <hydroph_interaction:ASP:39>  (65) 
hydroph_interaction:ASP:39    0.0
hydroph_interaction:ASP:39      0
Name: 64, dtype: object

>  <hydroph_interaction:LEU:40>  (65) 
hydroph_interaction:LEU:40    NaN
hydroph_interaction:LEU:40     -1
Name: 64, dtype: object

>  <hydroph_interaction:TYR:63>  (65) 
hydroph_interaction:TYR:63    NaN
hydroph_interaction:TYR:63     -1
Name: 64, dtype: object

>  <hbond:TYR:63>  (65) 
hbond:TYR:63    NaN
hbond:TYR:63     -1
Name: 64, dtype: object

>  <pistack:TYR:63>  (65) 
pistack:TYR:63    NaN
pistack:TYR:63     -1
Name: 64, dtype: object

>  <pication:TYR:63>  (65) 
pication:TYR:63    NaN
pication:TYR:63     -1
Name: 64, dtype: object

>  <halogenbond:TYR:64>  (65) 
halogenbond:TYR:64    NaN
halogenbond:TYR:64     -1
Name: 64, dtype: object

>  <hbond:TYR:64>  (65) 
hbond:TYR:64    NaN
hbond:TYR:64     -1
Name: 64, dtype: object

>  <hydroph_interaction:TYR:64>  (65) 
hydroph_interaction:TYR:64    NaN
hydroph_interaction:TYR:64     -1
Name: 64, dtype: object

>  <halogenbond:CYS:65>  (65) 
halogenbond:CYS:65    NaN
halogenbond:CYS:65     -1
Name: 64, dtype: object

>  <hbond:CYS:65>  (65) 
hbond:CYS:65    NaN
hbond:CYS:65     -1
Name: 64, dtype: object

>  <hbond:SER:66>  (65) 
hbond:SER:66    NaN
hbond:SER:66     -1
Name: 64, dtype: object

>  <halogenbond:SER:66>  (65) 
halogenbond:SER:66    NaN
halogenbond:SER:66     -1
Name: 64, dtype: object

>  <hbond:SER:67>  (65) 
hbond:SER:67    NaN
hbond:SER:67     -1
Name: 64, dtype: object

>  <halogenbond:SER:67>  (65) 
halogenbond:SER:67    NaN
halogenbond:SER:67     -1
Name: 64, dtype: object

>  <hbond:ARG:68>  (65) 
hbond:ARG:68    NaN
hbond:ARG:68     -1
Name: 64, dtype: object

>  <saltbridge:ARG:68>  (65) 
saltbridge:ARG:68    NaN
saltbridge:ARG:68     -1
Name: 64, dtype: object

>  <hydroph_interaction:ARG:68>  (65) 
hydroph_interaction:ARG:68    NaN
hydroph_interaction:ARG:68     -1
Name: 64, dtype: object

>  <pication:ARG:68>  (65) 
pication:ARG:68    NaN
pication:ARG:68     -1
Name: 64, dtype: object

>  <hydroph_interaction:TYR:72>  (65) 
hydroph_interaction:TYR:72    NaN
hydroph_interaction:TYR:72     -1
Name: 64, dtype: object

>  <hydroph_interaction:VAL:74>  (65) 
hydroph_interaction:VAL:74    NaN
hydroph_interaction:VAL:74     -1
Name: 64, dtype: object

>  <hydroph_interaction:PHE:76>  (65) 
hydroph_interaction:PHE:76    NaN
hydroph_interaction:PHE:76     -1
Name: 64, dtype: object

>  <hbond:SER:77>  (65) 
hbond:SER:77    NaN
hbond:SER:77     -1
Name: 64, dtype: object

>  <hbond:SER:80>  (65) 
hbond:SER:80    NaN
hbond:SER:80     -1
Name: 64, dtype: object

>  <hbond:LEU:81>  (65) 
hbond:LEU:81    NaN
hbond:LEU:81     -1
Name: 64, dtype: object

>  <halogenbond:LEU:81>  (65) 
halogenbond:LEU:81    NaN
halogenbond:LEU:81     -1
Name: 64, dtype: object

>  <hydroph_interaction:LEU:81>  (65) 
hydroph_interaction:LEU:81    NaN
hydroph_interaction:LEU:81     -1
Name: 64, dtype: object

>  <hydroph_interaction:ILE:82>  (65) 
hydroph_interaction:ILE:82    NaN
hydroph_interaction:ILE:82     -1
Name: 64, dtype: object

>  <halogenbond:ILE:82>  (65) 
halogenbond:ILE:82    NaN
halogenbond:ILE:82     -1
Name: 64, dtype: object

>  <hbond:ILE:82>  (65) 
hbond:ILE:82    NaN
hbond:ILE:82     -1
Name: 64, dtype: object

>  <hbond:PHE:83>  (65) 
hbond:PHE:83    NaN
hbond:PHE:83     -1
Name: 64, dtype: object

>  <hydroph_interaction:PHE:83>  (65) 
hydroph_interaction:PHE:83    NaN
hydroph_interaction:PHE:83     -1
Name: 64, dtype: object

>  <halogenbond:PHE:83>  (65) 
halogenbond:PHE:83    NaN
halogenbond:PHE:83     -1
Name: 64, dtype: object

>  <pistack:PHE:83>  (65) 
pistack:PHE:83    NaN
pistack:PHE:83     -1
Name: 64, dtype: object

>  <pication:PHE:83>  (65) 
pication:PHE:83    NaN
pication:PHE:83     -1
Name: 64, dtype: object

>  <hydroph_interaction:VAL:84>  (65) 
hydroph_interaction:VAL:84    0.0
hydroph_interaction:VAL:84      0
Name: 64, dtype: object

>  <halogenbond:VAL:84>  (65) 
halogenbond:VAL:84    NaN
halogenbond:VAL:84     -1
Name: 64, dtype: object

>  <hbond:VAL:84>  (65) 
hbond:VAL:84    NaN
hbond:VAL:84     -1
Name: 64, dtype: object

>  <hydroph_interaction:GLU:85>  (65) 
hydroph_interaction:GLU:85    0.0
hydroph_interaction:GLU:85      0
Name: 64, dtype: object

>  <hbond:GLU:85>  (65) 
hbond:GLU:85    0.0
hbond:GLU:85      0
Name: 64, dtype: object

>  <halogenbond:GLU:85>  (65) 
halogenbond:GLU:85    NaN
halogenbond:GLU:85     -1
Name: 64, dtype: object

>  <saltbridge:GLU:85>  (65) 
saltbridge:GLU:85    NaN
saltbridge:GLU:85     -1
Name: 64, dtype: object

>  <halogenbond:ALA:86>  (65) 
halogenbond:ALA:86    0.0
halogenbond:ALA:86      0
Name: 64, dtype: object

>  <hbond:ALA:86>  (65) 
hbond:ALA:86    0.0
hbond:ALA:86      0
Name: 64, dtype: object

>  <hydroph_interaction:ALA:86>  (65) 
hydroph_interaction:ALA:86    NaN
hydroph_interaction:ALA:86     -1
Name: 64, dtype: object

>  <hbond:SER:87>  (65) 
hbond:SER:87    0
hbond:SER:87    0
Name: 64, dtype: object

>  <halogenbond:SER:87>  (65) 
halogenbond:SER:87    NaN
halogenbond:SER:87     -1
Name: 64, dtype: object

>  <hbond:GLU:88>  (65) 
hbond:GLU:88    1.0
hbond:GLU:88      1
Name: 64, dtype: object

>  <hydroph_interaction:GLU:88>  (65) 
hydroph_interaction:GLU:88    0.0
hydroph_interaction:GLU:88      0
Name: 64, dtype: object

>  <halogenbond:GLU:88>  (65) 
halogenbond:GLU:88    NaN
halogenbond:GLU:88     -1
Name: 64, dtype: object

>  <saltbridge:GLU:88>  (65) 
saltbridge:GLU:88    NaN
saltbridge:GLU:88     -1
Name: 64, dtype: object

>  <hydroph_interaction:TYR:89>  (65) 
hydroph_interaction:TYR:89    1.0
hydroph_interaction:TYR:89      1
Name: 64, dtype: object

>  <pistack:TYR:89>  (65) 
pistack:TYR:89    NaN
pistack:TYR:89     -1
Name: 64, dtype: object

>  <hbond:TYR:89>  (65) 
hbond:TYR:89    0.0
hbond:TYR:89      0
Name: 64, dtype: object

>  <halogenbond:TYR:89>  (65) 
halogenbond:TYR:89    NaN
halogenbond:TYR:89     -1
Name: 64, dtype: object

>  <hydroph_interaction:TYR:90>  (65) 
hydroph_interaction:TYR:90    0.0
hydroph_interaction:TYR:90      0
Name: 64, dtype: object

>  <hbond:TYR:90>  (65) 
hbond:TYR:90    0.0
hbond:TYR:90      0
Name: 64, dtype: object

>  <pistack:TYR:90>  (65) 
pistack:TYR:90    NaN
pistack:TYR:90     -1
Name: 64, dtype: object

>  <halogenbond:TYR:90>  (65) 
halogenbond:TYR:90    NaN
halogenbond:TYR:90     -1
Name: 64, dtype: object

>  <pication:TYR:90>  (65) 
pication:TYR:90    NaN
pication:TYR:90     -1
Name: 64, dtype: object

>  <hbond:PRO:91>  (65) 
hbond:PRO:91    NaN
hbond:PRO:91     -1
Name: 64, dtype: object

>  <hydroph_interaction:PRO:91>  (65) 
hydroph_interaction:PRO:91    NaN
hydroph_interaction:PRO:91     -1
Name: 64, dtype: object

>  <halogenbond:PRO:91>  (65) 
halogenbond:PRO:91    NaN
halogenbond:PRO:91     -1
Name: 64, dtype: object

>  <hbond:ALA:92>  (65) 
hbond:ALA:92    NaN
hbond:ALA:92     -1
Name: 64, dtype: object

>  <hydroph_interaction:ALA:92>  (65) 
hydroph_interaction:ALA:92    NaN
hydroph_interaction:ALA:92     -1
Name: 64, dtype: object

>  <saltbridge:ARG:93>  (65) 
saltbridge:ARG:93    NaN
saltbridge:ARG:93     -1
Name: 64, dtype: object

>  <hbond:ARG:93>  (65) 
hbond:ARG:93    0.0
hbond:ARG:93      0
Name: 64, dtype: object

>  <hydroph_interaction:ARG:93>  (65) 
hydroph_interaction:ARG:93    NaN
hydroph_interaction:ARG:93     -1
Name: 64, dtype: object

>  <halogenbond:ARG:93>  (65) 
halogenbond:ARG:93    NaN
halogenbond:ARG:93     -1
Name: 64, dtype: object

>  <pication:ARG:93>  (65) 
pication:ARG:93    NaN
pication:ARG:93     -1
Name: 64, dtype: object

>  <hydroph_interaction:TYR:94>  (65) 
hydroph_interaction:TYR:94    NaN
hydroph_interaction:TYR:94     -1
Name: 64, dtype: object

>  <pistack:TYR:94>  (65) 
pistack:TYR:94    NaN
pistack:TYR:94     -1
Name: 64, dtype: object

>  <hbond:TYR:94>  (65) 
hbond:TYR:94    NaN
hbond:TYR:94     -1
Name: 64, dtype: object

>  <hbond:GLN:95>  (65) 
hbond:GLN:95    0.0
hbond:GLN:95      0
Name: 64, dtype: object

>  <hydroph_interaction:GLN:95>  (65) 
hydroph_interaction:GLN:95    0.0
hydroph_interaction:GLN:95      0
Name: 64, dtype: object

>  <halogenbond:GLN:95>  (65) 
halogenbond:GLN:95    NaN
halogenbond:GLN:95     -1
Name: 64, dtype: object

>  <hbond:SER:96>  (65) 
hbond:SER:96    NaN
hbond:SER:96     -1
Name: 64, dtype: object

>  <halogenbond:HIS:97>  (65) 
halogenbond:HIS:97    NaN
halogenbond:HIS:97     -1
Name: 64, dtype: object

>  <hydroph_interaction:LEU:98>  (65) 
hydroph_interaction:LEU:98    0.0
hydroph_interaction:LEU:98      0
Name: 64, dtype: object

>  <hbond:LEU:98>  (65) 
hbond:LEU:98    NaN
hbond:LEU:98     -1
Name: 64, dtype: object

>  <halogenbond:LEU:98>  (65) 
halogenbond:LEU:98    NaN
halogenbond:LEU:98     -1
Name: 64, dtype: object

>  <hbond:MET:99>  (65) 
hbond:MET:99    NaN
hbond:MET:99     -1
Name: 64, dtype: object

>  <hydroph_interaction:MET:99>  (65) 
hydroph_interaction:MET:99    NaN
hydroph_interaction:MET:99     -1
Name: 64, dtype: object

>  <halogenbond:MET:99>  (65) 
halogenbond:MET:99    NaN
halogenbond:MET:99     -1
Name: 64, dtype: object

>  <hydroph_interaction:LEU:100>  (65) 
hydroph_interaction:LEU:100    NaN
hydroph_interaction:LEU:100     -1
Name: 64, dtype: object

>  <hbond:LEU:100>  (65) 
hbond:LEU:100    NaN
hbond:LEU:100     -1
Name: 64, dtype: object

>  <hbond:ALA:101>  (65) 
hbond:ALA:101    NaN
hbond:ALA:101     -1
Name: 64, dtype: object

>  <hydroph_interaction:ALA:101>  (65) 
hydroph_interaction:ALA:101    NaN
hydroph_interaction:ALA:101     -1
Name: 64, dtype: object

>  <hydroph_interaction:VAL:102>  (65) 
hydroph_interaction:VAL:102    NaN
hydroph_interaction:VAL:102     -1
Name: 64, dtype: object

>  <hbond:VAL:102>  (65) 
hbond:VAL:102    NaN
hbond:VAL:102     -1
Name: 64, dtype: object

>  <hbond:GLY:103>  (65) 
hbond:GLY:103    NaN
hbond:GLY:103     -1
Name: 64, dtype: object

>  <halogenbond:GLY:103>  (65) 
halogenbond:GLY:103    NaN
halogenbond:GLY:103     -1
Name: 64, dtype: object

>  <hbond:HIS:104>  (65) 
hbond:HIS:104    NaN
hbond:HIS:104     -1
Name: 64, dtype: object

>  <saltbridge:HIS:104>  (65) 
saltbridge:HIS:104    NaN
saltbridge:HIS:104     -1
Name: 64, dtype: object

>  <pication:HIS:104>  (65) 
pication:HIS:104    NaN
pication:HIS:104     -1
Name: 64, dtype: object

>  <halogenbond:HIS:104>  (65) 
halogenbond:HIS:104    NaN
halogenbond:HIS:104     -1
Name: 64, dtype: object

>  <hydroph_interaction:HIS:104>  (65) 
hydroph_interaction:HIS:104    NaN
hydroph_interaction:HIS:104     -1
Name: 64, dtype: object

>  <pistack:HIS:104>  (65) 
pistack:HIS:104    NaN
pistack:HIS:104     -1
Name: 64, dtype: object

>  <halogenbond:SER:105>  (65) 
halogenbond:SER:105    0.0
halogenbond:SER:105      0
Name: 64, dtype: object

>  <hbond:SER:105>  (65) 
hbond:SER:105    0.0
hbond:SER:105      0
Name: 64, dtype: object

>  <hbond:GLU:106>  (65) 
hbond:GLU:106    0.0
hbond:GLU:106      0
Name: 64, dtype: object

>  <hydroph_interaction:GLU:106>  (65) 
hydroph_interaction:GLU:106    0.0
hydroph_interaction:GLU:106      0
Name: 64, dtype: object

>  <saltbridge:GLU:106>  (65) 
saltbridge:GLU:106    NaN
saltbridge:GLU:106     -1
Name: 64, dtype: object

>  <halogenbond:GLU:106>  (65) 
halogenbond:GLU:106    NaN
halogenbond:GLU:106     -1
Name: 64, dtype: object

>  <hydroph_interaction:PRO:107>  (65) 
hydroph_interaction:PRO:107    2
hydroph_interaction:PRO:107    2
Name: 64, dtype: object

>  <hbond:PRO:107>  (65) 
hbond:PRO:107    0.0
hbond:PRO:107      0
Name: 64, dtype: object

>  <halogenbond:PRO:107>  (65) 
halogenbond:PRO:107    NaN
halogenbond:PRO:107     -1
Name: 64, dtype: object

>  <hbond:GLY:108>  (65) 
hbond:GLY:108    NaN
hbond:GLY:108     -1
Name: 64, dtype: object

>  <halogenbond:GLY:108>  (65) 
halogenbond:GLY:108    NaN
halogenbond:GLY:108     -1
Name: 64, dtype: object

>  <hbond:ASP:109>  (65) 
hbond:ASP:109    0.0
hbond:ASP:109      0
Name: 64, dtype: object

>  <hydroph_interaction:ASP:109>  (65) 
hydroph_interaction:ASP:109    0.0
hydroph_interaction:ASP:109      0
Name: 64, dtype: object

>  <saltbridge:ASP:109>  (65) 
saltbridge:ASP:109    NaN
saltbridge:ASP:109     -1
Name: 64, dtype: object

>  <halogenbond:CYS:110>  (65) 
halogenbond:CYS:110    0.0
halogenbond:CYS:110      0
Name: 64, dtype: object

>  <hbond:CYS:110>  (65) 
hbond:CYS:110    0.0
hbond:CYS:110      0
Name: 64, dtype: object

>  <hbond:GLY:111>  (65) 
hbond:GLY:111    NaN
hbond:GLY:111     -1
Name: 64, dtype: object

>  <hbond:GLY:112>  (65) 
hbond:GLY:112    NaN
hbond:GLY:112     -1
Name: 64, dtype: object

>  <hbond:ILE:113>  (65) 
hbond:ILE:113    NaN
hbond:ILE:113     -1
Name: 64, dtype: object

>  <hydroph_interaction:LEU:114>  (65) 
hydroph_interaction:LEU:114    NaN
hydroph_interaction:LEU:114     -1
Name: 64, dtype: object

>  <hbond:LEU:114>  (65) 
hbond:LEU:114    NaN
hbond:LEU:114     -1
Name: 64, dtype: object

>  <hydroph_interaction:ILE:123>  (65) 
hydroph_interaction:ILE:123    NaN
hydroph_interaction:ILE:123     -1
Name: 64, dtype: object

>  <hbond:ILE:123>  (65) 
hbond:ILE:123    NaN
hbond:ILE:123     -1
Name: 64, dtype: object

>  <hydroph_interaction:VAL:124>  (65) 
hydroph_interaction:VAL:124    1.0
hydroph_interaction:VAL:124      1
Name: 64, dtype: object

>  <hbond:VAL:124>  (65) 
hbond:VAL:124    NaN
hbond:VAL:124     -1
Name: 64, dtype: object

>  <halogenbond:VAL:124>  (65) 
halogenbond:VAL:124    NaN
halogenbond:VAL:124     -1
Name: 64, dtype: object

>  <hbond:SER:125>  (65) 
hbond:SER:125    0
hbond:SER:125    0
Name: 64, dtype: object

>  <halogenbond:SER:125>  (65) 
halogenbond:SER:125    NaN
halogenbond:SER:125     -1
Name: 64, dtype: object

>  <hydroph_interaction:THR:126>  (65) 
hydroph_interaction:THR:126    0.0
hydroph_interaction:THR:126      0
Name: 64, dtype: object

>  <hbond:THR:126>  (65) 
hbond:THR:126    NaN
hbond:THR:126     -1
Name: 64, dtype: object

>  <halogenbond:THR:126>  (65) 
halogenbond:THR:126    NaN
halogenbond:THR:126     -1
Name: 64, dtype: object

>  <hbond:GLY:127>  (65) 
hbond:GLY:127    0
hbond:GLY:127    0
Name: 64, dtype: object

>  <halogenbond:GLY:127>  (65) 
halogenbond:GLY:127    NaN
halogenbond:GLY:127     -1
Name: 64, dtype: object

>  <hydroph_interaction:GLY:127>  (65) 
hydroph_interaction:GLY:127    NaN
hydroph_interaction:GLY:127     -1
Name: 64, dtype: object

>  <hbond:GLY:128>  (65) 
hbond:GLY:128    NaN
hbond:GLY:128     -1
Name: 64, dtype: object

>  <halogenbond:GLY:128>  (65) 
halogenbond:GLY:128    NaN
halogenbond:GLY:128     -1
Name: 64, dtype: object

>  <hydroph_interaction:GLY:128>  (65) 
hydroph_interaction:GLY:128    NaN
hydroph_interaction:GLY:128     -1
Name: 64, dtype: object

>  <hbond:ASN:129>  (65) 
hbond:ASN:129    NaN
hbond:ASN:129     -1
Name: 64, dtype: object

>  <hydroph_interaction:ASN:129>  (65) 
hydroph_interaction:ASN:129    NaN
hydroph_interaction:ASN:129     -1
Name: 64, dtype: object

>  <halogenbond:ASN:129>  (65) 
halogenbond:ASN:129    NaN
halogenbond:ASN:129     -1
Name: 64, dtype: object

>  <hbond:GLY:130>  (65) 
hbond:GLY:130    NaN
hbond:GLY:130     -1
Name: 64, dtype: object

>  <hbond:LEU:131>  (65) 
hbond:LEU:131    0.0
hbond:LEU:131      0
Name: 64, dtype: object

>  <hydroph_interaction:LEU:131>  (65) 
hydroph_interaction:LEU:131    NaN
hydroph_interaction:LEU:131     -1
Name: 64, dtype: object

>  <halogenbond:LEU:131>  (65) 
halogenbond:LEU:131    NaN
halogenbond:LEU:131     -1
Name: 64, dtype: object

>  <hydroph_interaction:VAL:132>  (65) 
hydroph_interaction:VAL:132    0.0
hydroph_interaction:VAL:132      0
Name: 64, dtype: object

>  <hbond:VAL:132>  (65) 
hbond:VAL:132    NaN
hbond:VAL:132     -1
Name: 64, dtype: object

>  <hbond:GLY:133>  (65) 
hbond:GLY:133    0.0
hbond:GLY:133      0
Name: 64, dtype: object

>  <halogenbond:GLY:133>  (65) 
halogenbond:GLY:133    NaN
halogenbond:GLY:133     -1
Name: 64, dtype: object

>  <hydroph_interaction:PHE:134>  (65) 
hydroph_interaction:PHE:134    NaN
hydroph_interaction:PHE:134     -1
Name: 64, dtype: object

>  <hbond:PHE:134>  (65) 
hbond:PHE:134    NaN
hbond:PHE:134     -1
Name: 64, dtype: object

>  <pistack:PHE:134>  (65) 
pistack:PHE:134    NaN
pistack:PHE:134     -1
Name: 64, dtype: object

>  <pication:PHE:134>  (65) 
pication:PHE:134    NaN
pication:PHE:134     -1
Name: 64, dtype: object

>  <halogenbond:PHE:134>  (65) 
halogenbond:PHE:134    NaN
halogenbond:PHE:134     -1
Name: 64, dtype: object

>  <hydroph_interaction:ALA:135>  (65) 
hydroph_interaction:ALA:135    0.0
hydroph_interaction:ALA:135      0
Name: 64, dtype: object

>  <hbond:ALA:135>  (65) 
hbond:ALA:135    NaN
hbond:ALA:135     -1
Name: 64, dtype: object

$$$$
Z3219856995
     RDKit          3D

 22 22  0  0  0  0  0  0  0  0999 V2000
    9.9180    9.3410   22.8230 C   0  0  0  0  0  0  0  0  0  0  0  0
    9.3480   10.5500   23.4850 C   0  0  0  0  0  0  0  0  0  0  0  0
    9.8290   11.9240   23.0790 C   0  0  0  0  0  0  0  0  0  0  0  0
    9.1680   13.0740   23.8380 C   0  0  0  0  0  0  0  0  0  0  0  0
    8.2060   12.8680   24.8170 C   0  0  0  0  0  0  0  0  0  0  0  0
    7.5750   13.8770   25.5580 C   0  0  0  0  0  0  0  0  0  0  0  0
    7.2140   13.6320   26.7080 O   0  0  0  0  0  0  0  0  0  0  0  0
    7.3650   15.1380   24.9930 N   0  0  0  0  0  0  0  0  0  0  0  0
    6.5520   16.0030   25.6430 N   0  0  0  0  0  0  0  0  0  0  0  0
    7.8200   11.5900   25.1190 C   0  0  0  0  0  0  0  0  0  0  0  0
    8.3720   10.5160   24.4780 C   0  0  0  0  0  0  0  0  0  0  0  0
    7.7840    9.3940   24.9960 O   0  0  0  0  0  0  0  0  0  0  0  0
   10.3760    9.6240   21.8720 H   0  0  0  0  0  0  0  0  0  0  0  0
   10.6690    8.8690   23.4550 H   0  0  0  0  0  0  0  0  0  0  0  0
    9.1430    8.6100   22.6060 H   0  0  0  0  0  0  0  0  0  0  0  0
   10.5880   12.0940   22.3110 H   0  0  0  0  0  0  0  0  0  0  0  0
    9.5330   14.0590   23.5320 H   0  0  0  0  0  0  0  0  0  0  0  0
    7.6190   15.3640   24.0260 H   0  0  0  0  0  0  0  0  0  0  0  0
    5.5750   15.7020   25.4580 H   0  0  0  0  0  0  0  0  0  0  0  0
    6.5590   16.9200   25.1350 H   0  0  0  0  0  0  0  0  0  0  0  0
    7.0600   11.4160   25.8860 H   0  0  0  0  0  0  0  0  0  0  0  0
    7.4560    8.8300   24.3070 H   0  0  0  0  0  0  0  0  0  0  0  0
  1  2  1  0
  2  3  2  0
  3  4  1  0
  4  5  2  0
  5  6  1  0
  6  7  2  0
  6  8  1  0
  8  9  1  0
  5 10  1  0
 10 11  2  0
 11 12  1  0
 11  2  1  0
  1 13  1  0
  1 14  1  0
  1 15  1  0
  3 16  1  0
  4 17  1  0
  8 18  1  0
  9 19  1  0
  9 20  1  0
 10 21  1  0
 12 22  1  0
A    1
 C1 
A    2
 C2 
A    3
 C3 
A    4
 C4 
A    5
 C5 
A    6
 C6 
A    7
 O1 
A    8
 N1 
A    9
 N2 
A   10
 C7 
A   11
 C8 
A   12
 O2 
A   13
 H1 
A   14
 H2 
A   15
 H3 
A   16
 H4 
A   17
 H5 
A   18
 H6 
A   19
 H7 
A   20
 H8 
A   21
 H9 
A   22
 H10
M  END
>  <ref_pdb>  (66) 
x0310_0A

>  <ref_mols>  (66) 
x0416_0A,x0416_0A

>  <original SMILES>  (66) 
Cc1ccc(C(=O)NN)cc1O

>  <rationale>  (66) 
info halogenbond:G127+D39+E85+Q95+E106+E88+T126+P107+H104+Y64+C65+S87+N129+F83+R93+I82+P91+N19+H21+V84+G133+Y90+Y89+H97+L81+F134+L98+R20+G103+S66+S67+S7+G108+R38+V124+M99+S36; hbond:S87+S105+D39+E85+G108+G103+H104+R68+V124+R93+P91+S67+S7+S66+G112+V132+R20+Y89+S77+A135+Y63+A92+A101+M99+F134+L100+I82+Y64+S36+L98+V84+L81+Y94+S80+R38+S37+V102+G8+I123+G111+I113+L114+C65+L22+S96; hydroph_interaction:V124+H21+P107+D39+N19+L40+I123+A135+Q95+F83+R93+F134+H104+R20+A86+V74+P91+A101+F76+M99+L114+A92+Y94+R68+Y72+Y64+V18+V102+W28+G127+G128+L81; pication:H21+H104+R93+Y63+F134+Y90+R68+F83+R20; pistack:H21+Y89+H104+F134+Y63+F83+Y94; saltbridge:D39+R93+H104+E106+D109+R68+R20; 

>  <intxn_cluster>  (66) 
-1

>  <intxn_cluster_rank>  (66) 
-1

>  <N_interactions>  (66) 
6

>  <∆∆G>  (66) 
-8.903758

>  <$/mg>  (66) 
82.1

>  <comRMSD>  (66) 
0.904406

>  <N_rotatable_bonds>  (66) 
4

>  <deep_P1_sidechain>  (66) 
nan

>  <farthest_distance_to_substrate>  (66) 
3.253399

>  <hbond:SER:7>  (66) 
hbond:SER:7    NaN
hbond:SER:7     -1
Name: 65, dtype: object

>  <halogenbond:SER:7>  (66) 
halogenbond:SER:7    NaN
halogenbond:SER:7     -1
Name: 65, dtype: object

>  <hbond:GLY:8>  (66) 
hbond:GLY:8    NaN
hbond:GLY:8     -1
Name: 65, dtype: object

>  <hydroph_interaction:VAL:18>  (66) 
hydroph_interaction:VAL:18    NaN
hydroph_interaction:VAL:18     -1
Name: 65, dtype: object

>  <hbond:ASN:19>  (66) 
hbond:ASN:19    0.0
hbond:ASN:19      0
Name: 65, dtype: object

>  <hydroph_interaction:ASN:19>  (66) 
hydroph_interaction:ASN:19    NaN
hydroph_interaction:ASN:19     -1
Name: 65, dtype: object

>  <halogenbond:ASN:19>  (66) 
halogenbond:ASN:19    NaN
halogenbond:ASN:19     -1
Name: 65, dtype: object

>  <hbond:ARG:20>  (66) 
hbond:ARG:20    NaN
hbond:ARG:20     -1
Name: 65, dtype: object

>  <hydroph_interaction:ARG:20>  (66) 
hydroph_interaction:ARG:20    NaN
hydroph_interaction:ARG:20     -1
Name: 65, dtype: object

>  <saltbridge:ARG:20>  (66) 
saltbridge:ARG:20    NaN
saltbridge:ARG:20     -1
Name: 65, dtype: object

>  <halogenbond:ARG:20>  (66) 
halogenbond:ARG:20    NaN
halogenbond:ARG:20     -1
Name: 65, dtype: object

>  <pication:ARG:20>  (66) 
pication:ARG:20    NaN
pication:ARG:20     -1
Name: 65, dtype: object

>  <hbond:HIS:21>  (66) 
hbond:HIS:21    0.0
hbond:HIS:21      0
Name: 65, dtype: object

>  <hydroph_interaction:HIS:21>  (66) 
hydroph_interaction:HIS:21    NaN
hydroph_interaction:HIS:21     -1
Name: 65, dtype: object

>  <pistack:HIS:21>  (66) 
pistack:HIS:21    NaN
pistack:HIS:21     -1
Name: 65, dtype: object

>  <pication:HIS:21>  (66) 
pication:HIS:21    NaN
pication:HIS:21     -1
Name: 65, dtype: object

>  <saltbridge:HIS:21>  (66) 
saltbridge:HIS:21    0.0
saltbridge:HIS:21      0
Name: 65, dtype: object

>  <halogenbond:HIS:21>  (66) 
halogenbond:HIS:21    NaN
halogenbond:HIS:21     -1
Name: 65, dtype: object

>  <hydroph_interaction:LEU:22>  (66) 
hydroph_interaction:LEU:22    0.0
hydroph_interaction:LEU:22      0
Name: 65, dtype: object

>  <hbond:LEU:22>  (66) 
hbond:LEU:22    NaN
hbond:LEU:22     -1
Name: 65, dtype: object

>  <hydroph_interaction:TRP:28>  (66) 
hydroph_interaction:TRP:28    NaN
hydroph_interaction:TRP:28     -1
Name: 65, dtype: object

>  <hbond:SER:36>  (66) 
hbond:SER:36    NaN
hbond:SER:36     -1
Name: 65, dtype: object

>  <halogenbond:SER:36>  (66) 
halogenbond:SER:36    NaN
halogenbond:SER:36     -1
Name: 65, dtype: object

>  <hbond:SER:37>  (66) 
hbond:SER:37    NaN
hbond:SER:37     -1
Name: 65, dtype: object

>  <hbond:ARG:38>  (66) 
hbond:ARG:38    NaN
hbond:ARG:38     -1
Name: 65, dtype: object

>  <halogenbond:ARG:38>  (66) 
halogenbond:ARG:38    NaN
halogenbond:ARG:38     -1
Name: 65, dtype: object

>  <saltbridge:ASP:39>  (66) 
saltbridge:ASP:39    NaN
saltbridge:ASP:39     -1
Name: 65, dtype: object

>  <halogenbond:ASP:39>  (66) 
halogenbond:ASP:39    NaN
halogenbond:ASP:39     -1
Name: 65, dtype: object

>  <hbond:ASP:39>  (66) 
hbond:ASP:39    NaN
hbond:ASP:39     -1
Name: 65, dtype: object

>  <hydroph_interaction:ASP:39>  (66) 
hydroph_interaction:ASP:39    NaN
hydroph_interaction:ASP:39     -1
Name: 65, dtype: object

>  <hydroph_interaction:LEU:40>  (66) 
hydroph_interaction:LEU:40    NaN
hydroph_interaction:LEU:40     -1
Name: 65, dtype: object

>  <hydroph_interaction:TYR:63>  (66) 
hydroph_interaction:TYR:63    0.0
hydroph_interaction:TYR:63      0
Name: 65, dtype: object

>  <hbond:TYR:63>  (66) 
hbond:TYR:63    NaN
hbond:TYR:63     -1
Name: 65, dtype: object

>  <pistack:TYR:63>  (66) 
pistack:TYR:63    NaN
pistack:TYR:63     -1
Name: 65, dtype: object

>  <pication:TYR:63>  (66) 
pication:TYR:63    NaN
pication:TYR:63     -1
Name: 65, dtype: object

>  <halogenbond:TYR:64>  (66) 
halogenbond:TYR:64    NaN
halogenbond:TYR:64     -1
Name: 65, dtype: object

>  <hbond:TYR:64>  (66) 
hbond:TYR:64    NaN
hbond:TYR:64     -1
Name: 65, dtype: object

>  <hydroph_interaction:TYR:64>  (66) 
hydroph_interaction:TYR:64    NaN
hydroph_interaction:TYR:64     -1
Name: 65, dtype: object

>  <halogenbond:CYS:65>  (66) 
halogenbond:CYS:65    NaN
halogenbond:CYS:65     -1
Name: 65, dtype: object

>  <hbond:CYS:65>  (66) 
hbond:CYS:65    NaN
hbond:CYS:65     -1
Name: 65, dtype: object

>  <hbond:SER:66>  (66) 
hbond:SER:66    NaN
hbond:SER:66     -1
Name: 65, dtype: object

>  <halogenbond:SER:66>  (66) 
halogenbond:SER:66    NaN
halogenbond:SER:66     -1
Name: 65, dtype: object

>  <hbond:SER:67>  (66) 
hbond:SER:67    NaN
hbond:SER:67     -1
Name: 65, dtype: object

>  <halogenbond:SER:67>  (66) 
halogenbond:SER:67    NaN
halogenbond:SER:67     -1
Name: 65, dtype: object

>  <hbond:ARG:68>  (66) 
hbond:ARG:68    NaN
hbond:ARG:68     -1
Name: 65, dtype: object

>  <saltbridge:ARG:68>  (66) 
saltbridge:ARG:68    NaN
saltbridge:ARG:68     -1
Name: 65, dtype: object

>  <hydroph_interaction:ARG:68>  (66) 
hydroph_interaction:ARG:68    NaN
hydroph_interaction:ARG:68     -1
Name: 65, dtype: object

>  <pication:ARG:68>  (66) 
pication:ARG:68    NaN
pication:ARG:68     -1
Name: 65, dtype: object

>  <hydroph_interaction:TYR:72>  (66) 
hydroph_interaction:TYR:72    NaN
hydroph_interaction:TYR:72     -1
Name: 65, dtype: object

>  <hydroph_interaction:VAL:74>  (66) 
hydroph_interaction:VAL:74    NaN
hydroph_interaction:VAL:74     -1
Name: 65, dtype: object

>  <hydroph_interaction:PHE:76>  (66) 
hydroph_interaction:PHE:76    NaN
hydroph_interaction:PHE:76     -1
Name: 65, dtype: object

>  <hbond:SER:77>  (66) 
hbond:SER:77    NaN
hbond:SER:77     -1
Name: 65, dtype: object

>  <hbond:SER:80>  (66) 
hbond:SER:80    NaN
hbond:SER:80     -1
Name: 65, dtype: object

>  <hbond:LEU:81>  (66) 
hbond:LEU:81    NaN
hbond:LEU:81     -1
Name: 65, dtype: object

>  <halogenbond:LEU:81>  (66) 
halogenbond:LEU:81    NaN
halogenbond:LEU:81     -1
Name: 65, dtype: object

>  <hydroph_interaction:LEU:81>  (66) 
hydroph_interaction:LEU:81    NaN
hydroph_interaction:LEU:81     -1
Name: 65, dtype: object

>  <hydroph_interaction:ILE:82>  (66) 
hydroph_interaction:ILE:82    0.0
hydroph_interaction:ILE:82      0
Name: 65, dtype: object

>  <halogenbond:ILE:82>  (66) 
halogenbond:ILE:82    NaN
halogenbond:ILE:82     -1
Name: 65, dtype: object

>  <hbond:ILE:82>  (66) 
hbond:ILE:82    NaN
hbond:ILE:82     -1
Name: 65, dtype: object

>  <hbond:PHE:83>  (66) 
hbond:PHE:83    0.0
hbond:PHE:83      0
Name: 65, dtype: object

>  <hydroph_interaction:PHE:83>  (66) 
hydroph_interaction:PHE:83    NaN
hydroph_interaction:PHE:83     -1
Name: 65, dtype: object

>  <halogenbond:PHE:83>  (66) 
halogenbond:PHE:83    NaN
halogenbond:PHE:83     -1
Name: 65, dtype: object

>  <pistack:PHE:83>  (66) 
pistack:PHE:83    NaN
pistack:PHE:83     -1
Name: 65, dtype: object

>  <pication:PHE:83>  (66) 
pication:PHE:83    NaN
pication:PHE:83     -1
Name: 65, dtype: object

>  <hydroph_interaction:VAL:84>  (66) 
hydroph_interaction:VAL:84    0.0
hydroph_interaction:VAL:84      0
Name: 65, dtype: object

>  <halogenbond:VAL:84>  (66) 
halogenbond:VAL:84    NaN
halogenbond:VAL:84     -1
Name: 65, dtype: object

>  <hbond:VAL:84>  (66) 
hbond:VAL:84    NaN
hbond:VAL:84     -1
Name: 65, dtype: object

>  <hydroph_interaction:GLU:85>  (66) 
hydroph_interaction:GLU:85    0.0
hydroph_interaction:GLU:85      0
Name: 65, dtype: object

>  <hbond:GLU:85>  (66) 
hbond:GLU:85    2.0
hbond:GLU:85      2
Name: 65, dtype: object

>  <halogenbond:GLU:85>  (66) 
halogenbond:GLU:85    NaN
halogenbond:GLU:85     -1
Name: 65, dtype: object

>  <saltbridge:GLU:85>  (66) 
saltbridge:GLU:85    0.0
saltbridge:GLU:85      0
Name: 65, dtype: object

>  <halogenbond:ALA:86>  (66) 
halogenbond:ALA:86    0.0
halogenbond:ALA:86      0
Name: 65, dtype: object

>  <hbond:ALA:86>  (66) 
hbond:ALA:86    0.0
hbond:ALA:86      0
Name: 65, dtype: object

>  <hydroph_interaction:ALA:86>  (66) 
hydroph_interaction:ALA:86    NaN
hydroph_interaction:ALA:86     -1
Name: 65, dtype: object

>  <hbond:SER:87>  (66) 
hbond:SER:87    1
hbond:SER:87    1
Name: 65, dtype: object

>  <halogenbond:SER:87>  (66) 
halogenbond:SER:87    NaN
halogenbond:SER:87     -1
Name: 65, dtype: object

>  <hbond:GLU:88>  (66) 
hbond:GLU:88    0.0
hbond:GLU:88      0
Name: 65, dtype: object

>  <hydroph_interaction:GLU:88>  (66) 
hydroph_interaction:GLU:88    0.0
hydroph_interaction:GLU:88      0
Name: 65, dtype: object

>  <halogenbond:GLU:88>  (66) 
halogenbond:GLU:88    NaN
halogenbond:GLU:88     -1
Name: 65, dtype: object

>  <saltbridge:GLU:88>  (66) 
saltbridge:GLU:88    0.0
saltbridge:GLU:88      0
Name: 65, dtype: object

>  <hydroph_interaction:TYR:89>  (66) 
hydroph_interaction:TYR:89    0.0
hydroph_interaction:TYR:89      0
Name: 65, dtype: object

>  <pistack:TYR:89>  (66) 
pistack:TYR:89    NaN
pistack:TYR:89     -1
Name: 65, dtype: object

>  <hbond:TYR:89>  (66) 
hbond:TYR:89    NaN
hbond:TYR:89     -1
Name: 65, dtype: object

>  <halogenbond:TYR:89>  (66) 
halogenbond:TYR:89    NaN
halogenbond:TYR:89     -1
Name: 65, dtype: object

>  <hydroph_interaction:TYR:90>  (66) 
hydroph_interaction:TYR:90    0.0
hydroph_interaction:TYR:90      0
Name: 65, dtype: object

>  <hbond:TYR:90>  (66) 
hbond:TYR:90    0.0
hbond:TYR:90      0
Name: 65, dtype: object

>  <pistack:TYR:90>  (66) 
pistack:TYR:90    0.0
pistack:TYR:90      0
Name: 65, dtype: object

>  <halogenbond:TYR:90>  (66) 
halogenbond:TYR:90    NaN
halogenbond:TYR:90     -1
Name: 65, dtype: object

>  <pication:TYR:90>  (66) 
pication:TYR:90    NaN
pication:TYR:90     -1
Name: 65, dtype: object

>  <hbond:PRO:91>  (66) 
hbond:PRO:91    NaN
hbond:PRO:91     -1
Name: 65, dtype: object

>  <hydroph_interaction:PRO:91>  (66) 
hydroph_interaction:PRO:91    NaN
hydroph_interaction:PRO:91     -1
Name: 65, dtype: object

>  <halogenbond:PRO:91>  (66) 
halogenbond:PRO:91    NaN
halogenbond:PRO:91     -1
Name: 65, dtype: object

>  <hbond:ALA:92>  (66) 
hbond:ALA:92    NaN
hbond:ALA:92     -1
Name: 65, dtype: object

>  <hydroph_interaction:ALA:92>  (66) 
hydroph_interaction:ALA:92    NaN
hydroph_interaction:ALA:92     -1
Name: 65, dtype: object

>  <saltbridge:ARG:93>  (66) 
saltbridge:ARG:93    NaN
saltbridge:ARG:93     -1
Name: 65, dtype: object

>  <hbond:ARG:93>  (66) 
hbond:ARG:93    NaN
hbond:ARG:93     -1
Name: 65, dtype: object

>  <hydroph_interaction:ARG:93>  (66) 
hydroph_interaction:ARG:93    NaN
hydroph_interaction:ARG:93     -1
Name: 65, dtype: object

>  <halogenbond:ARG:93>  (66) 
halogenbond:ARG:93    NaN
halogenbond:ARG:93     -1
Name: 65, dtype: object

>  <pication:ARG:93>  (66) 
pication:ARG:93    NaN
pication:ARG:93     -1
Name: 65, dtype: object

>  <hydroph_interaction:TYR:94>  (66) 
hydroph_interaction:TYR:94    NaN
hydroph_interaction:TYR:94     -1
Name: 65, dtype: object

>  <pistack:TYR:94>  (66) 
pistack:TYR:94    NaN
pistack:TYR:94     -1
Name: 65, dtype: object

>  <hbond:TYR:94>  (66) 
hbond:TYR:94    NaN
hbond:TYR:94     -1
Name: 65, dtype: object

>  <hbond:GLN:95>  (66) 
hbond:GLN:95    0.0
hbond:GLN:95      0
Name: 65, dtype: object

>  <hydroph_interaction:GLN:95>  (66) 
hydroph_interaction:GLN:95    NaN
hydroph_interaction:GLN:95     -1
Name: 65, dtype: object

>  <halogenbond:GLN:95>  (66) 
halogenbond:GLN:95    NaN
halogenbond:GLN:95     -1
Name: 65, dtype: object

>  <hbond:SER:96>  (66) 
hbond:SER:96    NaN
hbond:SER:96     -1
Name: 65, dtype: object

>  <halogenbond:HIS:97>  (66) 
halogenbond:HIS:97    NaN
halogenbond:HIS:97     -1
Name: 65, dtype: object

>  <hydroph_interaction:LEU:98>  (66) 
hydroph_interaction:LEU:98    0.0
hydroph_interaction:LEU:98      0
Name: 65, dtype: object

>  <hbond:LEU:98>  (66) 
hbond:LEU:98    NaN
hbond:LEU:98     -1
Name: 65, dtype: object

>  <halogenbond:LEU:98>  (66) 
halogenbond:LEU:98    NaN
halogenbond:LEU:98     -1
Name: 65, dtype: object

>  <hbond:MET:99>  (66) 
hbond:MET:99    NaN
hbond:MET:99     -1
Name: 65, dtype: object

>  <hydroph_interaction:MET:99>  (66) 
hydroph_interaction:MET:99    NaN
hydroph_interaction:MET:99     -1
Name: 65, dtype: object

>  <halogenbond:MET:99>  (66) 
halogenbond:MET:99    NaN
halogenbond:MET:99     -1
Name: 65, dtype: object

>  <hydroph_interaction:LEU:100>  (66) 
hydroph_interaction:LEU:100    0.0
hydroph_interaction:LEU:100      0
Name: 65, dtype: object

>  <hbond:LEU:100>  (66) 
hbond:LEU:100    NaN
hbond:LEU:100     -1
Name: 65, dtype: object

>  <hbond:ALA:101>  (66) 
hbond:ALA:101    NaN
hbond:ALA:101     -1
Name: 65, dtype: object

>  <hydroph_interaction:ALA:101>  (66) 
hydroph_interaction:ALA:101    NaN
hydroph_interaction:ALA:101     -1
Name: 65, dtype: object

>  <hydroph_interaction:VAL:102>  (66) 
hydroph_interaction:VAL:102    NaN
hydroph_interaction:VAL:102     -1
Name: 65, dtype: object

>  <hbond:VAL:102>  (66) 
hbond:VAL:102    NaN
hbond:VAL:102     -1
Name: 65, dtype: object

>  <hbond:GLY:103>  (66) 
hbond:GLY:103    NaN
hbond:GLY:103     -1
Name: 65, dtype: object

>  <halogenbond:GLY:103>  (66) 
halogenbond:GLY:103    NaN
halogenbond:GLY:103     -1
Name: 65, dtype: object

>  <hbond:HIS:104>  (66) 
hbond:HIS:104    NaN
hbond:HIS:104     -1
Name: 65, dtype: object

>  <saltbridge:HIS:104>  (66) 
saltbridge:HIS:104    NaN
saltbridge:HIS:104     -1
Name: 65, dtype: object

>  <pication:HIS:104>  (66) 
pication:HIS:104    NaN
pication:HIS:104     -1
Name: 65, dtype: object

>  <halogenbond:HIS:104>  (66) 
halogenbond:HIS:104    NaN
halogenbond:HIS:104     -1
Name: 65, dtype: object

>  <hydroph_interaction:HIS:104>  (66) 
hydroph_interaction:HIS:104    NaN
hydroph_interaction:HIS:104     -1
Name: 65, dtype: object

>  <pistack:HIS:104>  (66) 
pistack:HIS:104    NaN
pistack:HIS:104     -1
Name: 65, dtype: object

>  <halogenbond:SER:105>  (66) 
halogenbond:SER:105    0.0
halogenbond:SER:105      0
Name: 65, dtype: object

>  <hbond:SER:105>  (66) 
hbond:SER:105    1.0
hbond:SER:105      1
Name: 65, dtype: object

>  <hbond:GLU:106>  (66) 
hbond:GLU:106    0.0
hbond:GLU:106      0
Name: 65, dtype: object

>  <hydroph_interaction:GLU:106>  (66) 
hydroph_interaction:GLU:106    0.0
hydroph_interaction:GLU:106      0
Name: 65, dtype: object

>  <saltbridge:GLU:106>  (66) 
saltbridge:GLU:106    NaN
saltbridge:GLU:106     -1
Name: 65, dtype: object

>  <halogenbond:GLU:106>  (66) 
halogenbond:GLU:106    NaN
halogenbond:GLU:106     -1
Name: 65, dtype: object

>  <hydroph_interaction:PRO:107>  (66) 
hydroph_interaction:PRO:107    1
hydroph_interaction:PRO:107    1
Name: 65, dtype: object

>  <hbond:PRO:107>  (66) 
hbond:PRO:107    0.0
hbond:PRO:107      0
Name: 65, dtype: object

>  <halogenbond:PRO:107>  (66) 
halogenbond:PRO:107    NaN
halogenbond:PRO:107     -1
Name: 65, dtype: object

>  <hbond:GLY:108>  (66) 
hbond:GLY:108    NaN
hbond:GLY:108     -1
Name: 65, dtype: object

>  <halogenbond:GLY:108>  (66) 
halogenbond:GLY:108    NaN
halogenbond:GLY:108     -1
Name: 65, dtype: object

>  <hbond:ASP:109>  (66) 
hbond:ASP:109    0.0
hbond:ASP:109      0
Name: 65, dtype: object

>  <hydroph_interaction:ASP:109>  (66) 
hydroph_interaction:ASP:109    0.0
hydroph_interaction:ASP:109      0
Name: 65, dtype: object

>  <saltbridge:ASP:109>  (66) 
saltbridge:ASP:109    NaN
saltbridge:ASP:109     -1
Name: 65, dtype: object

>  <halogenbond:CYS:110>  (66) 
halogenbond:CYS:110    0.0
halogenbond:CYS:110      0
Name: 65, dtype: object

>  <hbond:CYS:110>  (66) 
hbond:CYS:110    0.0
hbond:CYS:110      0
Name: 65, dtype: object

>  <hbond:GLY:111>  (66) 
hbond:GLY:111    NaN
hbond:GLY:111     -1
Name: 65, dtype: object

>  <hbond:GLY:112>  (66) 
hbond:GLY:112    NaN
hbond:GLY:112     -1
Name: 65, dtype: object

>  <hbond:ILE:113>  (66) 
hbond:ILE:113    NaN
hbond:ILE:113     -1
Name: 65, dtype: object

>  <hydroph_interaction:LEU:114>  (66) 
hydroph_interaction:LEU:114    NaN
hydroph_interaction:LEU:114     -1
Name: 65, dtype: object

>  <hbond:LEU:114>  (66) 
hbond:LEU:114    NaN
hbond:LEU:114     -1
Name: 65, dtype: object

>  <hydroph_interaction:ILE:123>  (66) 
hydroph_interaction:ILE:123    NaN
hydroph_interaction:ILE:123     -1
Name: 65, dtype: object

>  <hbond:ILE:123>  (66) 
hbond:ILE:123    NaN
hbond:ILE:123     -1
Name: 65, dtype: object

>  <hydroph_interaction:VAL:124>  (66) 
hydroph_interaction:VAL:124    1.0
hydroph_interaction:VAL:124      1
Name: 65, dtype: object

>  <hbond:VAL:124>  (66) 
hbond:VAL:124    NaN
hbond:VAL:124     -1
Name: 65, dtype: object

>  <halogenbond:VAL:124>  (66) 
halogenbond:VAL:124    NaN
halogenbond:VAL:124     -1
Name: 65, dtype: object

>  <hbond:SER:125>  (66) 
hbond:SER:125    0
hbond:SER:125    0
Name: 65, dtype: object

>  <halogenbond:SER:125>  (66) 
halogenbond:SER:125    0.0
halogenbond:SER:125      0
Name: 65, dtype: object

>  <hydroph_interaction:THR:126>  (66) 
hydroph_interaction:THR:126    0.0
hydroph_interaction:THR:126      0
Name: 65, dtype: object

>  <hbond:THR:126>  (66) 
hbond:THR:126    0.0
hbond:THR:126      0
Name: 65, dtype: object

>  <halogenbond:THR:126>  (66) 
halogenbond:THR:126    NaN
halogenbond:THR:126     -1
Name: 65, dtype: object

>  <hbond:GLY:127>  (66) 
hbond:GLY:127    0
hbond:GLY:127    0
Name: 65, dtype: object

>  <halogenbond:GLY:127>  (66) 
halogenbond:GLY:127    NaN
halogenbond:GLY:127     -1
Name: 65, dtype: object

>  <hydroph_interaction:GLY:127>  (66) 
hydroph_interaction:GLY:127    NaN
hydroph_interaction:GLY:127     -1
Name: 65, dtype: object

>  <hbond:GLY:128>  (66) 
hbond:GLY:128    0.0
hbond:GLY:128      0
Name: 65, dtype: object

>  <halogenbond:GLY:128>  (66) 
halogenbond:GLY:128    0.0
halogenbond:GLY:128      0
Name: 65, dtype: object

>  <hydroph_interaction:GLY:128>  (66) 
hydroph_interaction:GLY:128    NaN
hydroph_interaction:GLY:128     -1
Name: 65, dtype: object

>  <hbond:ASN:129>  (66) 
hbond:ASN:129    0.0
hbond:ASN:129      0
Name: 65, dtype: object

>  <hydroph_interaction:ASN:129>  (66) 
hydroph_interaction:ASN:129    0.0
hydroph_interaction:ASN:129      0
Name: 65, dtype: object

>  <halogenbond:ASN:129>  (66) 
halogenbond:ASN:129    NaN
halogenbond:ASN:129     -1
Name: 65, dtype: object

>  <hbond:GLY:130>  (66) 
hbond:GLY:130    0.0
hbond:GLY:130      0
Name: 65, dtype: object

>  <hbond:LEU:131>  (66) 
hbond:LEU:131    0.0
hbond:LEU:131      0
Name: 65, dtype: object

>  <hydroph_interaction:LEU:131>  (66) 
hydroph_interaction:LEU:131    0.0
hydroph_interaction:LEU:131      0
Name: 65, dtype: object

>  <halogenbond:LEU:131>  (66) 
halogenbond:LEU:131    0.0
halogenbond:LEU:131      0
Name: 65, dtype: object

>  <hydroph_interaction:VAL:132>  (66) 
hydroph_interaction:VAL:132    0.0
hydroph_interaction:VAL:132      0
Name: 65, dtype: object

>  <hbond:VAL:132>  (66) 
hbond:VAL:132    NaN
hbond:VAL:132     -1
Name: 65, dtype: object

>  <hbond:GLY:133>  (66) 
hbond:GLY:133    0.0
hbond:GLY:133      0
Name: 65, dtype: object

>  <halogenbond:GLY:133>  (66) 
halogenbond:GLY:133    NaN
halogenbond:GLY:133     -1
Name: 65, dtype: object

>  <hydroph_interaction:PHE:134>  (66) 
hydroph_interaction:PHE:134    NaN
hydroph_interaction:PHE:134     -1
Name: 65, dtype: object

>  <hbond:PHE:134>  (66) 
hbond:PHE:134    NaN
hbond:PHE:134     -1
Name: 65, dtype: object

>  <pistack:PHE:134>  (66) 
pistack:PHE:134    NaN
pistack:PHE:134     -1
Name: 65, dtype: object

>  <pication:PHE:134>  (66) 
pication:PHE:134    NaN
pication:PHE:134     -1
Name: 65, dtype: object

>  <halogenbond:PHE:134>  (66) 
halogenbond:PHE:134    NaN
halogenbond:PHE:134     -1
Name: 65, dtype: object

>  <hydroph_interaction:ALA:135>  (66) 
hydroph_interaction:ALA:135    NaN
hydroph_interaction:ALA:135     -1
Name: 65, dtype: object

>  <hbond:ALA:135>  (66) 
hbond:ALA:135    NaN
hbond:ALA:135     -1
Name: 65, dtype: object

$$$$
Z3465836346
     RDKit          3D

 32 34  0  0  0  0  0  0  0  0999 V2000
   13.3260   16.2770   20.5000 C   0  0  0  0  0  0  0  0  0  0  0  0
   12.3210   15.3660   21.1250 C   0  0  0  0  0  0  0  0  0  0  0  0
   10.8660   15.5030   20.7100 C   0  0  0  0  0  0  0  0  0  0  0  0
    9.9560   14.5270   21.3850 C   0  0  0  0  0  0  0  0  0  0  0  0
   10.4830   13.6070   22.2980 C   0  0  0  0  0  0  0  0  0  0  0  0
    9.8070   12.6360   22.9650 C   0  0  0  0  0  0  0  0  0  0  0  0
   10.1430   11.2620   22.7020 C   0  0  0  0  0  0  0  0  0  0  0  0
    9.4310   10.4320   23.4000 N   0  0  0  0  0  0  0  0  0  0  0  0
    9.5950    9.0330   23.2910 C   0  0  0  0  0  0  0  0  0  0  0  0
    8.5650   11.1360   24.1980 C   0  0  0  0  0  0  0  0  0  0  0  0
    7.6330   10.6680   25.0950 C   0  0  0  0  0  0  0  0  0  0  0  0
    6.8070   11.6430   25.8450 C   0  0  0  0  0  0  0  0  0  0  0  0
    6.9860   13.0000   25.6320 C   0  0  0  0  0  0  0  0  0  0  0  0
    7.9560   13.4380   24.6990 C   0  0  0  0  0  0  0  0  0  0  0  0
    8.7610   12.5250   23.9630 C   0  0  0  0  0  0  0  0  0  0  0  0
   11.8310   13.5880   22.5990 C   0  0  0  0  0  0  0  0  0  0  0  0
   12.7350   14.4400   22.0380 C   0  0  0  0  0  0  0  0  0  0  0  0
   14.2620   16.2160   21.0410 H   0  0  0  0  0  0  0  0  0  0  0  0
   12.9620   17.3040   20.5250 H   0  0  0  0  0  0  0  0  0  0  0  0
   13.5190   15.9540   19.4830 H   0  0  0  0  0  0  0  0  0  0  0  0
   10.5850   16.2650   19.9770 H   0  0  0  0  0  0  0  0  0  0  0  0
    8.8970   14.5880   21.1090 H   0  0  0  0  0  0  0  0  0  0  0  0
   10.9150   11.0370   21.9840 H   0  0  0  0  0  0  0  0  0  0  0  0
   10.6630    8.7990   23.3250 H   0  0  0  0  0  0  0  0  0  0  0  0
    9.0690    8.5910   24.1280 H   0  0  0  0  0  0  0  0  0  0  0  0
    9.1740    8.6730   22.3520 H   0  0  0  0  0  0  0  0  0  0  0  0
    7.5140    9.6090   25.2430 H   0  0  0  0  0  0  0  0  0  0  0  0
    6.0630   11.2950   26.5590 H   0  0  0  0  0  0  0  0  0  0  0  0
    6.3820   13.7130   26.1820 H   0  0  0  0  0  0  0  0  0  0  0  0
    8.0880   14.5050   24.5390 H   0  0  0  0  0  0  0  0  0  0  0  0
   12.1980   12.8580   23.3160 H   0  0  0  0  0  0  0  0  0  0  0  0
   13.7800   14.3690   22.3200 H   0  0  0  0  0  0  0  0  0  0  0  0
  1  2  1  0
  2  3  2  0
  3  4  1  0
  4  5  2  0
  5  6  1  0
  6  7  2  0
  7  8  1  0
  8  9  1  0
  8 10  1  0
 10 11  2  0
 11 12  1  0
 12 13  2  0
 13 14  1  0
 14 15  2  0
  5 16  1  0
 16 17  2  0
 17  2  1  0
 15  6  1  0
 15 10  1  0
  1 18  1  0
  1 19  1  0
  1 20  1  0
  3 21  1  0
  4 22  1  0
  7 23  1  0
  9 24  1  0
  9 25  1  0
  9 26  1  0
 11 27  1  0
 12 28  1  0
 13 29  1  0
 14 30  1  0
 16 31  1  0
 17 32  1  0
A    1
 C1 
A    2
 C2 
A    3
 C3 
A    4
 C4 
A    5
 C5 
A    6
 C6 
A    7
 C7 
A    8
 N1 
A    9
 C8 
A   10
 C9 
A   11
 C10
A   12
 C11
A   13
 C12
A   14
 C13
A   15
 C14
A   16
 C15
A   17
 C16
A   18
 H1 
A   19
 H2 
A   20
 H3 
A   21
 H4 
A   22
 H5 
A   23
 H6 
A   24
 H7 
A   25
 H8 
A   26
 H9 
A   27
 H10
A   28
 H11
A   29
 H12
A   30
 H13
A   31
 H14
A   32
 H15
M  END
>  <ref_pdb>  (67) 
x0310_0A

>  <ref_mols>  (67) 
x0451_0A,x0812_0A

>  <original SMILES>  (67) 
Cc1ccc(-c2cn(C)c3ccccc23)cc1

>  <rationale>  (67) 
info halogenbond:C110+G127+A86+E85+E106+T126+P107+H104+Y64+C65+S87+N129+F83+L131+I82+G128+P91+N19+H21+V84+G133+Y90+Y89+H97+L81+F134+L98+R20+G103+S66+S67+S7+G108+R38+V124+M99+S36; hbond:T126+C110+G108+G103+G128+G130+L131+N129+N19+H104+R68+V124+R93+P91+F83+S67+S7+S66+G112+G133+V132+R20+Y89+S77+A135+Y63+A92+A101+M99+F134+L100+I82+Y64+S36+L98+V84+L81+Y94+S80+R38+S37+V102+G8+I123+G111+I113+L114+C65+L22+S96; hydroph_interaction:Y90+Y89+H21+E106+N129+L40+I123+A135+Q95+I82+L100+L98+L131+F83+Y63+F134+H104+R20+A86+V74+P91+A101+F76+M99+L114+A92+Y94+R68+Y72+Y64+V18+V102+W28+G127+G128+L81; pication:H104+R93+Y63+F134+Y90+R68+F83+R20; pistack:Y89+Y90+H104+F134+Y63+F83+Y94; saltbridge:R93+H104+E106+D109+E85+E88+R68+R20; 

>  <intxn_cluster>  (67) 
-1

>  <intxn_cluster_rank>  (67) 
-1

>  <N_interactions>  (67) 
3

>  <∆∆G>  (67) 
-11.787186

>  <$/mg>  (67) 
163.0

>  <comRMSD>  (67) 
0.932055

>  <N_rotatable_bonds>  (67) 
3

>  <deep_P1_sidechain>  (67) 
nan

>  <farthest_distance_to_substrate>  (67) 
2.531963

>  <hbond:SER:7>  (67) 
hbond:SER:7    NaN
hbond:SER:7     -1
Name: 66, dtype: object

>  <halogenbond:SER:7>  (67) 
halogenbond:SER:7    NaN
halogenbond:SER:7     -1
Name: 66, dtype: object

>  <hbond:GLY:8>  (67) 
hbond:GLY:8    NaN
hbond:GLY:8     -1
Name: 66, dtype: object

>  <hydroph_interaction:VAL:18>  (67) 
hydroph_interaction:VAL:18    NaN
hydroph_interaction:VAL:18     -1
Name: 66, dtype: object

>  <hbond:ASN:19>  (67) 
hbond:ASN:19    NaN
hbond:ASN:19     -1
Name: 66, dtype: object

>  <hydroph_interaction:ASN:19>  (67) 
hydroph_interaction:ASN:19    0.0
hydroph_interaction:ASN:19      0
Name: 66, dtype: object

>  <halogenbond:ASN:19>  (67) 
halogenbond:ASN:19    NaN
halogenbond:ASN:19     -1
Name: 66, dtype: object

>  <hbond:ARG:20>  (67) 
hbond:ARG:20    NaN
hbond:ARG:20     -1
Name: 66, dtype: object

>  <hydroph_interaction:ARG:20>  (67) 
hydroph_interaction:ARG:20    NaN
hydroph_interaction:ARG:20     -1
Name: 66, dtype: object

>  <saltbridge:ARG:20>  (67) 
saltbridge:ARG:20    NaN
saltbridge:ARG:20     -1
Name: 66, dtype: object

>  <halogenbond:ARG:20>  (67) 
halogenbond:ARG:20    NaN
halogenbond:ARG:20     -1
Name: 66, dtype: object

>  <pication:ARG:20>  (67) 
pication:ARG:20    NaN
pication:ARG:20     -1
Name: 66, dtype: object

>  <hbond:HIS:21>  (67) 
hbond:HIS:21    0.0
hbond:HIS:21      0
Name: 66, dtype: object

>  <hydroph_interaction:HIS:21>  (67) 
hydroph_interaction:HIS:21    1.0
hydroph_interaction:HIS:21      1
Name: 66, dtype: object

>  <pistack:HIS:21>  (67) 
pistack:HIS:21    0.0
pistack:HIS:21      0
Name: 66, dtype: object

>  <pication:HIS:21>  (67) 
pication:HIS:21    0.0
pication:HIS:21      0
Name: 66, dtype: object

>  <saltbridge:HIS:21>  (67) 
saltbridge:HIS:21    0.0
saltbridge:HIS:21      0
Name: 66, dtype: object

>  <halogenbond:HIS:21>  (67) 
halogenbond:HIS:21    NaN
halogenbond:HIS:21     -1
Name: 66, dtype: object

>  <hydroph_interaction:LEU:22>  (67) 
hydroph_interaction:LEU:22    0.0
hydroph_interaction:LEU:22      0
Name: 66, dtype: object

>  <hbond:LEU:22>  (67) 
hbond:LEU:22    NaN
hbond:LEU:22     -1
Name: 66, dtype: object

>  <hydroph_interaction:TRP:28>  (67) 
hydroph_interaction:TRP:28    NaN
hydroph_interaction:TRP:28     -1
Name: 66, dtype: object

>  <hbond:SER:36>  (67) 
hbond:SER:36    NaN
hbond:SER:36     -1
Name: 66, dtype: object

>  <halogenbond:SER:36>  (67) 
halogenbond:SER:36    NaN
halogenbond:SER:36     -1
Name: 66, dtype: object

>  <hbond:SER:37>  (67) 
hbond:SER:37    NaN
hbond:SER:37     -1
Name: 66, dtype: object

>  <hbond:ARG:38>  (67) 
hbond:ARG:38    NaN
hbond:ARG:38     -1
Name: 66, dtype: object

>  <halogenbond:ARG:38>  (67) 
halogenbond:ARG:38    NaN
halogenbond:ARG:38     -1
Name: 66, dtype: object

>  <saltbridge:ASP:39>  (67) 
saltbridge:ASP:39    0.0
saltbridge:ASP:39      0
Name: 66, dtype: object

>  <halogenbond:ASP:39>  (67) 
halogenbond:ASP:39    0.0
halogenbond:ASP:39      0
Name: 66, dtype: object

>  <hbond:ASP:39>  (67) 
hbond:ASP:39    0.0
hbond:ASP:39      0
Name: 66, dtype: object

>  <hydroph_interaction:ASP:39>  (67) 
hydroph_interaction:ASP:39    0.0
hydroph_interaction:ASP:39      0
Name: 66, dtype: object

>  <hydroph_interaction:LEU:40>  (67) 
hydroph_interaction:LEU:40    NaN
hydroph_interaction:LEU:40     -1
Name: 66, dtype: object

>  <hydroph_interaction:TYR:63>  (67) 
hydroph_interaction:TYR:63    NaN
hydroph_interaction:TYR:63     -1
Name: 66, dtype: object

>  <hbond:TYR:63>  (67) 
hbond:TYR:63    NaN
hbond:TYR:63     -1
Name: 66, dtype: object

>  <pistack:TYR:63>  (67) 
pistack:TYR:63    NaN
pistack:TYR:63     -1
Name: 66, dtype: object

>  <pication:TYR:63>  (67) 
pication:TYR:63    NaN
pication:TYR:63     -1
Name: 66, dtype: object

>  <halogenbond:TYR:64>  (67) 
halogenbond:TYR:64    NaN
halogenbond:TYR:64     -1
Name: 66, dtype: object

>  <hbond:TYR:64>  (67) 
hbond:TYR:64    NaN
hbond:TYR:64     -1
Name: 66, dtype: object

>  <hydroph_interaction:TYR:64>  (67) 
hydroph_interaction:TYR:64    NaN
hydroph_interaction:TYR:64     -1
Name: 66, dtype: object

>  <halogenbond:CYS:65>  (67) 
halogenbond:CYS:65    NaN
halogenbond:CYS:65     -1
Name: 66, dtype: object

>  <hbond:CYS:65>  (67) 
hbond:CYS:65    NaN
hbond:CYS:65     -1
Name: 66, dtype: object

>  <hbond:SER:66>  (67) 
hbond:SER:66    NaN
hbond:SER:66     -1
Name: 66, dtype: object

>  <halogenbond:SER:66>  (67) 
halogenbond:SER:66    NaN
halogenbond:SER:66     -1
Name: 66, dtype: object

>  <hbond:SER:67>  (67) 
hbond:SER:67    NaN
hbond:SER:67     -1
Name: 66, dtype: object

>  <halogenbond:SER:67>  (67) 
halogenbond:SER:67    NaN
halogenbond:SER:67     -1
Name: 66, dtype: object

>  <hbond:ARG:68>  (67) 
hbond:ARG:68    NaN
hbond:ARG:68     -1
Name: 66, dtype: object

>  <saltbridge:ARG:68>  (67) 
saltbridge:ARG:68    NaN
saltbridge:ARG:68     -1
Name: 66, dtype: object

>  <hydroph_interaction:ARG:68>  (67) 
hydroph_interaction:ARG:68    NaN
hydroph_interaction:ARG:68     -1
Name: 66, dtype: object

>  <pication:ARG:68>  (67) 
pication:ARG:68    NaN
pication:ARG:68     -1
Name: 66, dtype: object

>  <hydroph_interaction:TYR:72>  (67) 
hydroph_interaction:TYR:72    NaN
hydroph_interaction:TYR:72     -1
Name: 66, dtype: object

>  <hydroph_interaction:VAL:74>  (67) 
hydroph_interaction:VAL:74    NaN
hydroph_interaction:VAL:74     -1
Name: 66, dtype: object

>  <hydroph_interaction:PHE:76>  (67) 
hydroph_interaction:PHE:76    NaN
hydroph_interaction:PHE:76     -1
Name: 66, dtype: object

>  <hbond:SER:77>  (67) 
hbond:SER:77    NaN
hbond:SER:77     -1
Name: 66, dtype: object

>  <hbond:SER:80>  (67) 
hbond:SER:80    NaN
hbond:SER:80     -1
Name: 66, dtype: object

>  <hbond:LEU:81>  (67) 
hbond:LEU:81    NaN
hbond:LEU:81     -1
Name: 66, dtype: object

>  <halogenbond:LEU:81>  (67) 
halogenbond:LEU:81    NaN
halogenbond:LEU:81     -1
Name: 66, dtype: object

>  <hydroph_interaction:LEU:81>  (67) 
hydroph_interaction:LEU:81    NaN
hydroph_interaction:LEU:81     -1
Name: 66, dtype: object

>  <hydroph_interaction:ILE:82>  (67) 
hydroph_interaction:ILE:82    NaN
hydroph_interaction:ILE:82     -1
Name: 66, dtype: object

>  <halogenbond:ILE:82>  (67) 
halogenbond:ILE:82    NaN
halogenbond:ILE:82     -1
Name: 66, dtype: object

>  <hbond:ILE:82>  (67) 
hbond:ILE:82    NaN
hbond:ILE:82     -1
Name: 66, dtype: object

>  <hbond:PHE:83>  (67) 
hbond:PHE:83    NaN
hbond:PHE:83     -1
Name: 66, dtype: object

>  <hydroph_interaction:PHE:83>  (67) 
hydroph_interaction:PHE:83    NaN
hydroph_interaction:PHE:83     -1
Name: 66, dtype: object

>  <halogenbond:PHE:83>  (67) 
halogenbond:PHE:83    NaN
halogenbond:PHE:83     -1
Name: 66, dtype: object

>  <pistack:PHE:83>  (67) 
pistack:PHE:83    NaN
pistack:PHE:83     -1
Name: 66, dtype: object

>  <pication:PHE:83>  (67) 
pication:PHE:83    NaN
pication:PHE:83     -1
Name: 66, dtype: object

>  <hydroph_interaction:VAL:84>  (67) 
hydroph_interaction:VAL:84    0.0
hydroph_interaction:VAL:84      0
Name: 66, dtype: object

>  <halogenbond:VAL:84>  (67) 
halogenbond:VAL:84    NaN
halogenbond:VAL:84     -1
Name: 66, dtype: object

>  <hbond:VAL:84>  (67) 
hbond:VAL:84    NaN
hbond:VAL:84     -1
Name: 66, dtype: object

>  <hydroph_interaction:GLU:85>  (67) 
hydroph_interaction:GLU:85    0.0
hydroph_interaction:GLU:85      0
Name: 66, dtype: object

>  <hbond:GLU:85>  (67) 
hbond:GLU:85    0.0
hbond:GLU:85      0
Name: 66, dtype: object

>  <halogenbond:GLU:85>  (67) 
halogenbond:GLU:85    NaN
halogenbond:GLU:85     -1
Name: 66, dtype: object

>  <saltbridge:GLU:85>  (67) 
saltbridge:GLU:85    NaN
saltbridge:GLU:85     -1
Name: 66, dtype: object

>  <halogenbond:ALA:86>  (67) 
halogenbond:ALA:86    NaN
halogenbond:ALA:86     -1
Name: 66, dtype: object

>  <hbond:ALA:86>  (67) 
hbond:ALA:86    0.0
hbond:ALA:86      0
Name: 66, dtype: object

>  <hydroph_interaction:ALA:86>  (67) 
hydroph_interaction:ALA:86    NaN
hydroph_interaction:ALA:86     -1
Name: 66, dtype: object

>  <hbond:SER:87>  (67) 
hbond:SER:87    0
hbond:SER:87    0
Name: 66, dtype: object

>  <halogenbond:SER:87>  (67) 
halogenbond:SER:87    NaN
halogenbond:SER:87     -1
Name: 66, dtype: object

>  <hbond:GLU:88>  (67) 
hbond:GLU:88    0.0
hbond:GLU:88      0
Name: 66, dtype: object

>  <hydroph_interaction:GLU:88>  (67) 
hydroph_interaction:GLU:88    0.0
hydroph_interaction:GLU:88      0
Name: 66, dtype: object

>  <halogenbond:GLU:88>  (67) 
halogenbond:GLU:88    0.0
halogenbond:GLU:88      0
Name: 66, dtype: object

>  <saltbridge:GLU:88>  (67) 
saltbridge:GLU:88    NaN
saltbridge:GLU:88     -1
Name: 66, dtype: object

>  <hydroph_interaction:TYR:89>  (67) 
hydroph_interaction:TYR:89    1.0
hydroph_interaction:TYR:89      1
Name: 66, dtype: object

>  <pistack:TYR:89>  (67) 
pistack:TYR:89    NaN
pistack:TYR:89     -1
Name: 66, dtype: object

>  <hbond:TYR:89>  (67) 
hbond:TYR:89    NaN
hbond:TYR:89     -1
Name: 66, dtype: object

>  <halogenbond:TYR:89>  (67) 
halogenbond:TYR:89    NaN
halogenbond:TYR:89     -1
Name: 66, dtype: object

>  <hydroph_interaction:TYR:90>  (67) 
hydroph_interaction:TYR:90    1.0
hydroph_interaction:TYR:90      1
Name: 66, dtype: object

>  <hbond:TYR:90>  (67) 
hbond:TYR:90    0.0
hbond:TYR:90      0
Name: 66, dtype: object

>  <pistack:TYR:90>  (67) 
pistack:TYR:90    NaN
pistack:TYR:90     -1
Name: 66, dtype: object

>  <halogenbond:TYR:90>  (67) 
halogenbond:TYR:90    NaN
halogenbond:TYR:90     -1
Name: 66, dtype: object

>  <pication:TYR:90>  (67) 
pication:TYR:90    NaN
pication:TYR:90     -1
Name: 66, dtype: object

>  <hbond:PRO:91>  (67) 
hbond:PRO:91    NaN
hbond:PRO:91     -1
Name: 66, dtype: object

>  <hydroph_interaction:PRO:91>  (67) 
hydroph_interaction:PRO:91    NaN
hydroph_interaction:PRO:91     -1
Name: 66, dtype: object

>  <halogenbond:PRO:91>  (67) 
halogenbond:PRO:91    NaN
halogenbond:PRO:91     -1
Name: 66, dtype: object

>  <hbond:ALA:92>  (67) 
hbond:ALA:92    NaN
hbond:ALA:92     -1
Name: 66, dtype: object

>  <hydroph_interaction:ALA:92>  (67) 
hydroph_interaction:ALA:92    NaN
hydroph_interaction:ALA:92     -1
Name: 66, dtype: object

>  <saltbridge:ARG:93>  (67) 
saltbridge:ARG:93    NaN
saltbridge:ARG:93     -1
Name: 66, dtype: object

>  <hbond:ARG:93>  (67) 
hbond:ARG:93    NaN
hbond:ARG:93     -1
Name: 66, dtype: object

>  <hydroph_interaction:ARG:93>  (67) 
hydroph_interaction:ARG:93    0.0
hydroph_interaction:ARG:93      0
Name: 66, dtype: object

>  <halogenbond:ARG:93>  (67) 
halogenbond:ARG:93    0.0
halogenbond:ARG:93      0
Name: 66, dtype: object

>  <pication:ARG:93>  (67) 
pication:ARG:93    NaN
pication:ARG:93     -1
Name: 66, dtype: object

>  <hydroph_interaction:TYR:94>  (67) 
hydroph_interaction:TYR:94    NaN
hydroph_interaction:TYR:94     -1
Name: 66, dtype: object

>  <pistack:TYR:94>  (67) 
pistack:TYR:94    NaN
pistack:TYR:94     -1
Name: 66, dtype: object

>  <hbond:TYR:94>  (67) 
hbond:TYR:94    NaN
hbond:TYR:94     -1
Name: 66, dtype: object

>  <hbond:GLN:95>  (67) 
hbond:GLN:95    0.0
hbond:GLN:95      0
Name: 66, dtype: object

>  <hydroph_interaction:GLN:95>  (67) 
hydroph_interaction:GLN:95    NaN
hydroph_interaction:GLN:95     -1
Name: 66, dtype: object

>  <halogenbond:GLN:95>  (67) 
halogenbond:GLN:95    0.0
halogenbond:GLN:95      0
Name: 66, dtype: object

>  <hbond:SER:96>  (67) 
hbond:SER:96    NaN
hbond:SER:96     -1
Name: 66, dtype: object

>  <halogenbond:HIS:97>  (67) 
halogenbond:HIS:97    NaN
halogenbond:HIS:97     -1
Name: 66, dtype: object

>  <hydroph_interaction:LEU:98>  (67) 
hydroph_interaction:LEU:98    NaN
hydroph_interaction:LEU:98     -1
Name: 66, dtype: object

>  <hbond:LEU:98>  (67) 
hbond:LEU:98    NaN
hbond:LEU:98     -1
Name: 66, dtype: object

>  <halogenbond:LEU:98>  (67) 
halogenbond:LEU:98    NaN
halogenbond:LEU:98     -1
Name: 66, dtype: object

>  <hbond:MET:99>  (67) 
hbond:MET:99    NaN
hbond:MET:99     -1
Name: 66, dtype: object

>  <hydroph_interaction:MET:99>  (67) 
hydroph_interaction:MET:99    NaN
hydroph_interaction:MET:99     -1
Name: 66, dtype: object

>  <halogenbond:MET:99>  (67) 
halogenbond:MET:99    NaN
halogenbond:MET:99     -1
Name: 66, dtype: object

>  <hydroph_interaction:LEU:100>  (67) 
hydroph_interaction:LEU:100    NaN
hydroph_interaction:LEU:100     -1
Name: 66, dtype: object

>  <hbond:LEU:100>  (67) 
hbond:LEU:100    NaN
hbond:LEU:100     -1
Name: 66, dtype: object

>  <hbond:ALA:101>  (67) 
hbond:ALA:101    NaN
hbond:ALA:101     -1
Name: 66, dtype: object

>  <hydroph_interaction:ALA:101>  (67) 
hydroph_interaction:ALA:101    NaN
hydroph_interaction:ALA:101     -1
Name: 66, dtype: object

>  <hydroph_interaction:VAL:102>  (67) 
hydroph_interaction:VAL:102    NaN
hydroph_interaction:VAL:102     -1
Name: 66, dtype: object

>  <hbond:VAL:102>  (67) 
hbond:VAL:102    NaN
hbond:VAL:102     -1
Name: 66, dtype: object

>  <hbond:GLY:103>  (67) 
hbond:GLY:103    NaN
hbond:GLY:103     -1
Name: 66, dtype: object

>  <halogenbond:GLY:103>  (67) 
halogenbond:GLY:103    NaN
halogenbond:GLY:103     -1
Name: 66, dtype: object

>  <hbond:HIS:104>  (67) 
hbond:HIS:104    NaN
hbond:HIS:104     -1
Name: 66, dtype: object

>  <saltbridge:HIS:104>  (67) 
saltbridge:HIS:104    NaN
saltbridge:HIS:104     -1
Name: 66, dtype: object

>  <pication:HIS:104>  (67) 
pication:HIS:104    NaN
pication:HIS:104     -1
Name: 66, dtype: object

>  <halogenbond:HIS:104>  (67) 
halogenbond:HIS:104    NaN
halogenbond:HIS:104     -1
Name: 66, dtype: object

>  <hydroph_interaction:HIS:104>  (67) 
hydroph_interaction:HIS:104    NaN
hydroph_interaction:HIS:104     -1
Name: 66, dtype: object

>  <pistack:HIS:104>  (67) 
pistack:HIS:104    NaN
pistack:HIS:104     -1
Name: 66, dtype: object

>  <halogenbond:SER:105>  (67) 
halogenbond:SER:105    0.0
halogenbond:SER:105      0
Name: 66, dtype: object

>  <hbond:SER:105>  (67) 
hbond:SER:105    0.0
hbond:SER:105      0
Name: 66, dtype: object

>  <hbond:GLU:106>  (67) 
hbond:GLU:106    0.0
hbond:GLU:106      0
Name: 66, dtype: object

>  <hydroph_interaction:GLU:106>  (67) 
hydroph_interaction:GLU:106    NaN
hydroph_interaction:GLU:106     -1
Name: 66, dtype: object

>  <saltbridge:GLU:106>  (67) 
saltbridge:GLU:106    NaN
saltbridge:GLU:106     -1
Name: 66, dtype: object

>  <halogenbond:GLU:106>  (67) 
halogenbond:GLU:106    NaN
halogenbond:GLU:106     -1
Name: 66, dtype: object

>  <hydroph_interaction:PRO:107>  (67) 
hydroph_interaction:PRO:107    0
hydroph_interaction:PRO:107    0
Name: 66, dtype: object

>  <hbond:PRO:107>  (67) 
hbond:PRO:107    0.0
hbond:PRO:107      0
Name: 66, dtype: object

>  <halogenbond:PRO:107>  (67) 
halogenbond:PRO:107    NaN
halogenbond:PRO:107     -1
Name: 66, dtype: object

>  <hbond:GLY:108>  (67) 
hbond:GLY:108    NaN
hbond:GLY:108     -1
Name: 66, dtype: object

>  <halogenbond:GLY:108>  (67) 
halogenbond:GLY:108    NaN
halogenbond:GLY:108     -1
Name: 66, dtype: object

>  <hbond:ASP:109>  (67) 
hbond:ASP:109    0.0
hbond:ASP:109      0
Name: 66, dtype: object

>  <hydroph_interaction:ASP:109>  (67) 
hydroph_interaction:ASP:109    0.0
hydroph_interaction:ASP:109      0
Name: 66, dtype: object

>  <saltbridge:ASP:109>  (67) 
saltbridge:ASP:109    NaN
saltbridge:ASP:109     -1
Name: 66, dtype: object

>  <halogenbond:CYS:110>  (67) 
halogenbond:CYS:110    NaN
halogenbond:CYS:110     -1
Name: 66, dtype: object

>  <hbond:CYS:110>  (67) 
hbond:CYS:110    NaN
hbond:CYS:110     -1
Name: 66, dtype: object

>  <hbond:GLY:111>  (67) 
hbond:GLY:111    NaN
hbond:GLY:111     -1
Name: 66, dtype: object

>  <hbond:GLY:112>  (67) 
hbond:GLY:112    NaN
hbond:GLY:112     -1
Name: 66, dtype: object

>  <hbond:ILE:113>  (67) 
hbond:ILE:113    NaN
hbond:ILE:113     -1
Name: 66, dtype: object

>  <hydroph_interaction:LEU:114>  (67) 
hydroph_interaction:LEU:114    NaN
hydroph_interaction:LEU:114     -1
Name: 66, dtype: object

>  <hbond:LEU:114>  (67) 
hbond:LEU:114    NaN
hbond:LEU:114     -1
Name: 66, dtype: object

>  <hydroph_interaction:ILE:123>  (67) 
hydroph_interaction:ILE:123    NaN
hydroph_interaction:ILE:123     -1
Name: 66, dtype: object

>  <hbond:ILE:123>  (67) 
hbond:ILE:123    NaN
hbond:ILE:123     -1
Name: 66, dtype: object

>  <hydroph_interaction:VAL:124>  (67) 
hydroph_interaction:VAL:124    0.0
hydroph_interaction:VAL:124      0
Name: 66, dtype: object

>  <hbond:VAL:124>  (67) 
hbond:VAL:124    NaN
hbond:VAL:124     -1
Name: 66, dtype: object

>  <halogenbond:VAL:124>  (67) 
halogenbond:VAL:124    NaN
halogenbond:VAL:124     -1
Name: 66, dtype: object

>  <hbond:SER:125>  (67) 
hbond:SER:125    0
hbond:SER:125    0
Name: 66, dtype: object

>  <halogenbond:SER:125>  (67) 
halogenbond:SER:125    0.0
halogenbond:SER:125      0
Name: 66, dtype: object

>  <hydroph_interaction:THR:126>  (67) 
hydroph_interaction:THR:126    0.0
hydroph_interaction:THR:126      0
Name: 66, dtype: object

>  <hbond:THR:126>  (67) 
hbond:THR:126    NaN
hbond:THR:126     -1
Name: 66, dtype: object

>  <halogenbond:THR:126>  (67) 
halogenbond:THR:126    NaN
halogenbond:THR:126     -1
Name: 66, dtype: object

>  <hbond:GLY:127>  (67) 
hbond:GLY:127    0
hbond:GLY:127    0
Name: 66, dtype: object

>  <halogenbond:GLY:127>  (67) 
halogenbond:GLY:127    NaN
halogenbond:GLY:127     -1
Name: 66, dtype: object

>  <hydroph_interaction:GLY:127>  (67) 
hydroph_interaction:GLY:127    NaN
hydroph_interaction:GLY:127     -1
Name: 66, dtype: object

>  <hbond:GLY:128>  (67) 
hbond:GLY:128    NaN
hbond:GLY:128     -1
Name: 66, dtype: object

>  <halogenbond:GLY:128>  (67) 
halogenbond:GLY:128    NaN
halogenbond:GLY:128     -1
Name: 66, dtype: object

>  <hydroph_interaction:GLY:128>  (67) 
hydroph_interaction:GLY:128    NaN
hydroph_interaction:GLY:128     -1
Name: 66, dtype: object

>  <hbond:ASN:129>  (67) 
hbond:ASN:129    NaN
hbond:ASN:129     -1
Name: 66, dtype: object

>  <hydroph_interaction:ASN:129>  (67) 
hydroph_interaction:ASN:129    NaN
hydroph_interaction:ASN:129     -1
Name: 66, dtype: object

>  <halogenbond:ASN:129>  (67) 
halogenbond:ASN:129    NaN
halogenbond:ASN:129     -1
Name: 66, dtype: object

>  <hbond:GLY:130>  (67) 
hbond:GLY:130    NaN
hbond:GLY:130     -1
Name: 66, dtype: object

>  <hbond:LEU:131>  (67) 
hbond:LEU:131    NaN
hbond:LEU:131     -1
Name: 66, dtype: object

>  <hydroph_interaction:LEU:131>  (67) 
hydroph_interaction:LEU:131    NaN
hydroph_interaction:LEU:131     -1
Name: 66, dtype: object

>  <halogenbond:LEU:131>  (67) 
halogenbond:LEU:131    NaN
halogenbond:LEU:131     -1
Name: 66, dtype: object

>  <hydroph_interaction:VAL:132>  (67) 
hydroph_interaction:VAL:132    0.0
hydroph_interaction:VAL:132      0
Name: 66, dtype: object

>  <hbond:VAL:132>  (67) 
hbond:VAL:132    NaN
hbond:VAL:132     -1
Name: 66, dtype: object

>  <hbond:GLY:133>  (67) 
hbond:GLY:133    NaN
hbond:GLY:133     -1
Name: 66, dtype: object

>  <halogenbond:GLY:133>  (67) 
halogenbond:GLY:133    NaN
halogenbond:GLY:133     -1
Name: 66, dtype: object

>  <hydroph_interaction:PHE:134>  (67) 
hydroph_interaction:PHE:134    NaN
hydroph_interaction:PHE:134     -1
Name: 66, dtype: object

>  <hbond:PHE:134>  (67) 
hbond:PHE:134    NaN
hbond:PHE:134     -1
Name: 66, dtype: object

>  <pistack:PHE:134>  (67) 
pistack:PHE:134    NaN
pistack:PHE:134     -1
Name: 66, dtype: object

>  <pication:PHE:134>  (67) 
pication:PHE:134    NaN
pication:PHE:134     -1
Name: 66, dtype: object

>  <halogenbond:PHE:134>  (67) 
halogenbond:PHE:134    NaN
halogenbond:PHE:134     -1
Name: 66, dtype: object

>  <hydroph_interaction:ALA:135>  (67) 
hydroph_interaction:ALA:135    NaN
hydroph_interaction:ALA:135     -1
Name: 66, dtype: object

>  <hbond:ALA:135>  (67) 
hbond:ALA:135    NaN
hbond:ALA:135     -1
Name: 66, dtype: object

$$$$
Z1332892882
     RDKit          3D

 32 33  0  0  0  0  0  0  0  0999 V2000
    9.9230    9.0760   22.7240 C   0  0  0  0  0  0  0  0  0  0  0  0
    9.5840   10.3690   23.2480 N   0  0  0  0  0  0  0  0  0  0  0  0
    8.6580   10.6730   24.2080 C   0  0  0  0  0  0  0  0  0  0  0  0
    8.6790   12.0450   24.3710 C   0  0  0  0  0  0  0  0  0  0  0  0
    9.6510   12.5650   23.4780 C   0  0  0  0  0  0  0  0  0  0  0  0
   10.1430   13.8200   23.1490 C   0  0  0  0  0  0  0  0  0  0  0  0
   11.0910   13.8880   22.1760 N   0  0  0  0  0  0  0  0  0  0  0  0
   12.2900   14.4850   22.4790 C   0  0  0  0  0  0  0  0  0  0  0  0
   12.5630   15.9340   21.6940 S   0  0  0  0  0  0  0  0  0  0  0  0
   13.1000   13.8360   23.4220 N   0  0  0  0  0  0  0  0  0  0  0  0
   14.4240   13.9170   23.8820 C   0  0  0  0  0  0  0  0  0  0  0  0
   15.0660   12.8630   24.5180 C   0  0  0  0  0  0  0  0  0  0  0  0
   16.3770   12.9360   24.9770 C   0  0  0  0  0  0  0  0  0  0  0  0
   17.0930   14.1030   24.8030 C   0  0  0  0  0  0  0  0  0  0  0  0
   16.4900   15.1710   24.1730 C   0  0  0  0  0  0  0  0  0  0  0  0
   15.1670   15.0820   23.7160 C   0  0  0  0  0  0  0  0  0  0  0  0
   10.1890   11.5020   22.8100 C   0  0  0  0  0  0  0  0  0  0  0  0
   10.5340    9.2300   21.8330 H   0  0  0  0  0  0  0  0  0  0  0  0
    9.0140    8.5510   22.4510 H   0  0  0  0  0  0  0  0  0  0  0  0
   10.4750    8.5120   23.4680 H   0  0  0  0  0  0  0  0  0  0  0  0
    8.0640    9.9070   24.6910 H   0  0  0  0  0  0  0  0  0  0  0  0
    8.0580   12.6050   25.0580 H   0  0  0  0  0  0  0  0  0  0  0  0
    9.3980   14.5740   22.9750 H   0  0  0  0  0  0  0  0  0  0  0  0
   10.6670   14.1810   24.0410 H   0  0  0  0  0  0  0  0  0  0  0  0
   11.1180   13.1520   21.4530 H   0  0  0  0  0  0  0  0  0  0  0  0
   12.5910   13.0870   23.8620 H   0  0  0  0  0  0  0  0  0  0  0  0
   14.5420   11.9500   24.6680 H   0  0  0  0  0  0  0  0  0  0  0  0
   16.8310   12.0800   25.4680 H   0  0  0  0  0  0  0  0  0  0  0  0
   18.1170   14.1840   25.1530 H   0  0  0  0  0  0  0  0  0  0  0  0
   17.0470   16.0740   24.0350 H   0  0  0  0  0  0  0  0  0  0  0  0
   14.7410   15.9370   23.2310 H   0  0  0  0  0  0  0  0  0  0  0  0
   10.9480   11.4670   22.0590 H   0  0  0  0  0  0  0  0  0  0  0  0
  1  2  1  0
  2  3  1  0
  3  4  2  0
  4  5  1  0
  5  6  1  0
  6  7  1  0
  7  8  1  0
  8  9  2  0
  8 10  1  0
 10 11  1  0
 11 12  2  0
 12 13  1  0
 13 14  2  0
 14 15  1  0
 15 16  2  0
  5 17  2  0
 17  2  1  0
 16 11  1  0
  1 18  1  0
  1 19  1  0
  1 20  1  0
  3 21  1  0
  4 22  1  0
  6 23  1  0
  6 24  1  0
  7 25  1  0
 10 26  1  0
 12 27  1  0
 13 28  1  0
 14 29  1  0
 15 30  1  0
 16 31  1  0
 17 32  1  0
A    1
 C1 
A    2
 N1 
A    3
 C2 
A    4
 C3 
A    5
 C4 
A    6
 C5 
A    7
 N2 
A    8
 C6 
A    9
 S1 
A   10
 N3 
A   11
 C7 
A   12
 C8 
A   13
 C9 
A   14
 C10
A   15
 C11
A   16
 C12
A   17
 C13
A   18
 H1 
A   19
 H2 
A   20
 H3 
A   21
 H4 
A   22
 H5 
A   23
 H6 
A   24
 H7 
A   25
 H8 
A   26
 H9 
A   27
 H10
A   28
 H11
A   29
 H12
A   30
 H13
A   31
 H14
A   32
 H15
M  END
>  <ref_pdb>  (68) 
x0310_0A

>  <ref_mols>  (68) 
x0451_0A,x0416_0A

>  <original SMILES>  (68) 
Cn1ccc(CNC(=S)Nc2ccccc2)c1

>  <rationale>  (68) 
info halogenbond:C110+G127+D39+S125+E85+E106+T126+P107+H104+Y64+C65+S87+N129+F83+R93+L131+I82+G128+P91+N19+H21+V84+G133+Y90+Y89+H97+L81+F134+L98+R20+G103+S66+S67+S7+G108+R38+V124+M99+S36; hbond:S125+Y90+P107+Q95+C110+D109+E85+G108+G103+G128+G130+L131+N129+H104+R68+V124+P91+F83+S67+S7+S66+G112+G133+V132+R20+Y89+S77+A135+Y63+A92+A101+M99+F134+L100+I82+Y64+S36+L98+V84+L81+Y94+S80+R38+S37+V102+G8+I123+G111+I113+L114+C65+L22+S96; hydroph_interaction:Y89+H21+P107+L22+D109+N129+L40+I123+A135+Q95+I82+L100+L98+L131+F83+V132+Y63+F134+H104+V74+P91+A101+F76+M99+L114+A92+Y94+R68+Y72+Y64+V18+V102+W28+G127+G128+L81; pication:H104+R93+Y63+F134+Y90+R68+F83+R20; pistack:H21+H104+F134+Y63+F83+Y94; saltbridge:R93+H104+E106+D109+E85+R68+R20; 

>  <intxn_cluster>  (68) 
-1

>  <intxn_cluster_rank>  (68) 
-1

>  <N_interactions>  (68) 
7

>  <∆∆G>  (68) 
-12.294432

>  <$/mg>  (68) 
163.0

>  <comRMSD>  (68) 
0.675825

>  <N_rotatable_bonds>  (68) 
4

>  <deep_P1_sidechain>  (68) 
nan

>  <farthest_distance_to_substrate>  (68) 
2.269807

>  <hbond:SER:7>  (68) 
hbond:SER:7    NaN
hbond:SER:7     -1
Name: 67, dtype: object

>  <halogenbond:SER:7>  (68) 
halogenbond:SER:7    NaN
halogenbond:SER:7     -1
Name: 67, dtype: object

>  <hbond:GLY:8>  (68) 
hbond:GLY:8    NaN
hbond:GLY:8     -1
Name: 67, dtype: object

>  <hydroph_interaction:VAL:18>  (68) 
hydroph_interaction:VAL:18    NaN
hydroph_interaction:VAL:18     -1
Name: 67, dtype: object

>  <hbond:ASN:19>  (68) 
hbond:ASN:19    0.0
hbond:ASN:19      0
Name: 67, dtype: object

>  <hydroph_interaction:ASN:19>  (68) 
hydroph_interaction:ASN:19    0.0
hydroph_interaction:ASN:19      0
Name: 67, dtype: object

>  <halogenbond:ASN:19>  (68) 
halogenbond:ASN:19    NaN
halogenbond:ASN:19     -1
Name: 67, dtype: object

>  <hbond:ARG:20>  (68) 
hbond:ARG:20    NaN
hbond:ARG:20     -1
Name: 67, dtype: object

>  <hydroph_interaction:ARG:20>  (68) 
hydroph_interaction:ARG:20    0.0
hydroph_interaction:ARG:20      0
Name: 67, dtype: object

>  <saltbridge:ARG:20>  (68) 
saltbridge:ARG:20    NaN
saltbridge:ARG:20     -1
Name: 67, dtype: object

>  <halogenbond:ARG:20>  (68) 
halogenbond:ARG:20    NaN
halogenbond:ARG:20     -1
Name: 67, dtype: object

>  <pication:ARG:20>  (68) 
pication:ARG:20    NaN
pication:ARG:20     -1
Name: 67, dtype: object

>  <hbond:HIS:21>  (68) 
hbond:HIS:21    0.0
hbond:HIS:21      0
Name: 67, dtype: object

>  <hydroph_interaction:HIS:21>  (68) 
hydroph_interaction:HIS:21    1.0
hydroph_interaction:HIS:21      1
Name: 67, dtype: object

>  <pistack:HIS:21>  (68) 
pistack:HIS:21    1.0
pistack:HIS:21      1
Name: 67, dtype: object

>  <pication:HIS:21>  (68) 
pication:HIS:21    0.0
pication:HIS:21      0
Name: 67, dtype: object

>  <saltbridge:HIS:21>  (68) 
saltbridge:HIS:21    0.0
saltbridge:HIS:21      0
Name: 67, dtype: object

>  <halogenbond:HIS:21>  (68) 
halogenbond:HIS:21    NaN
halogenbond:HIS:21     -1
Name: 67, dtype: object

>  <hydroph_interaction:LEU:22>  (68) 
hydroph_interaction:LEU:22    1.0
hydroph_interaction:LEU:22      1
Name: 67, dtype: object

>  <hbond:LEU:22>  (68) 
hbond:LEU:22    NaN
hbond:LEU:22     -1
Name: 67, dtype: object

>  <hydroph_interaction:TRP:28>  (68) 
hydroph_interaction:TRP:28    NaN
hydroph_interaction:TRP:28     -1
Name: 67, dtype: object

>  <hbond:SER:36>  (68) 
hbond:SER:36    NaN
hbond:SER:36     -1
Name: 67, dtype: object

>  <halogenbond:SER:36>  (68) 
halogenbond:SER:36    NaN
halogenbond:SER:36     -1
Name: 67, dtype: object

>  <hbond:SER:37>  (68) 
hbond:SER:37    NaN
hbond:SER:37     -1
Name: 67, dtype: object

>  <hbond:ARG:38>  (68) 
hbond:ARG:38    NaN
hbond:ARG:38     -1
Name: 67, dtype: object

>  <halogenbond:ARG:38>  (68) 
halogenbond:ARG:38    NaN
halogenbond:ARG:38     -1
Name: 67, dtype: object

>  <saltbridge:ASP:39>  (68) 
saltbridge:ASP:39    0.0
saltbridge:ASP:39      0
Name: 67, dtype: object

>  <halogenbond:ASP:39>  (68) 
halogenbond:ASP:39    NaN
halogenbond:ASP:39     -1
Name: 67, dtype: object

>  <hbond:ASP:39>  (68) 
hbond:ASP:39    0.0
hbond:ASP:39      0
Name: 67, dtype: object

>  <hydroph_interaction:ASP:39>  (68) 
hydroph_interaction:ASP:39    0.0
hydroph_interaction:ASP:39      0
Name: 67, dtype: object

>  <hydroph_interaction:LEU:40>  (68) 
hydroph_interaction:LEU:40    NaN
hydroph_interaction:LEU:40     -1
Name: 67, dtype: object

>  <hydroph_interaction:TYR:63>  (68) 
hydroph_interaction:TYR:63    NaN
hydroph_interaction:TYR:63     -1
Name: 67, dtype: object

>  <hbond:TYR:63>  (68) 
hbond:TYR:63    NaN
hbond:TYR:63     -1
Name: 67, dtype: object

>  <pistack:TYR:63>  (68) 
pistack:TYR:63    NaN
pistack:TYR:63     -1
Name: 67, dtype: object

>  <pication:TYR:63>  (68) 
pication:TYR:63    NaN
pication:TYR:63     -1
Name: 67, dtype: object

>  <halogenbond:TYR:64>  (68) 
halogenbond:TYR:64    NaN
halogenbond:TYR:64     -1
Name: 67, dtype: object

>  <hbond:TYR:64>  (68) 
hbond:TYR:64    NaN
hbond:TYR:64     -1
Name: 67, dtype: object

>  <hydroph_interaction:TYR:64>  (68) 
hydroph_interaction:TYR:64    NaN
hydroph_interaction:TYR:64     -1
Name: 67, dtype: object

>  <halogenbond:CYS:65>  (68) 
halogenbond:CYS:65    NaN
halogenbond:CYS:65     -1
Name: 67, dtype: object

>  <hbond:CYS:65>  (68) 
hbond:CYS:65    NaN
hbond:CYS:65     -1
Name: 67, dtype: object

>  <hbond:SER:66>  (68) 
hbond:SER:66    NaN
hbond:SER:66     -1
Name: 67, dtype: object

>  <halogenbond:SER:66>  (68) 
halogenbond:SER:66    NaN
halogenbond:SER:66     -1
Name: 67, dtype: object

>  <hbond:SER:67>  (68) 
hbond:SER:67    NaN
hbond:SER:67     -1
Name: 67, dtype: object

>  <halogenbond:SER:67>  (68) 
halogenbond:SER:67    NaN
halogenbond:SER:67     -1
Name: 67, dtype: object

>  <hbond:ARG:68>  (68) 
hbond:ARG:68    NaN
hbond:ARG:68     -1
Name: 67, dtype: object

>  <saltbridge:ARG:68>  (68) 
saltbridge:ARG:68    NaN
saltbridge:ARG:68     -1
Name: 67, dtype: object

>  <hydroph_interaction:ARG:68>  (68) 
hydroph_interaction:ARG:68    NaN
hydroph_interaction:ARG:68     -1
Name: 67, dtype: object

>  <pication:ARG:68>  (68) 
pication:ARG:68    NaN
pication:ARG:68     -1
Name: 67, dtype: object

>  <hydroph_interaction:TYR:72>  (68) 
hydroph_interaction:TYR:72    NaN
hydroph_interaction:TYR:72     -1
Name: 67, dtype: object

>  <hydroph_interaction:VAL:74>  (68) 
hydroph_interaction:VAL:74    NaN
hydroph_interaction:VAL:74     -1
Name: 67, dtype: object

>  <hydroph_interaction:PHE:76>  (68) 
hydroph_interaction:PHE:76    NaN
hydroph_interaction:PHE:76     -1
Name: 67, dtype: object

>  <hbond:SER:77>  (68) 
hbond:SER:77    NaN
hbond:SER:77     -1
Name: 67, dtype: object

>  <hbond:SER:80>  (68) 
hbond:SER:80    NaN
hbond:SER:80     -1
Name: 67, dtype: object

>  <hbond:LEU:81>  (68) 
hbond:LEU:81    NaN
hbond:LEU:81     -1
Name: 67, dtype: object

>  <halogenbond:LEU:81>  (68) 
halogenbond:LEU:81    NaN
halogenbond:LEU:81     -1
Name: 67, dtype: object

>  <hydroph_interaction:LEU:81>  (68) 
hydroph_interaction:LEU:81    NaN
hydroph_interaction:LEU:81     -1
Name: 67, dtype: object

>  <hydroph_interaction:ILE:82>  (68) 
hydroph_interaction:ILE:82    NaN
hydroph_interaction:ILE:82     -1
Name: 67, dtype: object

>  <halogenbond:ILE:82>  (68) 
halogenbond:ILE:82    NaN
halogenbond:ILE:82     -1
Name: 67, dtype: object

>  <hbond:ILE:82>  (68) 
hbond:ILE:82    NaN
hbond:ILE:82     -1
Name: 67, dtype: object

>  <hbond:PHE:83>  (68) 
hbond:PHE:83    NaN
hbond:PHE:83     -1
Name: 67, dtype: object

>  <hydroph_interaction:PHE:83>  (68) 
hydroph_interaction:PHE:83    NaN
hydroph_interaction:PHE:83     -1
Name: 67, dtype: object

>  <halogenbond:PHE:83>  (68) 
halogenbond:PHE:83    NaN
halogenbond:PHE:83     -1
Name: 67, dtype: object

>  <pistack:PHE:83>  (68) 
pistack:PHE:83    NaN
pistack:PHE:83     -1
Name: 67, dtype: object

>  <pication:PHE:83>  (68) 
pication:PHE:83    NaN
pication:PHE:83     -1
Name: 67, dtype: object

>  <hydroph_interaction:VAL:84>  (68) 
hydroph_interaction:VAL:84    0.0
hydroph_interaction:VAL:84      0
Name: 67, dtype: object

>  <halogenbond:VAL:84>  (68) 
halogenbond:VAL:84    NaN
halogenbond:VAL:84     -1
Name: 67, dtype: object

>  <hbond:VAL:84>  (68) 
hbond:VAL:84    NaN
hbond:VAL:84     -1
Name: 67, dtype: object

>  <hydroph_interaction:GLU:85>  (68) 
hydroph_interaction:GLU:85    0.0
hydroph_interaction:GLU:85      0
Name: 67, dtype: object

>  <hbond:GLU:85>  (68) 
hbond:GLU:85    NaN
hbond:GLU:85     -1
Name: 67, dtype: object

>  <halogenbond:GLU:85>  (68) 
halogenbond:GLU:85    NaN
halogenbond:GLU:85     -1
Name: 67, dtype: object

>  <saltbridge:GLU:85>  (68) 
saltbridge:GLU:85    NaN
saltbridge:GLU:85     -1
Name: 67, dtype: object

>  <halogenbond:ALA:86>  (68) 
halogenbond:ALA:86    0.0
halogenbond:ALA:86      0
Name: 67, dtype: object

>  <hbond:ALA:86>  (68) 
hbond:ALA:86    0.0
hbond:ALA:86      0
Name: 67, dtype: object

>  <hydroph_interaction:ALA:86>  (68) 
hydroph_interaction:ALA:86    0.0
hydroph_interaction:ALA:86      0
Name: 67, dtype: object

>  <hbond:SER:87>  (68) 
hbond:SER:87    0
hbond:SER:87    0
Name: 67, dtype: object

>  <halogenbond:SER:87>  (68) 
halogenbond:SER:87    NaN
halogenbond:SER:87     -1
Name: 67, dtype: object

>  <hbond:GLU:88>  (68) 
hbond:GLU:88    0.0
hbond:GLU:88      0
Name: 67, dtype: object

>  <hydroph_interaction:GLU:88>  (68) 
hydroph_interaction:GLU:88    0.0
hydroph_interaction:GLU:88      0
Name: 67, dtype: object

>  <halogenbond:GLU:88>  (68) 
halogenbond:GLU:88    0.0
halogenbond:GLU:88      0
Name: 67, dtype: object

>  <saltbridge:GLU:88>  (68) 
saltbridge:GLU:88    0.0
saltbridge:GLU:88      0
Name: 67, dtype: object

>  <hydroph_interaction:TYR:89>  (68) 
hydroph_interaction:TYR:89    2.0
hydroph_interaction:TYR:89      2
Name: 67, dtype: object

>  <pistack:TYR:89>  (68) 
pistack:TYR:89    0.0
pistack:TYR:89      0
Name: 67, dtype: object

>  <hbond:TYR:89>  (68) 
hbond:TYR:89    NaN
hbond:TYR:89     -1
Name: 67, dtype: object

>  <halogenbond:TYR:89>  (68) 
halogenbond:TYR:89    NaN
halogenbond:TYR:89     -1
Name: 67, dtype: object

>  <hydroph_interaction:TYR:90>  (68) 
hydroph_interaction:TYR:90    0.0
hydroph_interaction:TYR:90      0
Name: 67, dtype: object

>  <hbond:TYR:90>  (68) 
hbond:TYR:90    NaN
hbond:TYR:90     -1
Name: 67, dtype: object

>  <pistack:TYR:90>  (68) 
pistack:TYR:90    0.0
pistack:TYR:90      0
Name: 67, dtype: object

>  <halogenbond:TYR:90>  (68) 
halogenbond:TYR:90    NaN
halogenbond:TYR:90     -1
Name: 67, dtype: object

>  <pication:TYR:90>  (68) 
pication:TYR:90    NaN
pication:TYR:90     -1
Name: 67, dtype: object

>  <hbond:PRO:91>  (68) 
hbond:PRO:91    NaN
hbond:PRO:91     -1
Name: 67, dtype: object

>  <hydroph_interaction:PRO:91>  (68) 
hydroph_interaction:PRO:91    NaN
hydroph_interaction:PRO:91     -1
Name: 67, dtype: object

>  <halogenbond:PRO:91>  (68) 
halogenbond:PRO:91    NaN
halogenbond:PRO:91     -1
Name: 67, dtype: object

>  <hbond:ALA:92>  (68) 
hbond:ALA:92    NaN
hbond:ALA:92     -1
Name: 67, dtype: object

>  <hydroph_interaction:ALA:92>  (68) 
hydroph_interaction:ALA:92    NaN
hydroph_interaction:ALA:92     -1
Name: 67, dtype: object

>  <saltbridge:ARG:93>  (68) 
saltbridge:ARG:93    NaN
saltbridge:ARG:93     -1
Name: 67, dtype: object

>  <hbond:ARG:93>  (68) 
hbond:ARG:93    0.0
hbond:ARG:93      0
Name: 67, dtype: object

>  <hydroph_interaction:ARG:93>  (68) 
hydroph_interaction:ARG:93    0.0
hydroph_interaction:ARG:93      0
Name: 67, dtype: object

>  <halogenbond:ARG:93>  (68) 
halogenbond:ARG:93    NaN
halogenbond:ARG:93     -1
Name: 67, dtype: object

>  <pication:ARG:93>  (68) 
pication:ARG:93    NaN
pication:ARG:93     -1
Name: 67, dtype: object

>  <hydroph_interaction:TYR:94>  (68) 
hydroph_interaction:TYR:94    NaN
hydroph_interaction:TYR:94     -1
Name: 67, dtype: object

>  <pistack:TYR:94>  (68) 
pistack:TYR:94    NaN
pistack:TYR:94     -1
Name: 67, dtype: object

>  <hbond:TYR:94>  (68) 
hbond:TYR:94    NaN
hbond:TYR:94     -1
Name: 67, dtype: object

>  <hbond:GLN:95>  (68) 
hbond:GLN:95    NaN
hbond:GLN:95     -1
Name: 67, dtype: object

>  <hydroph_interaction:GLN:95>  (68) 
hydroph_interaction:GLN:95    NaN
hydroph_interaction:GLN:95     -1
Name: 67, dtype: object

>  <halogenbond:GLN:95>  (68) 
halogenbond:GLN:95    0.0
halogenbond:GLN:95      0
Name: 67, dtype: object

>  <hbond:SER:96>  (68) 
hbond:SER:96    NaN
hbond:SER:96     -1
Name: 67, dtype: object

>  <halogenbond:HIS:97>  (68) 
halogenbond:HIS:97    NaN
halogenbond:HIS:97     -1
Name: 67, dtype: object

>  <hydroph_interaction:LEU:98>  (68) 
hydroph_interaction:LEU:98    NaN
hydroph_interaction:LEU:98     -1
Name: 67, dtype: object

>  <hbond:LEU:98>  (68) 
hbond:LEU:98    NaN
hbond:LEU:98     -1
Name: 67, dtype: object

>  <halogenbond:LEU:98>  (68) 
halogenbond:LEU:98    NaN
halogenbond:LEU:98     -1
Name: 67, dtype: object

>  <hbond:MET:99>  (68) 
hbond:MET:99    NaN
hbond:MET:99     -1
Name: 67, dtype: object

>  <hydroph_interaction:MET:99>  (68) 
hydroph_interaction:MET:99    NaN
hydroph_interaction:MET:99     -1
Name: 67, dtype: object

>  <halogenbond:MET:99>  (68) 
halogenbond:MET:99    NaN
halogenbond:MET:99     -1
Name: 67, dtype: object

>  <hydroph_interaction:LEU:100>  (68) 
hydroph_interaction:LEU:100    NaN
hydroph_interaction:LEU:100     -1
Name: 67, dtype: object

>  <hbond:LEU:100>  (68) 
hbond:LEU:100    NaN
hbond:LEU:100     -1
Name: 67, dtype: object

>  <hbond:ALA:101>  (68) 
hbond:ALA:101    NaN
hbond:ALA:101     -1
Name: 67, dtype: object

>  <hydroph_interaction:ALA:101>  (68) 
hydroph_interaction:ALA:101    NaN
hydroph_interaction:ALA:101     -1
Name: 67, dtype: object

>  <hydroph_interaction:VAL:102>  (68) 
hydroph_interaction:VAL:102    NaN
hydroph_interaction:VAL:102     -1
Name: 67, dtype: object

>  <hbond:VAL:102>  (68) 
hbond:VAL:102    NaN
hbond:VAL:102     -1
Name: 67, dtype: object

>  <hbond:GLY:103>  (68) 
hbond:GLY:103    NaN
hbond:GLY:103     -1
Name: 67, dtype: object

>  <halogenbond:GLY:103>  (68) 
halogenbond:GLY:103    NaN
halogenbond:GLY:103     -1
Name: 67, dtype: object

>  <hbond:HIS:104>  (68) 
hbond:HIS:104    NaN
hbond:HIS:104     -1
Name: 67, dtype: object

>  <saltbridge:HIS:104>  (68) 
saltbridge:HIS:104    NaN
saltbridge:HIS:104     -1
Name: 67, dtype: object

>  <pication:HIS:104>  (68) 
pication:HIS:104    NaN
pication:HIS:104     -1
Name: 67, dtype: object

>  <halogenbond:HIS:104>  (68) 
halogenbond:HIS:104    NaN
halogenbond:HIS:104     -1
Name: 67, dtype: object

>  <hydroph_interaction:HIS:104>  (68) 
hydroph_interaction:HIS:104    NaN
hydroph_interaction:HIS:104     -1
Name: 67, dtype: object

>  <pistack:HIS:104>  (68) 
pistack:HIS:104    NaN
pistack:HIS:104     -1
Name: 67, dtype: object

>  <halogenbond:SER:105>  (68) 
halogenbond:SER:105    0.0
halogenbond:SER:105      0
Name: 67, dtype: object

>  <hbond:SER:105>  (68) 
hbond:SER:105    0.0
hbond:SER:105      0
Name: 67, dtype: object

>  <hbond:GLU:106>  (68) 
hbond:GLU:106    0.0
hbond:GLU:106      0
Name: 67, dtype: object

>  <hydroph_interaction:GLU:106>  (68) 
hydroph_interaction:GLU:106    0.0
hydroph_interaction:GLU:106      0
Name: 67, dtype: object

>  <saltbridge:GLU:106>  (68) 
saltbridge:GLU:106    NaN
saltbridge:GLU:106     -1
Name: 67, dtype: object

>  <halogenbond:GLU:106>  (68) 
halogenbond:GLU:106    NaN
halogenbond:GLU:106     -1
Name: 67, dtype: object

>  <hydroph_interaction:PRO:107>  (68) 
hydroph_interaction:PRO:107    1
hydroph_interaction:PRO:107    1
Name: 67, dtype: object

>  <hbond:PRO:107>  (68) 
hbond:PRO:107    NaN
hbond:PRO:107     -1
Name: 67, dtype: object

>  <halogenbond:PRO:107>  (68) 
halogenbond:PRO:107    NaN
halogenbond:PRO:107     -1
Name: 67, dtype: object

>  <hbond:GLY:108>  (68) 
hbond:GLY:108    NaN
hbond:GLY:108     -1
Name: 67, dtype: object

>  <halogenbond:GLY:108>  (68) 
halogenbond:GLY:108    NaN
halogenbond:GLY:108     -1
Name: 67, dtype: object

>  <hbond:ASP:109>  (68) 
hbond:ASP:109    NaN
hbond:ASP:109     -1
Name: 67, dtype: object

>  <hydroph_interaction:ASP:109>  (68) 
hydroph_interaction:ASP:109    NaN
hydroph_interaction:ASP:109     -1
Name: 67, dtype: object

>  <saltbridge:ASP:109>  (68) 
saltbridge:ASP:109    NaN
saltbridge:ASP:109     -1
Name: 67, dtype: object

>  <halogenbond:CYS:110>  (68) 
halogenbond:CYS:110    NaN
halogenbond:CYS:110     -1
Name: 67, dtype: object

>  <hbond:CYS:110>  (68) 
hbond:CYS:110    NaN
hbond:CYS:110     -1
Name: 67, dtype: object

>  <hbond:GLY:111>  (68) 
hbond:GLY:111    NaN
hbond:GLY:111     -1
Name: 67, dtype: object

>  <hbond:GLY:112>  (68) 
hbond:GLY:112    NaN
hbond:GLY:112     -1
Name: 67, dtype: object

>  <hbond:ILE:113>  (68) 
hbond:ILE:113    NaN
hbond:ILE:113     -1
Name: 67, dtype: object

>  <hydroph_interaction:LEU:114>  (68) 
hydroph_interaction:LEU:114    NaN
hydroph_interaction:LEU:114     -1
Name: 67, dtype: object

>  <hbond:LEU:114>  (68) 
hbond:LEU:114    NaN
hbond:LEU:114     -1
Name: 67, dtype: object

>  <hydroph_interaction:ILE:123>  (68) 
hydroph_interaction:ILE:123    NaN
hydroph_interaction:ILE:123     -1
Name: 67, dtype: object

>  <hbond:ILE:123>  (68) 
hbond:ILE:123    NaN
hbond:ILE:123     -1
Name: 67, dtype: object

>  <hydroph_interaction:VAL:124>  (68) 
hydroph_interaction:VAL:124    0.0
hydroph_interaction:VAL:124      0
Name: 67, dtype: object

>  <hbond:VAL:124>  (68) 
hbond:VAL:124    NaN
hbond:VAL:124     -1
Name: 67, dtype: object

>  <halogenbond:VAL:124>  (68) 
halogenbond:VAL:124    NaN
halogenbond:VAL:124     -1
Name: 67, dtype: object

>  <hbond:SER:125>  (68) 
hbond:SER:125    1
hbond:SER:125    1
Name: 67, dtype: object

>  <halogenbond:SER:125>  (68) 
halogenbond:SER:125    NaN
halogenbond:SER:125     -1
Name: 67, dtype: object

>  <hydroph_interaction:THR:126>  (68) 
hydroph_interaction:THR:126    0.0
hydroph_interaction:THR:126      0
Name: 67, dtype: object

>  <hbond:THR:126>  (68) 
hbond:THR:126    0.0
hbond:THR:126      0
Name: 67, dtype: object

>  <halogenbond:THR:126>  (68) 
halogenbond:THR:126    NaN
halogenbond:THR:126     -1
Name: 67, dtype: object

>  <hbond:GLY:127>  (68) 
hbond:GLY:127    0
hbond:GLY:127    0
Name: 67, dtype: object

>  <halogenbond:GLY:127>  (68) 
halogenbond:GLY:127    NaN
halogenbond:GLY:127     -1
Name: 67, dtype: object

>  <hydroph_interaction:GLY:127>  (68) 
hydroph_interaction:GLY:127    NaN
hydroph_interaction:GLY:127     -1
Name: 67, dtype: object

>  <hbond:GLY:128>  (68) 
hbond:GLY:128    NaN
hbond:GLY:128     -1
Name: 67, dtype: object

>  <halogenbond:GLY:128>  (68) 
halogenbond:GLY:128    NaN
halogenbond:GLY:128     -1
Name: 67, dtype: object

>  <hydroph_interaction:GLY:128>  (68) 
hydroph_interaction:GLY:128    NaN
hydroph_interaction:GLY:128     -1
Name: 67, dtype: object

>  <hbond:ASN:129>  (68) 
hbond:ASN:129    NaN
hbond:ASN:129     -1
Name: 67, dtype: object

>  <hydroph_interaction:ASN:129>  (68) 
hydroph_interaction:ASN:129    NaN
hydroph_interaction:ASN:129     -1
Name: 67, dtype: object

>  <halogenbond:ASN:129>  (68) 
halogenbond:ASN:129    NaN
halogenbond:ASN:129     -1
Name: 67, dtype: object

>  <hbond:GLY:130>  (68) 
hbond:GLY:130    NaN
hbond:GLY:130     -1
Name: 67, dtype: object

>  <hbond:LEU:131>  (68) 
hbond:LEU:131    NaN
hbond:LEU:131     -1
Name: 67, dtype: object

>  <hydroph_interaction:LEU:131>  (68) 
hydroph_interaction:LEU:131    NaN
hydroph_interaction:LEU:131     -1
Name: 67, dtype: object

>  <halogenbond:LEU:131>  (68) 
halogenbond:LEU:131    NaN
halogenbond:LEU:131     -1
Name: 67, dtype: object

>  <hydroph_interaction:VAL:132>  (68) 
hydroph_interaction:VAL:132    NaN
hydroph_interaction:VAL:132     -1
Name: 67, dtype: object

>  <hbond:VAL:132>  (68) 
hbond:VAL:132    NaN
hbond:VAL:132     -1
Name: 67, dtype: object

>  <hbond:GLY:133>  (68) 
hbond:GLY:133    NaN
hbond:GLY:133     -1
Name: 67, dtype: object

>  <halogenbond:GLY:133>  (68) 
halogenbond:GLY:133    NaN
halogenbond:GLY:133     -1
Name: 67, dtype: object

>  <hydroph_interaction:PHE:134>  (68) 
hydroph_interaction:PHE:134    NaN
hydroph_interaction:PHE:134     -1
Name: 67, dtype: object

>  <hbond:PHE:134>  (68) 
hbond:PHE:134    NaN
hbond:PHE:134     -1
Name: 67, dtype: object

>  <pistack:PHE:134>  (68) 
pistack:PHE:134    NaN
pistack:PHE:134     -1
Name: 67, dtype: object

>  <pication:PHE:134>  (68) 
pication:PHE:134    NaN
pication:PHE:134     -1
Name: 67, dtype: object

>  <halogenbond:PHE:134>  (68) 
halogenbond:PHE:134    NaN
halogenbond:PHE:134     -1
Name: 67, dtype: object

>  <hydroph_interaction:ALA:135>  (68) 
hydroph_interaction:ALA:135    NaN
hydroph_interaction:ALA:135     -1
Name: 67, dtype: object

>  <hbond:ALA:135>  (68) 
hbond:ALA:135    NaN
hbond:ALA:135     -1
Name: 67, dtype: object

$$$$
Z1580273842
     RDKit          3D

 40 40  0  0  0  0  0  0  0  0999 V2000
   10.3450    9.2460   22.7030 C   0  0  0  0  0  0  0  0  0  0  0  0
    9.5140   10.2250   23.4400 C   0  0  0  0  0  0  0  0  0  0  0  0
    8.5590    9.7880   24.2580 N   0  0  0  0  0  0  0  0  0  0  0  0
    8.0020   10.9030   24.7440 N   0  0  0  0  0  0  0  0  0  0  0  0
    6.8940   10.7890   25.6700 C   0  0  0  0  0  0  0  0  0  0  0  0
    8.5680   12.0520   24.2770 C   0  0  0  0  0  0  0  0  0  0  0  0
    8.0860   13.3840   24.7020 C   0  0  0  0  0  0  0  0  0  0  0  0
    9.5700   11.6460   23.4150 C   0  0  0  0  0  0  0  0  0  0  0  0
   10.4540   12.3960   22.6710 N   0  0  0  0  0  0  0  0  0  0  0  0
   11.3310   13.3460   23.1300 C   0  0  0  0  0  0  0  0  0  0  0  0
   11.2770   13.9460   24.1990 O   0  0  0  0  0  0  0  0  0  0  0  0
   12.4750   13.6120   22.1300 C   0  0  0  0  0  0  0  0  0  0  0  0
   12.3340   14.8890   21.4690 N   0  0  0  0  0  0  0  0  0  0  0  0
   12.7360   15.8240   22.4800 C   0  0  0  0  0  0  0  0  0  0  0  0
   13.0310   14.9790   20.1150 C   0  0  0  0  0  0  0  0  0  0  0  0
   14.0080   16.1070   19.9540 C   0  0  0  0  0  0  0  0  0  0  0  0
   12.1840   15.1900   18.8370 C   0  0  0  0  0  0  0  0  0  0  0  0
   11.2120   14.3330   18.5400 N   0  0  0  0  0  0  0  0  0  0  0  0
   12.3760   16.1270   18.0630 O   0  0  0  0  0  0  0  0  0  0  0  0
    9.7480    8.3870   22.4000 H   0  0  0  0  0  0  0  0  0  0  0  0
   11.1840    8.8820   23.3020 H   0  0  0  0  0  0  0  0  0  0  0  0
   10.7470    9.7100   21.8010 H   0  0  0  0  0  0  0  0  0  0  0  0
    7.2450   10.7030   26.6880 H   0  0  0  0  0  0  0  0  0  0  0  0
    6.2740   11.6850   25.5790 H   0  0  0  0  0  0  0  0  0  0  0  0
    6.3280    9.9010   25.4060 H   0  0  0  0  0  0  0  0  0  0  0  0
    7.1880   13.6650   24.1410 H   0  0  0  0  0  0  0  0  0  0  0  0
    7.8020   13.4040   25.7590 H   0  0  0  0  0  0  0  0  0  0  0  0
    8.8610   14.1400   24.5570 H   0  0  0  0  0  0  0  0  0  0  0  0
   10.6320   12.1160   21.6930 H   0  0  0  0  0  0  0  0  0  0  0  0
   13.4310   13.5480   22.6520 H   0  0  0  0  0  0  0  0  0  0  0  0
   12.4350   12.8370   21.3950 H   0  0  0  0  0  0  0  0  0  0  0  0
   12.4110   16.8370   22.2340 H   0  0  0  0  0  0  0  0  0  0  0  0
   12.3320   15.5720   23.4620 H   0  0  0  0  0  0  0  0  0  0  0  0
   13.8190   15.8140   22.5600 H   0  0  0  0  0  0  0  0  0  0  0  0
   13.5430   14.0320   19.9180 H   0  0  0  0  0  0  0  0  0  0  0  0
   14.7540   15.8070   19.2320 H   0  0  0  0  0  0  0  0  0  0  0  0
   14.4900   16.3360   20.8930 H   0  0  0  0  0  0  0  0  0  0  0  0
   13.6060   17.0150   19.5290 H   0  0  0  0  0  0  0  0  0  0  0  0
   11.1620   13.4180   18.9780 H   0  0  0  0  0  0  0  0  0  0  0  0
   10.8770   14.4530   17.5790 H   0  0  0  0  0  0  0  0  0  0  0  0
  1  2  1  0
  2  3  2  0
  3  4  1  0
  4  5  1  0
  4  6  1  0
  6  7  1  0
  6  8  2  0
  8  9  1  0
  9 10  1  0
 10 11  2  0
 10 12  1  0
 12 13  1  0
 13 14  1  0
 13 15  1  0
 15 16  1  0
 15 17  1  0
 17 18  1  0
 17 19  2  0
  8  2  1  0
  1 20  1  0
  1 21  1  0
  1 22  1  0
  5 23  1  0
  5 24  1  0
  5 25  1  0
  7 26  1  0
  7 27  1  0
  7 28  1  0
  9 29  1  0
 12 30  1  0
 12 31  1  0
 14 32  1  0
 14 33  1  0
 14 34  1  0
 15 35  1  0
 16 36  1  0
 16 37  1  0
 16 38  1  0
 18 39  1  0
 18 40  1  0
A    1
 C1 
A    2
 C2 
A    3
 N1 
A    4
 N2 
A    5
 C3 
A    6
 C4 
A    7
 C5 
A    8
 C6 
A    9
 N3 
A   10
 C7 
A   11
 O1 
A   12
 C8 
A   13
 N4 
A   14
 C9 
A   15
 C10
A   16
 C11
A   17
 C12
A   18
 N5 
A   19
 O2 
A   20
 H1 
A   21
 H2 
A   22
 H3 
A   23
 H4 
A   24
 H5 
A   25
 H6 
A   26
 H7 
A   27
 H8 
A   28
 H9 
A   29
 H10
A   30
 H11
A   31
 H12
A   32
 H13
A   33
 H14
A   34
 H15
A   35
 H16
A   36
 H17
A   37
 H18
A   38
 H19
A   39
 H20
A   40
 H21
M  END
>  <ref_pdb>  (69) 
x0310_0A

>  <ref_mols>  (69) 
x0310_0A,x0451_0A,x0365_0A

>  <original SMILES>  (69) 
Cc1nn(C)c(C)c1NC(=O)CN(C)C(C)C(N)=O

>  <rationale>  (69) 
info halogenbond:S105+A86+E85+E106+T126+P107+H104+Y64+C65+S87+N129+F83+R93+L131+I82+G128+P91+H21+V84+G133+Y90+Y89+H97+L81+F134+L98+R20+G103+S66+S67+S7+G108+R38+V124+M99+S36; hbond:S87+S125+Q95+T126+D39+A86+C110+D109+E85+G108+G103+G128+G130+L131+N129+H104+R68+V124+R93+P91+F83+S67+S7+S66+G112+G133+V132+R20+Y89+S77+A135+Y63+A92+A101+M99+F134+L100+I82+Y64+S36+L98+V84+L81+Y94+S80+R38+S37+V102+G8+I123+G111+I113+L114+C65+L22+S96; hydroph_interaction:V84+V124+Y90+Y89+H21+E85+D109+N129+L40+I123+A135+Q95+I82+L100+L98+L131+F83+R93+V132+Y63+F134+H104+R20+A86+V74+P91+A101+F76+M99+L114+A92+Y94+R68+Y72+Y64+V18+V102+W28+G127+G128+L81; pication:H21+H104+R93+Y63+F134+Y90+R68+F83+R20; pistack:Y89+H104+F134+Y63+F83+Y94; saltbridge:D39+R93+H104+E106+D109+E85+E88+R68+R20; 

>  <intxn_cluster>  (69) 
-1

>  <intxn_cluster_rank>  (69) 
-1

>  <N_interactions>  (69) 
12

>  <∆∆G>  (69) 
-9.943536

>  <$/mg>  (69) 
163.0

>  <comRMSD>  (69) 
0.816231

>  <N_rotatable_bonds>  (69) 
10

>  <deep_P1_sidechain>  (69) 
nan

>  <farthest_distance_to_substrate>  (69) 
2.71671

>  <hbond:SER:7>  (69) 
hbond:SER:7    NaN
hbond:SER:7     -1
Name: 68, dtype: object

>  <halogenbond:SER:7>  (69) 
halogenbond:SER:7    NaN
halogenbond:SER:7     -1
Name: 68, dtype: object

>  <hbond:GLY:8>  (69) 
hbond:GLY:8    NaN
hbond:GLY:8     -1
Name: 68, dtype: object

>  <hydroph_interaction:VAL:18>  (69) 
hydroph_interaction:VAL:18    NaN
hydroph_interaction:VAL:18     -1
Name: 68, dtype: object

>  <hbond:ASN:19>  (69) 
hbond:ASN:19    0.0
hbond:ASN:19      0
Name: 68, dtype: object

>  <hydroph_interaction:ASN:19>  (69) 
hydroph_interaction:ASN:19    0.0
hydroph_interaction:ASN:19      0
Name: 68, dtype: object

>  <halogenbond:ASN:19>  (69) 
halogenbond:ASN:19    0.0
halogenbond:ASN:19      0
Name: 68, dtype: object

>  <hbond:ARG:20>  (69) 
hbond:ARG:20    NaN
hbond:ARG:20     -1
Name: 68, dtype: object

>  <hydroph_interaction:ARG:20>  (69) 
hydroph_interaction:ARG:20    NaN
hydroph_interaction:ARG:20     -1
Name: 68, dtype: object

>  <saltbridge:ARG:20>  (69) 
saltbridge:ARG:20    NaN
saltbridge:ARG:20     -1
Name: 68, dtype: object

>  <halogenbond:ARG:20>  (69) 
halogenbond:ARG:20    NaN
halogenbond:ARG:20     -1
Name: 68, dtype: object

>  <pication:ARG:20>  (69) 
pication:ARG:20    NaN
pication:ARG:20     -1
Name: 68, dtype: object

>  <hbond:HIS:21>  (69) 
hbond:HIS:21    0.0
hbond:HIS:21      0
Name: 68, dtype: object

>  <hydroph_interaction:HIS:21>  (69) 
hydroph_interaction:HIS:21    1.0
hydroph_interaction:HIS:21      1
Name: 68, dtype: object

>  <pistack:HIS:21>  (69) 
pistack:HIS:21    0.0
pistack:HIS:21      0
Name: 68, dtype: object

>  <pication:HIS:21>  (69) 
pication:HIS:21    1.0
pication:HIS:21      1
Name: 68, dtype: object

>  <saltbridge:HIS:21>  (69) 
saltbridge:HIS:21    0.0
saltbridge:HIS:21      0
Name: 68, dtype: object

>  <halogenbond:HIS:21>  (69) 
halogenbond:HIS:21    NaN
halogenbond:HIS:21     -1
Name: 68, dtype: object

>  <hydroph_interaction:LEU:22>  (69) 
hydroph_interaction:LEU:22    0.0
hydroph_interaction:LEU:22      0
Name: 68, dtype: object

>  <hbond:LEU:22>  (69) 
hbond:LEU:22    NaN
hbond:LEU:22     -1
Name: 68, dtype: object

>  <hydroph_interaction:TRP:28>  (69) 
hydroph_interaction:TRP:28    NaN
hydroph_interaction:TRP:28     -1
Name: 68, dtype: object

>  <hbond:SER:36>  (69) 
hbond:SER:36    NaN
hbond:SER:36     -1
Name: 68, dtype: object

>  <halogenbond:SER:36>  (69) 
halogenbond:SER:36    NaN
halogenbond:SER:36     -1
Name: 68, dtype: object

>  <hbond:SER:37>  (69) 
hbond:SER:37    NaN
hbond:SER:37     -1
Name: 68, dtype: object

>  <hbond:ARG:38>  (69) 
hbond:ARG:38    NaN
hbond:ARG:38     -1
Name: 68, dtype: object

>  <halogenbond:ARG:38>  (69) 
halogenbond:ARG:38    NaN
halogenbond:ARG:38     -1
Name: 68, dtype: object

>  <saltbridge:ASP:39>  (69) 
saltbridge:ASP:39    1.0
saltbridge:ASP:39      1
Name: 68, dtype: object

>  <halogenbond:ASP:39>  (69) 
halogenbond:ASP:39    0.0
halogenbond:ASP:39      0
Name: 68, dtype: object

>  <hbond:ASP:39>  (69) 
hbond:ASP:39    1.0
hbond:ASP:39      1
Name: 68, dtype: object

>  <hydroph_interaction:ASP:39>  (69) 
hydroph_interaction:ASP:39    0.0
hydroph_interaction:ASP:39      0
Name: 68, dtype: object

>  <hydroph_interaction:LEU:40>  (69) 
hydroph_interaction:LEU:40    NaN
hydroph_interaction:LEU:40     -1
Name: 68, dtype: object

>  <hydroph_interaction:TYR:63>  (69) 
hydroph_interaction:TYR:63    NaN
hydroph_interaction:TYR:63     -1
Name: 68, dtype: object

>  <hbond:TYR:63>  (69) 
hbond:TYR:63    NaN
hbond:TYR:63     -1
Name: 68, dtype: object

>  <pistack:TYR:63>  (69) 
pistack:TYR:63    NaN
pistack:TYR:63     -1
Name: 68, dtype: object

>  <pication:TYR:63>  (69) 
pication:TYR:63    NaN
pication:TYR:63     -1
Name: 68, dtype: object

>  <halogenbond:TYR:64>  (69) 
halogenbond:TYR:64    NaN
halogenbond:TYR:64     -1
Name: 68, dtype: object

>  <hbond:TYR:64>  (69) 
hbond:TYR:64    NaN
hbond:TYR:64     -1
Name: 68, dtype: object

>  <hydroph_interaction:TYR:64>  (69) 
hydroph_interaction:TYR:64    NaN
hydroph_interaction:TYR:64     -1
Name: 68, dtype: object

>  <halogenbond:CYS:65>  (69) 
halogenbond:CYS:65    NaN
halogenbond:CYS:65     -1
Name: 68, dtype: object

>  <hbond:CYS:65>  (69) 
hbond:CYS:65    NaN
hbond:CYS:65     -1
Name: 68, dtype: object

>  <hbond:SER:66>  (69) 
hbond:SER:66    NaN
hbond:SER:66     -1
Name: 68, dtype: object

>  <halogenbond:SER:66>  (69) 
halogenbond:SER:66    NaN
halogenbond:SER:66     -1
Name: 68, dtype: object

>  <hbond:SER:67>  (69) 
hbond:SER:67    NaN
hbond:SER:67     -1
Name: 68, dtype: object

>  <halogenbond:SER:67>  (69) 
halogenbond:SER:67    NaN
halogenbond:SER:67     -1
Name: 68, dtype: object

>  <hbond:ARG:68>  (69) 
hbond:ARG:68    NaN
hbond:ARG:68     -1
Name: 68, dtype: object

>  <saltbridge:ARG:68>  (69) 
saltbridge:ARG:68    NaN
saltbridge:ARG:68     -1
Name: 68, dtype: object

>  <hydroph_interaction:ARG:68>  (69) 
hydroph_interaction:ARG:68    NaN
hydroph_interaction:ARG:68     -1
Name: 68, dtype: object

>  <pication:ARG:68>  (69) 
pication:ARG:68    NaN
pication:ARG:68     -1
Name: 68, dtype: object

>  <hydroph_interaction:TYR:72>  (69) 
hydroph_interaction:TYR:72    NaN
hydroph_interaction:TYR:72     -1
Name: 68, dtype: object

>  <hydroph_interaction:VAL:74>  (69) 
hydroph_interaction:VAL:74    NaN
hydroph_interaction:VAL:74     -1
Name: 68, dtype: object

>  <hydroph_interaction:PHE:76>  (69) 
hydroph_interaction:PHE:76    NaN
hydroph_interaction:PHE:76     -1
Name: 68, dtype: object

>  <hbond:SER:77>  (69) 
hbond:SER:77    NaN
hbond:SER:77     -1
Name: 68, dtype: object

>  <hbond:SER:80>  (69) 
hbond:SER:80    NaN
hbond:SER:80     -1
Name: 68, dtype: object

>  <hbond:LEU:81>  (69) 
hbond:LEU:81    NaN
hbond:LEU:81     -1
Name: 68, dtype: object

>  <halogenbond:LEU:81>  (69) 
halogenbond:LEU:81    NaN
halogenbond:LEU:81     -1
Name: 68, dtype: object

>  <hydroph_interaction:LEU:81>  (69) 
hydroph_interaction:LEU:81    NaN
hydroph_interaction:LEU:81     -1
Name: 68, dtype: object

>  <hydroph_interaction:ILE:82>  (69) 
hydroph_interaction:ILE:82    NaN
hydroph_interaction:ILE:82     -1
Name: 68, dtype: object

>  <halogenbond:ILE:82>  (69) 
halogenbond:ILE:82    NaN
halogenbond:ILE:82     -1
Name: 68, dtype: object

>  <hbond:ILE:82>  (69) 
hbond:ILE:82    NaN
hbond:ILE:82     -1
Name: 68, dtype: object

>  <hbond:PHE:83>  (69) 
hbond:PHE:83    NaN
hbond:PHE:83     -1
Name: 68, dtype: object

>  <hydroph_interaction:PHE:83>  (69) 
hydroph_interaction:PHE:83    NaN
hydroph_interaction:PHE:83     -1
Name: 68, dtype: object

>  <halogenbond:PHE:83>  (69) 
halogenbond:PHE:83    NaN
halogenbond:PHE:83     -1
Name: 68, dtype: object

>  <pistack:PHE:83>  (69) 
pistack:PHE:83    NaN
pistack:PHE:83     -1
Name: 68, dtype: object

>  <pication:PHE:83>  (69) 
pication:PHE:83    NaN
pication:PHE:83     -1
Name: 68, dtype: object

>  <hydroph_interaction:VAL:84>  (69) 
hydroph_interaction:VAL:84    NaN
hydroph_interaction:VAL:84     -1
Name: 68, dtype: object

>  <halogenbond:VAL:84>  (69) 
halogenbond:VAL:84    NaN
halogenbond:VAL:84     -1
Name: 68, dtype: object

>  <hbond:VAL:84>  (69) 
hbond:VAL:84    NaN
hbond:VAL:84     -1
Name: 68, dtype: object

>  <hydroph_interaction:GLU:85>  (69) 
hydroph_interaction:GLU:85    NaN
hydroph_interaction:GLU:85     -1
Name: 68, dtype: object

>  <hbond:GLU:85>  (69) 
hbond:GLU:85    NaN
hbond:GLU:85     -1
Name: 68, dtype: object

>  <halogenbond:GLU:85>  (69) 
halogenbond:GLU:85    NaN
halogenbond:GLU:85     -1
Name: 68, dtype: object

>  <saltbridge:GLU:85>  (69) 
saltbridge:GLU:85    NaN
saltbridge:GLU:85     -1
Name: 68, dtype: object

>  <halogenbond:ALA:86>  (69) 
halogenbond:ALA:86    NaN
halogenbond:ALA:86     -1
Name: 68, dtype: object

>  <hbond:ALA:86>  (69) 
hbond:ALA:86    NaN
hbond:ALA:86     -1
Name: 68, dtype: object

>  <hydroph_interaction:ALA:86>  (69) 
hydroph_interaction:ALA:86    NaN
hydroph_interaction:ALA:86     -1
Name: 68, dtype: object

>  <hbond:SER:87>  (69) 
hbond:SER:87    1
hbond:SER:87    1
Name: 68, dtype: object

>  <halogenbond:SER:87>  (69) 
halogenbond:SER:87    NaN
halogenbond:SER:87     -1
Name: 68, dtype: object

>  <hbond:GLU:88>  (69) 
hbond:GLU:88    0.0
hbond:GLU:88      0
Name: 68, dtype: object

>  <hydroph_interaction:GLU:88>  (69) 
hydroph_interaction:GLU:88    0.0
hydroph_interaction:GLU:88      0
Name: 68, dtype: object

>  <halogenbond:GLU:88>  (69) 
halogenbond:GLU:88    0.0
halogenbond:GLU:88      0
Name: 68, dtype: object

>  <saltbridge:GLU:88>  (69) 
saltbridge:GLU:88    NaN
saltbridge:GLU:88     -1
Name: 68, dtype: object

>  <hydroph_interaction:TYR:89>  (69) 
hydroph_interaction:TYR:89    1.0
hydroph_interaction:TYR:89      1
Name: 68, dtype: object

>  <pistack:TYR:89>  (69) 
pistack:TYR:89    NaN
pistack:TYR:89     -1
Name: 68, dtype: object

>  <hbond:TYR:89>  (69) 
hbond:TYR:89    NaN
hbond:TYR:89     -1
Name: 68, dtype: object

>  <halogenbond:TYR:89>  (69) 
halogenbond:TYR:89    NaN
halogenbond:TYR:89     -1
Name: 68, dtype: object

>  <hydroph_interaction:TYR:90>  (69) 
hydroph_interaction:TYR:90    1.0
hydroph_interaction:TYR:90      1
Name: 68, dtype: object

>  <hbond:TYR:90>  (69) 
hbond:TYR:90    0.0
hbond:TYR:90      0
Name: 68, dtype: object

>  <pistack:TYR:90>  (69) 
pistack:TYR:90    0.0
pistack:TYR:90      0
Name: 68, dtype: object

>  <halogenbond:TYR:90>  (69) 
halogenbond:TYR:90    NaN
halogenbond:TYR:90     -1
Name: 68, dtype: object

>  <pication:TYR:90>  (69) 
pication:TYR:90    NaN
pication:TYR:90     -1
Name: 68, dtype: object

>  <hbond:PRO:91>  (69) 
hbond:PRO:91    NaN
hbond:PRO:91     -1
Name: 68, dtype: object

>  <hydroph_interaction:PRO:91>  (69) 
hydroph_interaction:PRO:91    NaN
hydroph_interaction:PRO:91     -1
Name: 68, dtype: object

>  <halogenbond:PRO:91>  (69) 
halogenbond:PRO:91    NaN
halogenbond:PRO:91     -1
Name: 68, dtype: object

>  <hbond:ALA:92>  (69) 
hbond:ALA:92    NaN
hbond:ALA:92     -1
Name: 68, dtype: object

>  <hydroph_interaction:ALA:92>  (69) 
hydroph_interaction:ALA:92    NaN
hydroph_interaction:ALA:92     -1
Name: 68, dtype: object

>  <saltbridge:ARG:93>  (69) 
saltbridge:ARG:93    NaN
saltbridge:ARG:93     -1
Name: 68, dtype: object

>  <hbond:ARG:93>  (69) 
hbond:ARG:93    1.0
hbond:ARG:93      1
Name: 68, dtype: object

>  <hydroph_interaction:ARG:93>  (69) 
hydroph_interaction:ARG:93    NaN
hydroph_interaction:ARG:93     -1
Name: 68, dtype: object

>  <halogenbond:ARG:93>  (69) 
halogenbond:ARG:93    NaN
halogenbond:ARG:93     -1
Name: 68, dtype: object

>  <pication:ARG:93>  (69) 
pication:ARG:93    NaN
pication:ARG:93     -1
Name: 68, dtype: object

>  <hydroph_interaction:TYR:94>  (69) 
hydroph_interaction:TYR:94    NaN
hydroph_interaction:TYR:94     -1
Name: 68, dtype: object

>  <pistack:TYR:94>  (69) 
pistack:TYR:94    NaN
pistack:TYR:94     -1
Name: 68, dtype: object

>  <hbond:TYR:94>  (69) 
hbond:TYR:94    NaN
hbond:TYR:94     -1
Name: 68, dtype: object

>  <hbond:GLN:95>  (69) 
hbond:GLN:95    1.0
hbond:GLN:95      1
Name: 68, dtype: object

>  <hydroph_interaction:GLN:95>  (69) 
hydroph_interaction:GLN:95    NaN
hydroph_interaction:GLN:95     -1
Name: 68, dtype: object

>  <halogenbond:GLN:95>  (69) 
halogenbond:GLN:95    0.0
halogenbond:GLN:95      0
Name: 68, dtype: object

>  <hbond:SER:96>  (69) 
hbond:SER:96    NaN
hbond:SER:96     -1
Name: 68, dtype: object

>  <halogenbond:HIS:97>  (69) 
halogenbond:HIS:97    NaN
halogenbond:HIS:97     -1
Name: 68, dtype: object

>  <hydroph_interaction:LEU:98>  (69) 
hydroph_interaction:LEU:98    NaN
hydroph_interaction:LEU:98     -1
Name: 68, dtype: object

>  <hbond:LEU:98>  (69) 
hbond:LEU:98    NaN
hbond:LEU:98     -1
Name: 68, dtype: object

>  <halogenbond:LEU:98>  (69) 
halogenbond:LEU:98    NaN
halogenbond:LEU:98     -1
Name: 68, dtype: object

>  <hbond:MET:99>  (69) 
hbond:MET:99    NaN
hbond:MET:99     -1
Name: 68, dtype: object

>  <hydroph_interaction:MET:99>  (69) 
hydroph_interaction:MET:99    NaN
hydroph_interaction:MET:99     -1
Name: 68, dtype: object

>  <halogenbond:MET:99>  (69) 
halogenbond:MET:99    NaN
halogenbond:MET:99     -1
Name: 68, dtype: object

>  <hydroph_interaction:LEU:100>  (69) 
hydroph_interaction:LEU:100    NaN
hydroph_interaction:LEU:100     -1
Name: 68, dtype: object

>  <hbond:LEU:100>  (69) 
hbond:LEU:100    NaN
hbond:LEU:100     -1
Name: 68, dtype: object

>  <hbond:ALA:101>  (69) 
hbond:ALA:101    NaN
hbond:ALA:101     -1
Name: 68, dtype: object

>  <hydroph_interaction:ALA:101>  (69) 
hydroph_interaction:ALA:101    NaN
hydroph_interaction:ALA:101     -1
Name: 68, dtype: object

>  <hydroph_interaction:VAL:102>  (69) 
hydroph_interaction:VAL:102    NaN
hydroph_interaction:VAL:102     -1
Name: 68, dtype: object

>  <hbond:VAL:102>  (69) 
hbond:VAL:102    NaN
hbond:VAL:102     -1
Name: 68, dtype: object

>  <hbond:GLY:103>  (69) 
hbond:GLY:103    NaN
hbond:GLY:103     -1
Name: 68, dtype: object

>  <halogenbond:GLY:103>  (69) 
halogenbond:GLY:103    NaN
halogenbond:GLY:103     -1
Name: 68, dtype: object

>  <hbond:HIS:104>  (69) 
hbond:HIS:104    NaN
hbond:HIS:104     -1
Name: 68, dtype: object

>  <saltbridge:HIS:104>  (69) 
saltbridge:HIS:104    NaN
saltbridge:HIS:104     -1
Name: 68, dtype: object

>  <pication:HIS:104>  (69) 
pication:HIS:104    NaN
pication:HIS:104     -1
Name: 68, dtype: object

>  <halogenbond:HIS:104>  (69) 
halogenbond:HIS:104    NaN
halogenbond:HIS:104     -1
Name: 68, dtype: object

>  <hydroph_interaction:HIS:104>  (69) 
hydroph_interaction:HIS:104    NaN
hydroph_interaction:HIS:104     -1
Name: 68, dtype: object

>  <pistack:HIS:104>  (69) 
pistack:HIS:104    NaN
pistack:HIS:104     -1
Name: 68, dtype: object

>  <halogenbond:SER:105>  (69) 
halogenbond:SER:105    NaN
halogenbond:SER:105     -1
Name: 68, dtype: object

>  <hbond:SER:105>  (69) 
hbond:SER:105    0.0
hbond:SER:105      0
Name: 68, dtype: object

>  <hbond:GLU:106>  (69) 
hbond:GLU:106    0.0
hbond:GLU:106      0
Name: 68, dtype: object

>  <hydroph_interaction:GLU:106>  (69) 
hydroph_interaction:GLU:106    0.0
hydroph_interaction:GLU:106      0
Name: 68, dtype: object

>  <saltbridge:GLU:106>  (69) 
saltbridge:GLU:106    NaN
saltbridge:GLU:106     -1
Name: 68, dtype: object

>  <halogenbond:GLU:106>  (69) 
halogenbond:GLU:106    NaN
halogenbond:GLU:106     -1
Name: 68, dtype: object

>  <hydroph_interaction:PRO:107>  (69) 
hydroph_interaction:PRO:107    0
hydroph_interaction:PRO:107    0
Name: 68, dtype: object

>  <hbond:PRO:107>  (69) 
hbond:PRO:107    0.0
hbond:PRO:107      0
Name: 68, dtype: object

>  <halogenbond:PRO:107>  (69) 
halogenbond:PRO:107    NaN
halogenbond:PRO:107     -1
Name: 68, dtype: object

>  <hbond:GLY:108>  (69) 
hbond:GLY:108    NaN
hbond:GLY:108     -1
Name: 68, dtype: object

>  <halogenbond:GLY:108>  (69) 
halogenbond:GLY:108    NaN
halogenbond:GLY:108     -1
Name: 68, dtype: object

>  <hbond:ASP:109>  (69) 
hbond:ASP:109    NaN
hbond:ASP:109     -1
Name: 68, dtype: object

>  <hydroph_interaction:ASP:109>  (69) 
hydroph_interaction:ASP:109    NaN
hydroph_interaction:ASP:109     -1
Name: 68, dtype: object

>  <saltbridge:ASP:109>  (69) 
saltbridge:ASP:109    NaN
saltbridge:ASP:109     -1
Name: 68, dtype: object

>  <halogenbond:CYS:110>  (69) 
halogenbond:CYS:110    0.0
halogenbond:CYS:110      0
Name: 68, dtype: object

>  <hbond:CYS:110>  (69) 
hbond:CYS:110    NaN
hbond:CYS:110     -1
Name: 68, dtype: object

>  <hbond:GLY:111>  (69) 
hbond:GLY:111    NaN
hbond:GLY:111     -1
Name: 68, dtype: object

>  <hbond:GLY:112>  (69) 
hbond:GLY:112    NaN
hbond:GLY:112     -1
Name: 68, dtype: object

>  <hbond:ILE:113>  (69) 
hbond:ILE:113    NaN
hbond:ILE:113     -1
Name: 68, dtype: object

>  <hydroph_interaction:LEU:114>  (69) 
hydroph_interaction:LEU:114    NaN
hydroph_interaction:LEU:114     -1
Name: 68, dtype: object

>  <hbond:LEU:114>  (69) 
hbond:LEU:114    NaN
hbond:LEU:114     -1
Name: 68, dtype: object

>  <hydroph_interaction:ILE:123>  (69) 
hydroph_interaction:ILE:123    NaN
hydroph_interaction:ILE:123     -1
Name: 68, dtype: object

>  <hbond:ILE:123>  (69) 
hbond:ILE:123    NaN
hbond:ILE:123     -1
Name: 68, dtype: object

>  <hydroph_interaction:VAL:124>  (69) 
hydroph_interaction:VAL:124    1.0
hydroph_interaction:VAL:124      1
Name: 68, dtype: object

>  <hbond:VAL:124>  (69) 
hbond:VAL:124    NaN
hbond:VAL:124     -1
Name: 68, dtype: object

>  <halogenbond:VAL:124>  (69) 
halogenbond:VAL:124    NaN
halogenbond:VAL:124     -1
Name: 68, dtype: object

>  <hbond:SER:125>  (69) 
hbond:SER:125    2
hbond:SER:125    2
Name: 68, dtype: object

>  <halogenbond:SER:125>  (69) 
halogenbond:SER:125    0.0
halogenbond:SER:125      0
Name: 68, dtype: object

>  <hydroph_interaction:THR:126>  (69) 
hydroph_interaction:THR:126    0.0
hydroph_interaction:THR:126      0
Name: 68, dtype: object

>  <hbond:THR:126>  (69) 
hbond:THR:126    NaN
hbond:THR:126     -1
Name: 68, dtype: object

>  <halogenbond:THR:126>  (69) 
halogenbond:THR:126    NaN
halogenbond:THR:126     -1
Name: 68, dtype: object

>  <hbond:GLY:127>  (69) 
hbond:GLY:127    0
hbond:GLY:127    0
Name: 68, dtype: object

>  <halogenbond:GLY:127>  (69) 
halogenbond:GLY:127    0.0
halogenbond:GLY:127      0
Name: 68, dtype: object

>  <hydroph_interaction:GLY:127>  (69) 
hydroph_interaction:GLY:127    NaN
hydroph_interaction:GLY:127     -1
Name: 68, dtype: object

>  <hbond:GLY:128>  (69) 
hbond:GLY:128    NaN
hbond:GLY:128     -1
Name: 68, dtype: object

>  <halogenbond:GLY:128>  (69) 
halogenbond:GLY:128    NaN
halogenbond:GLY:128     -1
Name: 68, dtype: object

>  <hydroph_interaction:GLY:128>  (69) 
hydroph_interaction:GLY:128    NaN
hydroph_interaction:GLY:128     -1
Name: 68, dtype: object

>  <hbond:ASN:129>  (69) 
hbond:ASN:129    NaN
hbond:ASN:129     -1
Name: 68, dtype: object

>  <hydroph_interaction:ASN:129>  (69) 
hydroph_interaction:ASN:129    NaN
hydroph_interaction:ASN:129     -1
Name: 68, dtype: object

>  <halogenbond:ASN:129>  (69) 
halogenbond:ASN:129    NaN
halogenbond:ASN:129     -1
Name: 68, dtype: object

>  <hbond:GLY:130>  (69) 
hbond:GLY:130    NaN
hbond:GLY:130     -1
Name: 68, dtype: object

>  <hbond:LEU:131>  (69) 
hbond:LEU:131    NaN
hbond:LEU:131     -1
Name: 68, dtype: object

>  <hydroph_interaction:LEU:131>  (69) 
hydroph_interaction:LEU:131    NaN
hydroph_interaction:LEU:131     -1
Name: 68, dtype: object

>  <halogenbond:LEU:131>  (69) 
halogenbond:LEU:131    NaN
halogenbond:LEU:131     -1
Name: 68, dtype: object

>  <hydroph_interaction:VAL:132>  (69) 
hydroph_interaction:VAL:132    NaN
hydroph_interaction:VAL:132     -1
Name: 68, dtype: object

>  <hbond:VAL:132>  (69) 
hbond:VAL:132    NaN
hbond:VAL:132     -1
Name: 68, dtype: object

>  <hbond:GLY:133>  (69) 
hbond:GLY:133    NaN
hbond:GLY:133     -1
Name: 68, dtype: object

>  <halogenbond:GLY:133>  (69) 
halogenbond:GLY:133    NaN
halogenbond:GLY:133     -1
Name: 68, dtype: object

>  <hydroph_interaction:PHE:134>  (69) 
hydroph_interaction:PHE:134    NaN
hydroph_interaction:PHE:134     -1
Name: 68, dtype: object

>  <hbond:PHE:134>  (69) 
hbond:PHE:134    NaN
hbond:PHE:134     -1
Name: 68, dtype: object

>  <pistack:PHE:134>  (69) 
pistack:PHE:134    NaN
pistack:PHE:134     -1
Name: 68, dtype: object

>  <pication:PHE:134>  (69) 
pication:PHE:134    NaN
pication:PHE:134     -1
Name: 68, dtype: object

>  <halogenbond:PHE:134>  (69) 
halogenbond:PHE:134    NaN
halogenbond:PHE:134     -1
Name: 68, dtype: object

>  <hydroph_interaction:ALA:135>  (69) 
hydroph_interaction:ALA:135    NaN
hydroph_interaction:ALA:135     -1
Name: 68, dtype: object

>  <hbond:ALA:135>  (69) 
hbond:ALA:135    NaN
hbond:ALA:135     -1
Name: 68, dtype: object

$$$$
PV_003585554678
     RDKit          3D

 31 33  0  0  0  0  0  0  0  0999 V2000
   13.3960   16.2820   20.4710 C   0  0  0  0  0  0  0  0  0  0  0  0
   12.3220   15.4300   21.0150 C   0  0  0  0  0  0  0  0  0  0  0  0
   10.8550   15.5790   20.6110 C   0  0  0  0  0  0  0  0  0  0  0  0
    9.8920   14.6020   21.2660 C   0  0  0  0  0  0  0  0  0  0  0  0
   10.4520   13.6290   22.2040 C   0  0  0  0  0  0  0  0  0  0  0  0
    9.7520   12.6010   22.9140 C   0  0  0  0  0  0  0  0  0  0  0  0
   10.1300   11.3250   22.6230 C   0  0  0  0  0  0  0  0  0  0  0  0
    9.4230   10.4750   23.3350 N   0  0  0  0  0  0  0  0  0  0  0  0
    9.6190    9.0710   23.2180 C   0  0  0  0  0  0  0  0  0  0  0  0
    8.5420   11.1480   24.1450 C   0  0  0  0  0  0  0  0  0  0  0  0
    7.6020   10.6810   25.0720 C   0  0  0  0  0  0  0  0  0  0  0  0
    6.8310   11.5440   25.7720 N   0  0  0  0  0  0  0  0  0  0  0  0
    6.9980   12.8630   25.5470 C   0  0  0  0  0  0  0  0  0  0  0  0
    7.9260   13.3940   24.6290 C   0  0  0  0  0  0  0  0  0  0  0  0
    8.7250   12.5150   23.9020 C   0  0  0  0  0  0  0  0  0  0  0  0
   11.8010   13.6070   22.4840 C   0  0  0  0  0  0  0  0  0  0  0  0
   12.7130   14.4770   21.9160 C   0  0  0  0  0  0  0  0  0  0  0  0
   13.0900   17.3270   20.4800 H   0  0  0  0  0  0  0  0  0  0  0  0
   14.2700   16.1620   21.0990 H   0  0  0  0  0  0  0  0  0  0  0  0
   13.6650   15.9300   19.4800 H   0  0  0  0  0  0  0  0  0  0  0  0
   10.6170   16.3660   19.8900 H   0  0  0  0  0  0  0  0  0  0  0  0
    8.8220   14.6150   21.0460 H   0  0  0  0  0  0  0  0  0  0  0  0
   10.8720   10.9650   21.9400 H   0  0  0  0  0  0  0  0  0  0  0  0
   10.6920    8.8650   23.2670 H   0  0  0  0  0  0  0  0  0  0  0  0
    9.0970    8.6170   24.0530 H   0  0  0  0  0  0  0  0  0  0  0  0
    9.2220    8.7060   22.2820 H   0  0  0  0  0  0  0  0  0  0  0  0
    7.4640    9.6300   25.2540 H   0  0  0  0  0  0  0  0  0  0  0  0
    6.3590   13.5210   26.1300 H   0  0  0  0  0  0  0  0  0  0  0  0
    8.0180   14.4680   24.4870 H   0  0  0  0  0  0  0  0  0  0  0  0
   12.1790   12.8690   23.1870 H   0  0  0  0  0  0  0  0  0  0  0  0
   13.7590   14.3890   22.1930 H   0  0  0  0  0  0  0  0  0  0  0  0
  1  2  1  0
  2  3  2  0
  3  4  1  0
  4  5  2  0
  5  6  1  0
  6  7  2  0
  7  8  1  0
  8  9  1  0
  8 10  1  0
 10 11  2  0
 11 12  1  0
 12 13  2  0
 13 14  1  0
 14 15  2  0
  5 16  1  0
 16 17  2  0
 17  2  1  0
 15  6  1  0
 15 10  1  0
  1 18  1  0
  1 19  1  0
  1 20  1  0
  3 21  1  0
  4 22  1  0
  7 23  1  0
  9 24  1  0
  9 25  1  0
  9 26  1  0
 11 27  1  0
 13 28  1  0
 14 29  1  0
 16 30  1  0
 17 31  1  0
A    1
 C1 
A    2
 C2 
A    3
 C3 
A    4
 C4 
A    5
 C5 
A    6
 C6 
A    7
 C7 
A    8
 N1 
A    9
 C8 
A   10
 C9 
A   11
 C10
A   12
 N2 
A   13
 C11
A   14
 C12
A   15
 C13
A   16
 C14
A   17
 C15
A   18
 H1 
A   19
 H2 
A   20
 H3 
A   21
 H4 
A   22
 H5 
A   23
 H6 
A   24
 H7 
A   25
 H8 
A   26
 H9 
A   27
 H10
A   28
 H11
A   29
 H12
A   30
 H13
A   31
 H14
M  END
>  <ref_pdb>  (70) 
x0310_0A

>  <ref_mols>  (70) 
x0451_0A,x0812_0A

>  <original SMILES>  (70) 
Cc1ccc(-c2cn(C)c3cnccc23)cc1

>  <rationale>  (70) 
info halogenbond:D39+A86+E85+Q95+E106+E88+T126+H104+Y64+C65+N129+F83+L131+I82+G128+P91+N19+H21+V84+G133+Y90+Y89+H97+L81+F134+L98+R20+G103+S66+S67+S7+G108+R38+V124+M99+S36; hbond:A86+G108+G103+G128+G130+L131+H104+R68+P91+F83+S67+S7+S66+G112+G133+V132+R20+Y89+S77+A135+Y63+A92+A101+M99+F134+L100+I82+Y64+S36+L98+V84+L81+Y94+S80+R38+S37+V102+G8+I123+G111+I113+L114+C65+L22+S96; hydroph_interaction:Y90+Y89+H21+N129+L40+I123+A135+Q95+I82+L100+L98+L131+F83+R93+V132+Y63+F134+H104+R20+A86+V74+P91+A101+F76+M99+L114+A92+Y94+R68+Y72+Y64+V18+V102+W28+G127+G128+L81; pication:H104+R93+Y63+F134+Y90+R68+F83+R20; pistack:Y89+Y90+H104+F134+Y63+F83+Y94; saltbridge:R93+H104+E106+D109+E85+E88+R68+R20; 

>  <intxn_cluster>  (70) 
-1

>  <intxn_cluster_rank>  (70) 
-1

>  <N_interactions>  (70) 
3

>  <∆∆G>  (70) 
-10.97634

>  <$/mg>  (70) 
163.0

>  <comRMSD>  (70) 
0.849253

>  <N_rotatable_bonds>  (70) 
3

>  <deep_P1_sidechain>  (70) 
nan

>  <farthest_distance_to_substrate>  (70) 
2.510167

>  <hbond:SER:7>  (70) 
hbond:SER:7    NaN
hbond:SER:7     -1
Name: 69, dtype: object

>  <halogenbond:SER:7>  (70) 
halogenbond:SER:7    NaN
halogenbond:SER:7     -1
Name: 69, dtype: object

>  <hbond:GLY:8>  (70) 
hbond:GLY:8    NaN
hbond:GLY:8     -1
Name: 69, dtype: object

>  <hydroph_interaction:VAL:18>  (70) 
hydroph_interaction:VAL:18    NaN
hydroph_interaction:VAL:18     -1
Name: 69, dtype: object

>  <hbond:ASN:19>  (70) 
hbond:ASN:19    0.0
hbond:ASN:19      0
Name: 69, dtype: object

>  <hydroph_interaction:ASN:19>  (70) 
hydroph_interaction:ASN:19    0.0
hydroph_interaction:ASN:19      0
Name: 69, dtype: object

>  <halogenbond:ASN:19>  (70) 
halogenbond:ASN:19    NaN
halogenbond:ASN:19     -1
Name: 69, dtype: object

>  <hbond:ARG:20>  (70) 
hbond:ARG:20    NaN
hbond:ARG:20     -1
Name: 69, dtype: object

>  <hydroph_interaction:ARG:20>  (70) 
hydroph_interaction:ARG:20    NaN
hydroph_interaction:ARG:20     -1
Name: 69, dtype: object

>  <saltbridge:ARG:20>  (70) 
saltbridge:ARG:20    NaN
saltbridge:ARG:20     -1
Name: 69, dtype: object

>  <halogenbond:ARG:20>  (70) 
halogenbond:ARG:20    NaN
halogenbond:ARG:20     -1
Name: 69, dtype: object

>  <pication:ARG:20>  (70) 
pication:ARG:20    NaN
pication:ARG:20     -1
Name: 69, dtype: object

>  <hbond:HIS:21>  (70) 
hbond:HIS:21    0.0
hbond:HIS:21      0
Name: 69, dtype: object

>  <hydroph_interaction:HIS:21>  (70) 
hydroph_interaction:HIS:21    1.0
hydroph_interaction:HIS:21      1
Name: 69, dtype: object

>  <pistack:HIS:21>  (70) 
pistack:HIS:21    0.0
pistack:HIS:21      0
Name: 69, dtype: object

>  <pication:HIS:21>  (70) 
pication:HIS:21    0.0
pication:HIS:21      0
Name: 69, dtype: object

>  <saltbridge:HIS:21>  (70) 
saltbridge:HIS:21    0.0
saltbridge:HIS:21      0
Name: 69, dtype: object

>  <halogenbond:HIS:21>  (70) 
halogenbond:HIS:21    NaN
halogenbond:HIS:21     -1
Name: 69, dtype: object

>  <hydroph_interaction:LEU:22>  (70) 
hydroph_interaction:LEU:22    0.0
hydroph_interaction:LEU:22      0
Name: 69, dtype: object

>  <hbond:LEU:22>  (70) 
hbond:LEU:22    NaN
hbond:LEU:22     -1
Name: 69, dtype: object

>  <hydroph_interaction:TRP:28>  (70) 
hydroph_interaction:TRP:28    NaN
hydroph_interaction:TRP:28     -1
Name: 69, dtype: object

>  <hbond:SER:36>  (70) 
hbond:SER:36    NaN
hbond:SER:36     -1
Name: 69, dtype: object

>  <halogenbond:SER:36>  (70) 
halogenbond:SER:36    NaN
halogenbond:SER:36     -1
Name: 69, dtype: object

>  <hbond:SER:37>  (70) 
hbond:SER:37    NaN
hbond:SER:37     -1
Name: 69, dtype: object

>  <hbond:ARG:38>  (70) 
hbond:ARG:38    NaN
hbond:ARG:38     -1
Name: 69, dtype: object

>  <halogenbond:ARG:38>  (70) 
halogenbond:ARG:38    NaN
halogenbond:ARG:38     -1
Name: 69, dtype: object

>  <saltbridge:ASP:39>  (70) 
saltbridge:ASP:39    0.0
saltbridge:ASP:39      0
Name: 69, dtype: object

>  <halogenbond:ASP:39>  (70) 
halogenbond:ASP:39    NaN
halogenbond:ASP:39     -1
Name: 69, dtype: object

>  <hbond:ASP:39>  (70) 
hbond:ASP:39    0.0
hbond:ASP:39      0
Name: 69, dtype: object

>  <hydroph_interaction:ASP:39>  (70) 
hydroph_interaction:ASP:39    0.0
hydroph_interaction:ASP:39      0
Name: 69, dtype: object

>  <hydroph_interaction:LEU:40>  (70) 
hydroph_interaction:LEU:40    NaN
hydroph_interaction:LEU:40     -1
Name: 69, dtype: object

>  <hydroph_interaction:TYR:63>  (70) 
hydroph_interaction:TYR:63    NaN
hydroph_interaction:TYR:63     -1
Name: 69, dtype: object

>  <hbond:TYR:63>  (70) 
hbond:TYR:63    NaN
hbond:TYR:63     -1
Name: 69, dtype: object

>  <pistack:TYR:63>  (70) 
pistack:TYR:63    NaN
pistack:TYR:63     -1
Name: 69, dtype: object

>  <pication:TYR:63>  (70) 
pication:TYR:63    NaN
pication:TYR:63     -1
Name: 69, dtype: object

>  <halogenbond:TYR:64>  (70) 
halogenbond:TYR:64    NaN
halogenbond:TYR:64     -1
Name: 69, dtype: object

>  <hbond:TYR:64>  (70) 
hbond:TYR:64    NaN
hbond:TYR:64     -1
Name: 69, dtype: object

>  <hydroph_interaction:TYR:64>  (70) 
hydroph_interaction:TYR:64    NaN
hydroph_interaction:TYR:64     -1
Name: 69, dtype: object

>  <halogenbond:CYS:65>  (70) 
halogenbond:CYS:65    NaN
halogenbond:CYS:65     -1
Name: 69, dtype: object

>  <hbond:CYS:65>  (70) 
hbond:CYS:65    NaN
hbond:CYS:65     -1
Name: 69, dtype: object

>  <hbond:SER:66>  (70) 
hbond:SER:66    NaN
hbond:SER:66     -1
Name: 69, dtype: object

>  <halogenbond:SER:66>  (70) 
halogenbond:SER:66    NaN
halogenbond:SER:66     -1
Name: 69, dtype: object

>  <hbond:SER:67>  (70) 
hbond:SER:67    NaN
hbond:SER:67     -1
Name: 69, dtype: object

>  <halogenbond:SER:67>  (70) 
halogenbond:SER:67    NaN
halogenbond:SER:67     -1
Name: 69, dtype: object

>  <hbond:ARG:68>  (70) 
hbond:ARG:68    NaN
hbond:ARG:68     -1
Name: 69, dtype: object

>  <saltbridge:ARG:68>  (70) 
saltbridge:ARG:68    NaN
saltbridge:ARG:68     -1
Name: 69, dtype: object

>  <hydroph_interaction:ARG:68>  (70) 
hydroph_interaction:ARG:68    NaN
hydroph_interaction:ARG:68     -1
Name: 69, dtype: object

>  <pication:ARG:68>  (70) 
pication:ARG:68    NaN
pication:ARG:68     -1
Name: 69, dtype: object

>  <hydroph_interaction:TYR:72>  (70) 
hydroph_interaction:TYR:72    NaN
hydroph_interaction:TYR:72     -1
Name: 69, dtype: object

>  <hydroph_interaction:VAL:74>  (70) 
hydroph_interaction:VAL:74    NaN
hydroph_interaction:VAL:74     -1
Name: 69, dtype: object

>  <hydroph_interaction:PHE:76>  (70) 
hydroph_interaction:PHE:76    NaN
hydroph_interaction:PHE:76     -1
Name: 69, dtype: object

>  <hbond:SER:77>  (70) 
hbond:SER:77    NaN
hbond:SER:77     -1
Name: 69, dtype: object

>  <hbond:SER:80>  (70) 
hbond:SER:80    NaN
hbond:SER:80     -1
Name: 69, dtype: object

>  <hbond:LEU:81>  (70) 
hbond:LEU:81    NaN
hbond:LEU:81     -1
Name: 69, dtype: object

>  <halogenbond:LEU:81>  (70) 
halogenbond:LEU:81    NaN
halogenbond:LEU:81     -1
Name: 69, dtype: object

>  <hydroph_interaction:LEU:81>  (70) 
hydroph_interaction:LEU:81    NaN
hydroph_interaction:LEU:81     -1
Name: 69, dtype: object

>  <hydroph_interaction:ILE:82>  (70) 
hydroph_interaction:ILE:82    NaN
hydroph_interaction:ILE:82     -1
Name: 69, dtype: object

>  <halogenbond:ILE:82>  (70) 
halogenbond:ILE:82    NaN
halogenbond:ILE:82     -1
Name: 69, dtype: object

>  <hbond:ILE:82>  (70) 
hbond:ILE:82    NaN
hbond:ILE:82     -1
Name: 69, dtype: object

>  <hbond:PHE:83>  (70) 
hbond:PHE:83    NaN
hbond:PHE:83     -1
Name: 69, dtype: object

>  <hydroph_interaction:PHE:83>  (70) 
hydroph_interaction:PHE:83    NaN
hydroph_interaction:PHE:83     -1
Name: 69, dtype: object

>  <halogenbond:PHE:83>  (70) 
halogenbond:PHE:83    NaN
halogenbond:PHE:83     -1
Name: 69, dtype: object

>  <pistack:PHE:83>  (70) 
pistack:PHE:83    NaN
pistack:PHE:83     -1
Name: 69, dtype: object

>  <pication:PHE:83>  (70) 
pication:PHE:83    NaN
pication:PHE:83     -1
Name: 69, dtype: object

>  <hydroph_interaction:VAL:84>  (70) 
hydroph_interaction:VAL:84    0.0
hydroph_interaction:VAL:84      0
Name: 69, dtype: object

>  <halogenbond:VAL:84>  (70) 
halogenbond:VAL:84    NaN
halogenbond:VAL:84     -1
Name: 69, dtype: object

>  <hbond:VAL:84>  (70) 
hbond:VAL:84    NaN
hbond:VAL:84     -1
Name: 69, dtype: object

>  <hydroph_interaction:GLU:85>  (70) 
hydroph_interaction:GLU:85    0.0
hydroph_interaction:GLU:85      0
Name: 69, dtype: object

>  <hbond:GLU:85>  (70) 
hbond:GLU:85    0.0
hbond:GLU:85      0
Name: 69, dtype: object

>  <halogenbond:GLU:85>  (70) 
halogenbond:GLU:85    NaN
halogenbond:GLU:85     -1
Name: 69, dtype: object

>  <saltbridge:GLU:85>  (70) 
saltbridge:GLU:85    NaN
saltbridge:GLU:85     -1
Name: 69, dtype: object

>  <halogenbond:ALA:86>  (70) 
halogenbond:ALA:86    NaN
halogenbond:ALA:86     -1
Name: 69, dtype: object

>  <hbond:ALA:86>  (70) 
hbond:ALA:86    NaN
hbond:ALA:86     -1
Name: 69, dtype: object

>  <hydroph_interaction:ALA:86>  (70) 
hydroph_interaction:ALA:86    NaN
hydroph_interaction:ALA:86     -1
Name: 69, dtype: object

>  <hbond:SER:87>  (70) 
hbond:SER:87    0
hbond:SER:87    0
Name: 69, dtype: object

>  <halogenbond:SER:87>  (70) 
halogenbond:SER:87    0.0
halogenbond:SER:87      0
Name: 69, dtype: object

>  <hbond:GLU:88>  (70) 
hbond:GLU:88    0.0
hbond:GLU:88      0
Name: 69, dtype: object

>  <hydroph_interaction:GLU:88>  (70) 
hydroph_interaction:GLU:88    0.0
hydroph_interaction:GLU:88      0
Name: 69, dtype: object

>  <halogenbond:GLU:88>  (70) 
halogenbond:GLU:88    NaN
halogenbond:GLU:88     -1
Name: 69, dtype: object

>  <saltbridge:GLU:88>  (70) 
saltbridge:GLU:88    NaN
saltbridge:GLU:88     -1
Name: 69, dtype: object

>  <hydroph_interaction:TYR:89>  (70) 
hydroph_interaction:TYR:89    1.0
hydroph_interaction:TYR:89      1
Name: 69, dtype: object

>  <pistack:TYR:89>  (70) 
pistack:TYR:89    NaN
pistack:TYR:89     -1
Name: 69, dtype: object

>  <hbond:TYR:89>  (70) 
hbond:TYR:89    NaN
hbond:TYR:89     -1
Name: 69, dtype: object

>  <halogenbond:TYR:89>  (70) 
halogenbond:TYR:89    NaN
halogenbond:TYR:89     -1
Name: 69, dtype: object

>  <hydroph_interaction:TYR:90>  (70) 
hydroph_interaction:TYR:90    1.0
hydroph_interaction:TYR:90      1
Name: 69, dtype: object

>  <hbond:TYR:90>  (70) 
hbond:TYR:90    0.0
hbond:TYR:90      0
Name: 69, dtype: object

>  <pistack:TYR:90>  (70) 
pistack:TYR:90    NaN
pistack:TYR:90     -1
Name: 69, dtype: object

>  <halogenbond:TYR:90>  (70) 
halogenbond:TYR:90    NaN
halogenbond:TYR:90     -1
Name: 69, dtype: object

>  <pication:TYR:90>  (70) 
pication:TYR:90    NaN
pication:TYR:90     -1
Name: 69, dtype: object

>  <hbond:PRO:91>  (70) 
hbond:PRO:91    NaN
hbond:PRO:91     -1
Name: 69, dtype: object

>  <hydroph_interaction:PRO:91>  (70) 
hydroph_interaction:PRO:91    NaN
hydroph_interaction:PRO:91     -1
Name: 69, dtype: object

>  <halogenbond:PRO:91>  (70) 
halogenbond:PRO:91    NaN
halogenbond:PRO:91     -1
Name: 69, dtype: object

>  <hbond:ALA:92>  (70) 
hbond:ALA:92    NaN
hbond:ALA:92     -1
Name: 69, dtype: object

>  <hydroph_interaction:ALA:92>  (70) 
hydroph_interaction:ALA:92    NaN
hydroph_interaction:ALA:92     -1
Name: 69, dtype: object

>  <saltbridge:ARG:93>  (70) 
saltbridge:ARG:93    NaN
saltbridge:ARG:93     -1
Name: 69, dtype: object

>  <hbond:ARG:93>  (70) 
hbond:ARG:93    0.0
hbond:ARG:93      0
Name: 69, dtype: object

>  <hydroph_interaction:ARG:93>  (70) 
hydroph_interaction:ARG:93    NaN
hydroph_interaction:ARG:93     -1
Name: 69, dtype: object

>  <halogenbond:ARG:93>  (70) 
halogenbond:ARG:93    0.0
halogenbond:ARG:93      0
Name: 69, dtype: object

>  <pication:ARG:93>  (70) 
pication:ARG:93    NaN
pication:ARG:93     -1
Name: 69, dtype: object

>  <hydroph_interaction:TYR:94>  (70) 
hydroph_interaction:TYR:94    NaN
hydroph_interaction:TYR:94     -1
Name: 69, dtype: object

>  <pistack:TYR:94>  (70) 
pistack:TYR:94    NaN
pistack:TYR:94     -1
Name: 69, dtype: object

>  <hbond:TYR:94>  (70) 
hbond:TYR:94    NaN
hbond:TYR:94     -1
Name: 69, dtype: object

>  <hbond:GLN:95>  (70) 
hbond:GLN:95    0.0
hbond:GLN:95      0
Name: 69, dtype: object

>  <hydroph_interaction:GLN:95>  (70) 
hydroph_interaction:GLN:95    NaN
hydroph_interaction:GLN:95     -1
Name: 69, dtype: object

>  <halogenbond:GLN:95>  (70) 
halogenbond:GLN:95    NaN
halogenbond:GLN:95     -1
Name: 69, dtype: object

>  <hbond:SER:96>  (70) 
hbond:SER:96    NaN
hbond:SER:96     -1
Name: 69, dtype: object

>  <halogenbond:HIS:97>  (70) 
halogenbond:HIS:97    NaN
halogenbond:HIS:97     -1
Name: 69, dtype: object

>  <hydroph_interaction:LEU:98>  (70) 
hydroph_interaction:LEU:98    NaN
hydroph_interaction:LEU:98     -1
Name: 69, dtype: object

>  <hbond:LEU:98>  (70) 
hbond:LEU:98    NaN
hbond:LEU:98     -1
Name: 69, dtype: object

>  <halogenbond:LEU:98>  (70) 
halogenbond:LEU:98    NaN
halogenbond:LEU:98     -1
Name: 69, dtype: object

>  <hbond:MET:99>  (70) 
hbond:MET:99    NaN
hbond:MET:99     -1
Name: 69, dtype: object

>  <hydroph_interaction:MET:99>  (70) 
hydroph_interaction:MET:99    NaN
hydroph_interaction:MET:99     -1
Name: 69, dtype: object

>  <halogenbond:MET:99>  (70) 
halogenbond:MET:99    NaN
halogenbond:MET:99     -1
Name: 69, dtype: object

>  <hydroph_interaction:LEU:100>  (70) 
hydroph_interaction:LEU:100    NaN
hydroph_interaction:LEU:100     -1
Name: 69, dtype: object

>  <hbond:LEU:100>  (70) 
hbond:LEU:100    NaN
hbond:LEU:100     -1
Name: 69, dtype: object

>  <hbond:ALA:101>  (70) 
hbond:ALA:101    NaN
hbond:ALA:101     -1
Name: 69, dtype: object

>  <hydroph_interaction:ALA:101>  (70) 
hydroph_interaction:ALA:101    NaN
hydroph_interaction:ALA:101     -1
Name: 69, dtype: object

>  <hydroph_interaction:VAL:102>  (70) 
hydroph_interaction:VAL:102    NaN
hydroph_interaction:VAL:102     -1
Name: 69, dtype: object

>  <hbond:VAL:102>  (70) 
hbond:VAL:102    NaN
hbond:VAL:102     -1
Name: 69, dtype: object

>  <hbond:GLY:103>  (70) 
hbond:GLY:103    NaN
hbond:GLY:103     -1
Name: 69, dtype: object

>  <halogenbond:GLY:103>  (70) 
halogenbond:GLY:103    NaN
halogenbond:GLY:103     -1
Name: 69, dtype: object

>  <hbond:HIS:104>  (70) 
hbond:HIS:104    NaN
hbond:HIS:104     -1
Name: 69, dtype: object

>  <saltbridge:HIS:104>  (70) 
saltbridge:HIS:104    NaN
saltbridge:HIS:104     -1
Name: 69, dtype: object

>  <pication:HIS:104>  (70) 
pication:HIS:104    NaN
pication:HIS:104     -1
Name: 69, dtype: object

>  <halogenbond:HIS:104>  (70) 
halogenbond:HIS:104    NaN
halogenbond:HIS:104     -1
Name: 69, dtype: object

>  <hydroph_interaction:HIS:104>  (70) 
hydroph_interaction:HIS:104    NaN
hydroph_interaction:HIS:104     -1
Name: 69, dtype: object

>  <pistack:HIS:104>  (70) 
pistack:HIS:104    NaN
pistack:HIS:104     -1
Name: 69, dtype: object

>  <halogenbond:SER:105>  (70) 
halogenbond:SER:105    0.0
halogenbond:SER:105      0
Name: 69, dtype: object

>  <hbond:SER:105>  (70) 
hbond:SER:105    0.0
hbond:SER:105      0
Name: 69, dtype: object

>  <hbond:GLU:106>  (70) 
hbond:GLU:106    0.0
hbond:GLU:106      0
Name: 69, dtype: object

>  <hydroph_interaction:GLU:106>  (70) 
hydroph_interaction:GLU:106    0.0
hydroph_interaction:GLU:106      0
Name: 69, dtype: object

>  <saltbridge:GLU:106>  (70) 
saltbridge:GLU:106    NaN
saltbridge:GLU:106     -1
Name: 69, dtype: object

>  <halogenbond:GLU:106>  (70) 
halogenbond:GLU:106    NaN
halogenbond:GLU:106     -1
Name: 69, dtype: object

>  <hydroph_interaction:PRO:107>  (70) 
hydroph_interaction:PRO:107    0
hydroph_interaction:PRO:107    0
Name: 69, dtype: object

>  <hbond:PRO:107>  (70) 
hbond:PRO:107    0.0
hbond:PRO:107      0
Name: 69, dtype: object

>  <halogenbond:PRO:107>  (70) 
halogenbond:PRO:107    0.0
halogenbond:PRO:107      0
Name: 69, dtype: object

>  <hbond:GLY:108>  (70) 
hbond:GLY:108    NaN
hbond:GLY:108     -1
Name: 69, dtype: object

>  <halogenbond:GLY:108>  (70) 
halogenbond:GLY:108    NaN
halogenbond:GLY:108     -1
Name: 69, dtype: object

>  <hbond:ASP:109>  (70) 
hbond:ASP:109    0.0
hbond:ASP:109      0
Name: 69, dtype: object

>  <hydroph_interaction:ASP:109>  (70) 
hydroph_interaction:ASP:109    0.0
hydroph_interaction:ASP:109      0
Name: 69, dtype: object

>  <saltbridge:ASP:109>  (70) 
saltbridge:ASP:109    NaN
saltbridge:ASP:109     -1
Name: 69, dtype: object

>  <halogenbond:CYS:110>  (70) 
halogenbond:CYS:110    0.0
halogenbond:CYS:110      0
Name: 69, dtype: object

>  <hbond:CYS:110>  (70) 
hbond:CYS:110    0.0
hbond:CYS:110      0
Name: 69, dtype: object

>  <hbond:GLY:111>  (70) 
hbond:GLY:111    NaN
hbond:GLY:111     -1
Name: 69, dtype: object

>  <hbond:GLY:112>  (70) 
hbond:GLY:112    NaN
hbond:GLY:112     -1
Name: 69, dtype: object

>  <hbond:ILE:113>  (70) 
hbond:ILE:113    NaN
hbond:ILE:113     -1
Name: 69, dtype: object

>  <hydroph_interaction:LEU:114>  (70) 
hydroph_interaction:LEU:114    NaN
hydroph_interaction:LEU:114     -1
Name: 69, dtype: object

>  <hbond:LEU:114>  (70) 
hbond:LEU:114    NaN
hbond:LEU:114     -1
Name: 69, dtype: object

>  <hydroph_interaction:ILE:123>  (70) 
hydroph_interaction:ILE:123    NaN
hydroph_interaction:ILE:123     -1
Name: 69, dtype: object

>  <hbond:ILE:123>  (70) 
hbond:ILE:123    NaN
hbond:ILE:123     -1
Name: 69, dtype: object

>  <hydroph_interaction:VAL:124>  (70) 
hydroph_interaction:VAL:124    0.0
hydroph_interaction:VAL:124      0
Name: 69, dtype: object

>  <hbond:VAL:124>  (70) 
hbond:VAL:124    0.0
hbond:VAL:124      0
Name: 69, dtype: object

>  <halogenbond:VAL:124>  (70) 
halogenbond:VAL:124    NaN
halogenbond:VAL:124     -1
Name: 69, dtype: object

>  <hbond:SER:125>  (70) 
hbond:SER:125    0
hbond:SER:125    0
Name: 69, dtype: object

>  <halogenbond:SER:125>  (70) 
halogenbond:SER:125    0.0
halogenbond:SER:125      0
Name: 69, dtype: object

>  <hydroph_interaction:THR:126>  (70) 
hydroph_interaction:THR:126    0.0
hydroph_interaction:THR:126      0
Name: 69, dtype: object

>  <hbond:THR:126>  (70) 
hbond:THR:126    0.0
hbond:THR:126      0
Name: 69, dtype: object

>  <halogenbond:THR:126>  (70) 
halogenbond:THR:126    NaN
halogenbond:THR:126     -1
Name: 69, dtype: object

>  <hbond:GLY:127>  (70) 
hbond:GLY:127    0
hbond:GLY:127    0
Name: 69, dtype: object

>  <halogenbond:GLY:127>  (70) 
halogenbond:GLY:127    0.0
halogenbond:GLY:127      0
Name: 69, dtype: object

>  <hydroph_interaction:GLY:127>  (70) 
hydroph_interaction:GLY:127    NaN
hydroph_interaction:GLY:127     -1
Name: 69, dtype: object

>  <hbond:GLY:128>  (70) 
hbond:GLY:128    NaN
hbond:GLY:128     -1
Name: 69, dtype: object

>  <halogenbond:GLY:128>  (70) 
halogenbond:GLY:128    NaN
halogenbond:GLY:128     -1
Name: 69, dtype: object

>  <hydroph_interaction:GLY:128>  (70) 
hydroph_interaction:GLY:128    NaN
hydroph_interaction:GLY:128     -1
Name: 69, dtype: object

>  <hbond:ASN:129>  (70) 
hbond:ASN:129    0.0
hbond:ASN:129      0
Name: 69, dtype: object

>  <hydroph_interaction:ASN:129>  (70) 
hydroph_interaction:ASN:129    NaN
hydroph_interaction:ASN:129     -1
Name: 69, dtype: object

>  <halogenbond:ASN:129>  (70) 
halogenbond:ASN:129    NaN
halogenbond:ASN:129     -1
Name: 69, dtype: object

>  <hbond:GLY:130>  (70) 
hbond:GLY:130    NaN
hbond:GLY:130     -1
Name: 69, dtype: object

>  <hbond:LEU:131>  (70) 
hbond:LEU:131    NaN
hbond:LEU:131     -1
Name: 69, dtype: object

>  <hydroph_interaction:LEU:131>  (70) 
hydroph_interaction:LEU:131    NaN
hydroph_interaction:LEU:131     -1
Name: 69, dtype: object

>  <halogenbond:LEU:131>  (70) 
halogenbond:LEU:131    NaN
halogenbond:LEU:131     -1
Name: 69, dtype: object

>  <hydroph_interaction:VAL:132>  (70) 
hydroph_interaction:VAL:132    NaN
hydroph_interaction:VAL:132     -1
Name: 69, dtype: object

>  <hbond:VAL:132>  (70) 
hbond:VAL:132    NaN
hbond:VAL:132     -1
Name: 69, dtype: object

>  <hbond:GLY:133>  (70) 
hbond:GLY:133    NaN
hbond:GLY:133     -1
Name: 69, dtype: object

>  <halogenbond:GLY:133>  (70) 
halogenbond:GLY:133    NaN
halogenbond:GLY:133     -1
Name: 69, dtype: object

>  <hydroph_interaction:PHE:134>  (70) 
hydroph_interaction:PHE:134    NaN
hydroph_interaction:PHE:134     -1
Name: 69, dtype: object

>  <hbond:PHE:134>  (70) 
hbond:PHE:134    NaN
hbond:PHE:134     -1
Name: 69, dtype: object

>  <pistack:PHE:134>  (70) 
pistack:PHE:134    NaN
pistack:PHE:134     -1
Name: 69, dtype: object

>  <pication:PHE:134>  (70) 
pication:PHE:134    NaN
pication:PHE:134     -1
Name: 69, dtype: object

>  <halogenbond:PHE:134>  (70) 
halogenbond:PHE:134    NaN
halogenbond:PHE:134     -1
Name: 69, dtype: object

>  <hydroph_interaction:ALA:135>  (70) 
hydroph_interaction:ALA:135    NaN
hydroph_interaction:ALA:135     -1
Name: 69, dtype: object

>  <hbond:ALA:135>  (70) 
hbond:ALA:135    NaN
hbond:ALA:135     -1
Name: 69, dtype: object

$$$$
PV_002873190497
     RDKit          3D

 30 32  0  0  0  0  0  0  0  0999 V2000
   13.3490   16.1720   20.5250 C   0  0  0  0  0  0  0  0  0  0  0  0
   12.3310   15.2870   21.1290 C   0  0  0  0  0  0  0  0  0  0  0  0
   10.8760   15.4200   20.7730 C   0  0  0  0  0  0  0  0  0  0  0  0
    9.9440   14.5680   21.3530 C   0  0  0  0  0  0  0  0  0  0  0  0
   10.5030   13.5930   22.2850 C   0  0  0  0  0  0  0  0  0  0  0  0
    9.8050   12.6280   22.9790 C   0  0  0  0  0  0  0  0  0  0  0  0
   10.1410   11.3390   22.7350 C   0  0  0  0  0  0  0  0  0  0  0  0
    9.4630   10.4440   23.4050 N   0  0  0  0  0  0  0  0  0  0  0  0
    9.6480    9.1210   23.2940 C   0  0  0  0  0  0  0  0  0  0  0  0
    8.5770   11.1380   24.1980 C   0  0  0  0  0  0  0  0  0  0  0  0
    7.5500   10.6470   25.1740 C   0  0  0  0  0  0  0  0  0  0  0  0
    6.7890   11.5900   25.8390 C   0  0  0  0  0  0  0  0  0  0  0  0
    6.9800   12.9470   25.6020 C   0  0  0  0  0  0  0  0  0  0  0  0
    7.9410   13.4180   24.6860 C   0  0  0  0  0  0  0  0  0  0  0  0
    8.7590   12.5220   23.9620 C   0  0  0  0  0  0  0  0  0  0  0  0
   11.8450   13.5450   22.5500 N   0  0  0  0  0  0  0  0  0  0  0  0
   12.7550   14.3760   21.9890 N   0  0  0  0  0  0  0  0  0  0  0  0
   13.5720   15.8370   19.5160 H   0  0  0  0  0  0  0  0  0  0  0  0
   14.2660   16.1020   21.1040 H   0  0  0  0  0  0  0  0  0  0  0  0
   13.0420   17.2190   20.5130 H   0  0  0  0  0  0  0  0  0  0  0  0
   10.6330   16.2060   20.0530 H   0  0  0  0  0  0  0  0  0  0  0  0
    8.8830   14.6330   21.1180 H   0  0  0  0  0  0  0  0  0  0  0  0
   10.9260   11.1640   22.0160 H   0  0  0  0  0  0  0  0  0  0  0  0
   10.7190    8.9120   23.3610 H   0  0  0  0  0  0  0  0  0  0  0  0
    9.2530    8.7840   22.3370 H   0  0  0  0  0  0  0  0  0  0  0  0
    9.1190    8.6360   24.1060 H   0  0  0  0  0  0  0  0  0  0  0  0
    7.4080    9.6030   25.3510 H   0  0  0  0  0  0  0  0  0  0  0  0
    6.0340   11.2630   26.5520 H   0  0  0  0  0  0  0  0  0  0  0  0
    6.3680   13.6680   26.1380 H   0  0  0  0  0  0  0  0  0  0  0  0
    8.0450   14.4890   24.5400 H   0  0  0  0  0  0  0  0  0  0  0  0
  1  2  1  0
  2  3  2  0
  3  4  1  0
  4  5  2  0
  5  6  1  0
  6  7  2  0
  7  8  1  0
  8  9  1  0
  8 10  1  0
 10 11  2  0
 11 12  1  0
 12 13  2  0
 13 14  1  0
 14 15  2  0
  5 16  1  0
 16 17  2  0
 17  2  1  0
 15  6  1  0
 15 10  1  0
  1 18  1  0
  1 19  1  0
  1 20  1  0
  3 21  1  0
  4 22  1  0
  7 23  1  0
  9 24  1  0
  9 25  1  0
  9 26  1  0
 11 27  1  0
 12 28  1  0
 13 29  1  0
 14 30  1  0
A    1
 C1 
A    2
 C2 
A    3
 C3 
A    4
 C4 
A    5
 C5 
A    6
 C6 
A    7
 C7 
A    8
 N1 
A    9
 C8 
A   10
 C9 
A   11
 C10
A   12
 C11
A   13
 C12
A   14
 C13
A   15
 C14
A   16
 N2 
A   17
 N3 
A   18
 H1 
A   19
 H2 
A   20
 H3 
A   21
 H4 
A   22
 H5 
A   23
 H6 
A   24
 H7 
A   25
 H8 
A   26
 H9 
A   27
 H10
A   28
 H11
A   29
 H12
A   30
 H13
M  END
>  <ref_pdb>  (71) 
x0310_0A

>  <ref_mols>  (71) 
x0451_0A,x0812_0A

>  <original SMILES>  (71) 
Cc1ccc(-c2cn(C)c3ccccc23)nn1

>  <rationale>  (71) 
info halogenbond:C110+G127+A86+E85+E106+T126+P107+H104+Y64+C65+S87+N129+F83+L131+I82+G128+P91+N19+H21+V84+G133+Y90+Y89+H97+L81+F134+L98+R20+G103+S66+S67+S7+G108+R38+V124+M99+S36; hbond:T126+C110+G108+G103+G128+G130+L131+N129+N19+H104+R68+V124+R93+P91+F83+S67+S7+S66+G112+G133+V132+R20+Y89+S77+A135+Y63+A92+A101+M99+F134+L100+I82+Y64+S36+L98+V84+L81+Y94+S80+R38+S37+V102+G8+I123+G111+I113+L114+C65+L22+S96; hydroph_interaction:Y90+Y89+H21+E106+N129+L40+I123+A135+Q95+I82+L100+L98+L131+F83+Y63+F134+H104+R20+A86+V74+P91+A101+F76+M99+L114+A92+Y94+R68+Y72+Y64+V18+V102+W28+G127+G128+L81; pication:H104+R93+Y63+F134+Y90+R68+F83+R20; pistack:Y89+Y90+H104+F134+Y63+F83+Y94; saltbridge:R93+H104+E106+D109+E85+E88+R68+R20; 

>  <intxn_cluster>  (71) 
-1

>  <intxn_cluster_rank>  (71) 
-1

>  <N_interactions>  (71) 
3

>  <∆∆G>  (71) 
-10.622993

>  <$/mg>  (71) 
163.0

>  <comRMSD>  (71) 
0.816457

>  <N_rotatable_bonds>  (71) 
3

>  <deep_P1_sidechain>  (71) 
nan

>  <farthest_distance_to_substrate>  (71) 
2.57333

>  <hbond:SER:7>  (71) 
hbond:SER:7    NaN
hbond:SER:7     -1
Name: 70, dtype: object

>  <halogenbond:SER:7>  (71) 
halogenbond:SER:7    NaN
halogenbond:SER:7     -1
Name: 70, dtype: object

>  <hbond:GLY:8>  (71) 
hbond:GLY:8    NaN
hbond:GLY:8     -1
Name: 70, dtype: object

>  <hydroph_interaction:VAL:18>  (71) 
hydroph_interaction:VAL:18    NaN
hydroph_interaction:VAL:18     -1
Name: 70, dtype: object

>  <hbond:ASN:19>  (71) 
hbond:ASN:19    NaN
hbond:ASN:19     -1
Name: 70, dtype: object

>  <hydroph_interaction:ASN:19>  (71) 
hydroph_interaction:ASN:19    0.0
hydroph_interaction:ASN:19      0
Name: 70, dtype: object

>  <halogenbond:ASN:19>  (71) 
halogenbond:ASN:19    NaN
halogenbond:ASN:19     -1
Name: 70, dtype: object

>  <hbond:ARG:20>  (71) 
hbond:ARG:20    NaN
hbond:ARG:20     -1
Name: 70, dtype: object

>  <hydroph_interaction:ARG:20>  (71) 
hydroph_interaction:ARG:20    NaN
hydroph_interaction:ARG:20     -1
Name: 70, dtype: object

>  <saltbridge:ARG:20>  (71) 
saltbridge:ARG:20    NaN
saltbridge:ARG:20     -1
Name: 70, dtype: object

>  <halogenbond:ARG:20>  (71) 
halogenbond:ARG:20    NaN
halogenbond:ARG:20     -1
Name: 70, dtype: object

>  <pication:ARG:20>  (71) 
pication:ARG:20    NaN
pication:ARG:20     -1
Name: 70, dtype: object

>  <hbond:HIS:21>  (71) 
hbond:HIS:21    0.0
hbond:HIS:21      0
Name: 70, dtype: object

>  <hydroph_interaction:HIS:21>  (71) 
hydroph_interaction:HIS:21    1.0
hydroph_interaction:HIS:21      1
Name: 70, dtype: object

>  <pistack:HIS:21>  (71) 
pistack:HIS:21    0.0
pistack:HIS:21      0
Name: 70, dtype: object

>  <pication:HIS:21>  (71) 
pication:HIS:21    0.0
pication:HIS:21      0
Name: 70, dtype: object

>  <saltbridge:HIS:21>  (71) 
saltbridge:HIS:21    0.0
saltbridge:HIS:21      0
Name: 70, dtype: object

>  <halogenbond:HIS:21>  (71) 
halogenbond:HIS:21    NaN
halogenbond:HIS:21     -1
Name: 70, dtype: object

>  <hydroph_interaction:LEU:22>  (71) 
hydroph_interaction:LEU:22    0.0
hydroph_interaction:LEU:22      0
Name: 70, dtype: object

>  <hbond:LEU:22>  (71) 
hbond:LEU:22    NaN
hbond:LEU:22     -1
Name: 70, dtype: object

>  <hydroph_interaction:TRP:28>  (71) 
hydroph_interaction:TRP:28    NaN
hydroph_interaction:TRP:28     -1
Name: 70, dtype: object

>  <hbond:SER:36>  (71) 
hbond:SER:36    NaN
hbond:SER:36     -1
Name: 70, dtype: object

>  <halogenbond:SER:36>  (71) 
halogenbond:SER:36    NaN
halogenbond:SER:36     -1
Name: 70, dtype: object

>  <hbond:SER:37>  (71) 
hbond:SER:37    NaN
hbond:SER:37     -1
Name: 70, dtype: object

>  <hbond:ARG:38>  (71) 
hbond:ARG:38    NaN
hbond:ARG:38     -1
Name: 70, dtype: object

>  <halogenbond:ARG:38>  (71) 
halogenbond:ARG:38    NaN
halogenbond:ARG:38     -1
Name: 70, dtype: object

>  <saltbridge:ASP:39>  (71) 
saltbridge:ASP:39    0.0
saltbridge:ASP:39      0
Name: 70, dtype: object

>  <halogenbond:ASP:39>  (71) 
halogenbond:ASP:39    0.0
halogenbond:ASP:39      0
Name: 70, dtype: object

>  <hbond:ASP:39>  (71) 
hbond:ASP:39    0.0
hbond:ASP:39      0
Name: 70, dtype: object

>  <hydroph_interaction:ASP:39>  (71) 
hydroph_interaction:ASP:39    0.0
hydroph_interaction:ASP:39      0
Name: 70, dtype: object

>  <hydroph_interaction:LEU:40>  (71) 
hydroph_interaction:LEU:40    NaN
hydroph_interaction:LEU:40     -1
Name: 70, dtype: object

>  <hydroph_interaction:TYR:63>  (71) 
hydroph_interaction:TYR:63    NaN
hydroph_interaction:TYR:63     -1
Name: 70, dtype: object

>  <hbond:TYR:63>  (71) 
hbond:TYR:63    NaN
hbond:TYR:63     -1
Name: 70, dtype: object

>  <pistack:TYR:63>  (71) 
pistack:TYR:63    NaN
pistack:TYR:63     -1
Name: 70, dtype: object

>  <pication:TYR:63>  (71) 
pication:TYR:63    NaN
pication:TYR:63     -1
Name: 70, dtype: object

>  <halogenbond:TYR:64>  (71) 
halogenbond:TYR:64    NaN
halogenbond:TYR:64     -1
Name: 70, dtype: object

>  <hbond:TYR:64>  (71) 
hbond:TYR:64    NaN
hbond:TYR:64     -1
Name: 70, dtype: object

>  <hydroph_interaction:TYR:64>  (71) 
hydroph_interaction:TYR:64    NaN
hydroph_interaction:TYR:64     -1
Name: 70, dtype: object

>  <halogenbond:CYS:65>  (71) 
halogenbond:CYS:65    NaN
halogenbond:CYS:65     -1
Name: 70, dtype: object

>  <hbond:CYS:65>  (71) 
hbond:CYS:65    NaN
hbond:CYS:65     -1
Name: 70, dtype: object

>  <hbond:SER:66>  (71) 
hbond:SER:66    NaN
hbond:SER:66     -1
Name: 70, dtype: object

>  <halogenbond:SER:66>  (71) 
halogenbond:SER:66    NaN
halogenbond:SER:66     -1
Name: 70, dtype: object

>  <hbond:SER:67>  (71) 
hbond:SER:67    NaN
hbond:SER:67     -1
Name: 70, dtype: object

>  <halogenbond:SER:67>  (71) 
halogenbond:SER:67    NaN
halogenbond:SER:67     -1
Name: 70, dtype: object

>  <hbond:ARG:68>  (71) 
hbond:ARG:68    NaN
hbond:ARG:68     -1
Name: 70, dtype: object

>  <saltbridge:ARG:68>  (71) 
saltbridge:ARG:68    NaN
saltbridge:ARG:68     -1
Name: 70, dtype: object

>  <hydroph_interaction:ARG:68>  (71) 
hydroph_interaction:ARG:68    NaN
hydroph_interaction:ARG:68     -1
Name: 70, dtype: object

>  <pication:ARG:68>  (71) 
pication:ARG:68    NaN
pication:ARG:68     -1
Name: 70, dtype: object

>  <hydroph_interaction:TYR:72>  (71) 
hydroph_interaction:TYR:72    NaN
hydroph_interaction:TYR:72     -1
Name: 70, dtype: object

>  <hydroph_interaction:VAL:74>  (71) 
hydroph_interaction:VAL:74    NaN
hydroph_interaction:VAL:74     -1
Name: 70, dtype: object

>  <hydroph_interaction:PHE:76>  (71) 
hydroph_interaction:PHE:76    NaN
hydroph_interaction:PHE:76     -1
Name: 70, dtype: object

>  <hbond:SER:77>  (71) 
hbond:SER:77    NaN
hbond:SER:77     -1
Name: 70, dtype: object

>  <hbond:SER:80>  (71) 
hbond:SER:80    NaN
hbond:SER:80     -1
Name: 70, dtype: object

>  <hbond:LEU:81>  (71) 
hbond:LEU:81    NaN
hbond:LEU:81     -1
Name: 70, dtype: object

>  <halogenbond:LEU:81>  (71) 
halogenbond:LEU:81    NaN
halogenbond:LEU:81     -1
Name: 70, dtype: object

>  <hydroph_interaction:LEU:81>  (71) 
hydroph_interaction:LEU:81    NaN
hydroph_interaction:LEU:81     -1
Name: 70, dtype: object

>  <hydroph_interaction:ILE:82>  (71) 
hydroph_interaction:ILE:82    NaN
hydroph_interaction:ILE:82     -1
Name: 70, dtype: object

>  <halogenbond:ILE:82>  (71) 
halogenbond:ILE:82    NaN
halogenbond:ILE:82     -1
Name: 70, dtype: object

>  <hbond:ILE:82>  (71) 
hbond:ILE:82    NaN
hbond:ILE:82     -1
Name: 70, dtype: object

>  <hbond:PHE:83>  (71) 
hbond:PHE:83    NaN
hbond:PHE:83     -1
Name: 70, dtype: object

>  <hydroph_interaction:PHE:83>  (71) 
hydroph_interaction:PHE:83    NaN
hydroph_interaction:PHE:83     -1
Name: 70, dtype: object

>  <halogenbond:PHE:83>  (71) 
halogenbond:PHE:83    NaN
halogenbond:PHE:83     -1
Name: 70, dtype: object

>  <pistack:PHE:83>  (71) 
pistack:PHE:83    NaN
pistack:PHE:83     -1
Name: 70, dtype: object

>  <pication:PHE:83>  (71) 
pication:PHE:83    NaN
pication:PHE:83     -1
Name: 70, dtype: object

>  <hydroph_interaction:VAL:84>  (71) 
hydroph_interaction:VAL:84    0.0
hydroph_interaction:VAL:84      0
Name: 70, dtype: object

>  <halogenbond:VAL:84>  (71) 
halogenbond:VAL:84    NaN
halogenbond:VAL:84     -1
Name: 70, dtype: object

>  <hbond:VAL:84>  (71) 
hbond:VAL:84    NaN
hbond:VAL:84     -1
Name: 70, dtype: object

>  <hydroph_interaction:GLU:85>  (71) 
hydroph_interaction:GLU:85    0.0
hydroph_interaction:GLU:85      0
Name: 70, dtype: object

>  <hbond:GLU:85>  (71) 
hbond:GLU:85    0.0
hbond:GLU:85      0
Name: 70, dtype: object

>  <halogenbond:GLU:85>  (71) 
halogenbond:GLU:85    NaN
halogenbond:GLU:85     -1
Name: 70, dtype: object

>  <saltbridge:GLU:85>  (71) 
saltbridge:GLU:85    NaN
saltbridge:GLU:85     -1
Name: 70, dtype: object

>  <halogenbond:ALA:86>  (71) 
halogenbond:ALA:86    NaN
halogenbond:ALA:86     -1
Name: 70, dtype: object

>  <hbond:ALA:86>  (71) 
hbond:ALA:86    0.0
hbond:ALA:86      0
Name: 70, dtype: object

>  <hydroph_interaction:ALA:86>  (71) 
hydroph_interaction:ALA:86    NaN
hydroph_interaction:ALA:86     -1
Name: 70, dtype: object

>  <hbond:SER:87>  (71) 
hbond:SER:87    0
hbond:SER:87    0
Name: 70, dtype: object

>  <halogenbond:SER:87>  (71) 
halogenbond:SER:87    NaN
halogenbond:SER:87     -1
Name: 70, dtype: object

>  <hbond:GLU:88>  (71) 
hbond:GLU:88    0.0
hbond:GLU:88      0
Name: 70, dtype: object

>  <hydroph_interaction:GLU:88>  (71) 
hydroph_interaction:GLU:88    0.0
hydroph_interaction:GLU:88      0
Name: 70, dtype: object

>  <halogenbond:GLU:88>  (71) 
halogenbond:GLU:88    0.0
halogenbond:GLU:88      0
Name: 70, dtype: object

>  <saltbridge:GLU:88>  (71) 
saltbridge:GLU:88    NaN
saltbridge:GLU:88     -1
Name: 70, dtype: object

>  <hydroph_interaction:TYR:89>  (71) 
hydroph_interaction:TYR:89    1.0
hydroph_interaction:TYR:89      1
Name: 70, dtype: object

>  <pistack:TYR:89>  (71) 
pistack:TYR:89    NaN
pistack:TYR:89     -1
Name: 70, dtype: object

>  <hbond:TYR:89>  (71) 
hbond:TYR:89    NaN
hbond:TYR:89     -1
Name: 70, dtype: object

>  <halogenbond:TYR:89>  (71) 
halogenbond:TYR:89    NaN
halogenbond:TYR:89     -1
Name: 70, dtype: object

>  <hydroph_interaction:TYR:90>  (71) 
hydroph_interaction:TYR:90    1.0
hydroph_interaction:TYR:90      1
Name: 70, dtype: object

>  <hbond:TYR:90>  (71) 
hbond:TYR:90    0.0
hbond:TYR:90      0
Name: 70, dtype: object

>  <pistack:TYR:90>  (71) 
pistack:TYR:90    NaN
pistack:TYR:90     -1
Name: 70, dtype: object

>  <halogenbond:TYR:90>  (71) 
halogenbond:TYR:90    NaN
halogenbond:TYR:90     -1
Name: 70, dtype: object

>  <pication:TYR:90>  (71) 
pication:TYR:90    NaN
pication:TYR:90     -1
Name: 70, dtype: object

>  <hbond:PRO:91>  (71) 
hbond:PRO:91    NaN
hbond:PRO:91     -1
Name: 70, dtype: object

>  <hydroph_interaction:PRO:91>  (71) 
hydroph_interaction:PRO:91    NaN
hydroph_interaction:PRO:91     -1
Name: 70, dtype: object

>  <halogenbond:PRO:91>  (71) 
halogenbond:PRO:91    NaN
halogenbond:PRO:91     -1
Name: 70, dtype: object

>  <hbond:ALA:92>  (71) 
hbond:ALA:92    NaN
hbond:ALA:92     -1
Name: 70, dtype: object

>  <hydroph_interaction:ALA:92>  (71) 
hydroph_interaction:ALA:92    NaN
hydroph_interaction:ALA:92     -1
Name: 70, dtype: object

>  <saltbridge:ARG:93>  (71) 
saltbridge:ARG:93    NaN
saltbridge:ARG:93     -1
Name: 70, dtype: object

>  <hbond:ARG:93>  (71) 
hbond:ARG:93    NaN
hbond:ARG:93     -1
Name: 70, dtype: object

>  <hydroph_interaction:ARG:93>  (71) 
hydroph_interaction:ARG:93    0.0
hydroph_interaction:ARG:93      0
Name: 70, dtype: object

>  <halogenbond:ARG:93>  (71) 
halogenbond:ARG:93    0.0
halogenbond:ARG:93      0
Name: 70, dtype: object

>  <pication:ARG:93>  (71) 
pication:ARG:93    NaN
pication:ARG:93     -1
Name: 70, dtype: object

>  <hydroph_interaction:TYR:94>  (71) 
hydroph_interaction:TYR:94    NaN
hydroph_interaction:TYR:94     -1
Name: 70, dtype: object

>  <pistack:TYR:94>  (71) 
pistack:TYR:94    NaN
pistack:TYR:94     -1
Name: 70, dtype: object

>  <hbond:TYR:94>  (71) 
hbond:TYR:94    NaN
hbond:TYR:94     -1
Name: 70, dtype: object

>  <hbond:GLN:95>  (71) 
hbond:GLN:95    0.0
hbond:GLN:95      0
Name: 70, dtype: object

>  <hydroph_interaction:GLN:95>  (71) 
hydroph_interaction:GLN:95    NaN
hydroph_interaction:GLN:95     -1
Name: 70, dtype: object

>  <halogenbond:GLN:95>  (71) 
halogenbond:GLN:95    0.0
halogenbond:GLN:95      0
Name: 70, dtype: object

>  <hbond:SER:96>  (71) 
hbond:SER:96    NaN
hbond:SER:96     -1
Name: 70, dtype: object

>  <halogenbond:HIS:97>  (71) 
halogenbond:HIS:97    NaN
halogenbond:HIS:97     -1
Name: 70, dtype: object

>  <hydroph_interaction:LEU:98>  (71) 
hydroph_interaction:LEU:98    NaN
hydroph_interaction:LEU:98     -1
Name: 70, dtype: object

>  <hbond:LEU:98>  (71) 
hbond:LEU:98    NaN
hbond:LEU:98     -1
Name: 70, dtype: object

>  <halogenbond:LEU:98>  (71) 
halogenbond:LEU:98    NaN
halogenbond:LEU:98     -1
Name: 70, dtype: object

>  <hbond:MET:99>  (71) 
hbond:MET:99    NaN
hbond:MET:99     -1
Name: 70, dtype: object

>  <hydroph_interaction:MET:99>  (71) 
hydroph_interaction:MET:99    NaN
hydroph_interaction:MET:99     -1
Name: 70, dtype: object

>  <halogenbond:MET:99>  (71) 
halogenbond:MET:99    NaN
halogenbond:MET:99     -1
Name: 70, dtype: object

>  <hydroph_interaction:LEU:100>  (71) 
hydroph_interaction:LEU:100    NaN
hydroph_interaction:LEU:100     -1
Name: 70, dtype: object

>  <hbond:LEU:100>  (71) 
hbond:LEU:100    NaN
hbond:LEU:100     -1
Name: 70, dtype: object

>  <hbond:ALA:101>  (71) 
hbond:ALA:101    NaN
hbond:ALA:101     -1
Name: 70, dtype: object

>  <hydroph_interaction:ALA:101>  (71) 
hydroph_interaction:ALA:101    NaN
hydroph_interaction:ALA:101     -1
Name: 70, dtype: object

>  <hydroph_interaction:VAL:102>  (71) 
hydroph_interaction:VAL:102    NaN
hydroph_interaction:VAL:102     -1
Name: 70, dtype: object

>  <hbond:VAL:102>  (71) 
hbond:VAL:102    NaN
hbond:VAL:102     -1
Name: 70, dtype: object

>  <hbond:GLY:103>  (71) 
hbond:GLY:103    NaN
hbond:GLY:103     -1
Name: 70, dtype: object

>  <halogenbond:GLY:103>  (71) 
halogenbond:GLY:103    NaN
halogenbond:GLY:103     -1
Name: 70, dtype: object

>  <hbond:HIS:104>  (71) 
hbond:HIS:104    NaN
hbond:HIS:104     -1
Name: 70, dtype: object

>  <saltbridge:HIS:104>  (71) 
saltbridge:HIS:104    NaN
saltbridge:HIS:104     -1
Name: 70, dtype: object

>  <pication:HIS:104>  (71) 
pication:HIS:104    NaN
pication:HIS:104     -1
Name: 70, dtype: object

>  <halogenbond:HIS:104>  (71) 
halogenbond:HIS:104    NaN
halogenbond:HIS:104     -1
Name: 70, dtype: object

>  <hydroph_interaction:HIS:104>  (71) 
hydroph_interaction:HIS:104    NaN
hydroph_interaction:HIS:104     -1
Name: 70, dtype: object

>  <pistack:HIS:104>  (71) 
pistack:HIS:104    NaN
pistack:HIS:104     -1
Name: 70, dtype: object

>  <halogenbond:SER:105>  (71) 
halogenbond:SER:105    0.0
halogenbond:SER:105      0
Name: 70, dtype: object

>  <hbond:SER:105>  (71) 
hbond:SER:105    0.0
hbond:SER:105      0
Name: 70, dtype: object

>  <hbond:GLU:106>  (71) 
hbond:GLU:106    0.0
hbond:GLU:106      0
Name: 70, dtype: object

>  <hydroph_interaction:GLU:106>  (71) 
hydroph_interaction:GLU:106    NaN
hydroph_interaction:GLU:106     -1
Name: 70, dtype: object

>  <saltbridge:GLU:106>  (71) 
saltbridge:GLU:106    NaN
saltbridge:GLU:106     -1
Name: 70, dtype: object

>  <halogenbond:GLU:106>  (71) 
halogenbond:GLU:106    NaN
halogenbond:GLU:106     -1
Name: 70, dtype: object

>  <hydroph_interaction:PRO:107>  (71) 
hydroph_interaction:PRO:107    0
hydroph_interaction:PRO:107    0
Name: 70, dtype: object

>  <hbond:PRO:107>  (71) 
hbond:PRO:107    0.0
hbond:PRO:107      0
Name: 70, dtype: object

>  <halogenbond:PRO:107>  (71) 
halogenbond:PRO:107    NaN
halogenbond:PRO:107     -1
Name: 70, dtype: object

>  <hbond:GLY:108>  (71) 
hbond:GLY:108    NaN
hbond:GLY:108     -1
Name: 70, dtype: object

>  <halogenbond:GLY:108>  (71) 
halogenbond:GLY:108    NaN
halogenbond:GLY:108     -1
Name: 70, dtype: object

>  <hbond:ASP:109>  (71) 
hbond:ASP:109    0.0
hbond:ASP:109      0
Name: 70, dtype: object

>  <hydroph_interaction:ASP:109>  (71) 
hydroph_interaction:ASP:109    0.0
hydroph_interaction:ASP:109      0
Name: 70, dtype: object

>  <saltbridge:ASP:109>  (71) 
saltbridge:ASP:109    NaN
saltbridge:ASP:109     -1
Name: 70, dtype: object

>  <halogenbond:CYS:110>  (71) 
halogenbond:CYS:110    NaN
halogenbond:CYS:110     -1
Name: 70, dtype: object

>  <hbond:CYS:110>  (71) 
hbond:CYS:110    NaN
hbond:CYS:110     -1
Name: 70, dtype: object

>  <hbond:GLY:111>  (71) 
hbond:GLY:111    NaN
hbond:GLY:111     -1
Name: 70, dtype: object

>  <hbond:GLY:112>  (71) 
hbond:GLY:112    NaN
hbond:GLY:112     -1
Name: 70, dtype: object

>  <hbond:ILE:113>  (71) 
hbond:ILE:113    NaN
hbond:ILE:113     -1
Name: 70, dtype: object

>  <hydroph_interaction:LEU:114>  (71) 
hydroph_interaction:LEU:114    NaN
hydroph_interaction:LEU:114     -1
Name: 70, dtype: object

>  <hbond:LEU:114>  (71) 
hbond:LEU:114    NaN
hbond:LEU:114     -1
Name: 70, dtype: object

>  <hydroph_interaction:ILE:123>  (71) 
hydroph_interaction:ILE:123    NaN
hydroph_interaction:ILE:123     -1
Name: 70, dtype: object

>  <hbond:ILE:123>  (71) 
hbond:ILE:123    NaN
hbond:ILE:123     -1
Name: 70, dtype: object

>  <hydroph_interaction:VAL:124>  (71) 
hydroph_interaction:VAL:124    0.0
hydroph_interaction:VAL:124      0
Name: 70, dtype: object

>  <hbond:VAL:124>  (71) 
hbond:VAL:124    NaN
hbond:VAL:124     -1
Name: 70, dtype: object

>  <halogenbond:VAL:124>  (71) 
halogenbond:VAL:124    NaN
halogenbond:VAL:124     -1
Name: 70, dtype: object

>  <hbond:SER:125>  (71) 
hbond:SER:125    0
hbond:SER:125    0
Name: 70, dtype: object

>  <halogenbond:SER:125>  (71) 
halogenbond:SER:125    0.0
halogenbond:SER:125      0
Name: 70, dtype: object

>  <hydroph_interaction:THR:126>  (71) 
hydroph_interaction:THR:126    0.0
hydroph_interaction:THR:126      0
Name: 70, dtype: object

>  <hbond:THR:126>  (71) 
hbond:THR:126    NaN
hbond:THR:126     -1
Name: 70, dtype: object

>  <halogenbond:THR:126>  (71) 
halogenbond:THR:126    NaN
halogenbond:THR:126     -1
Name: 70, dtype: object

>  <hbond:GLY:127>  (71) 
hbond:GLY:127    0
hbond:GLY:127    0
Name: 70, dtype: object

>  <halogenbond:GLY:127>  (71) 
halogenbond:GLY:127    NaN
halogenbond:GLY:127     -1
Name: 70, dtype: object

>  <hydroph_interaction:GLY:127>  (71) 
hydroph_interaction:GLY:127    NaN
hydroph_interaction:GLY:127     -1
Name: 70, dtype: object

>  <hbond:GLY:128>  (71) 
hbond:GLY:128    NaN
hbond:GLY:128     -1
Name: 70, dtype: object

>  <halogenbond:GLY:128>  (71) 
halogenbond:GLY:128    NaN
halogenbond:GLY:128     -1
Name: 70, dtype: object

>  <hydroph_interaction:GLY:128>  (71) 
hydroph_interaction:GLY:128    NaN
hydroph_interaction:GLY:128     -1
Name: 70, dtype: object

>  <hbond:ASN:129>  (71) 
hbond:ASN:129    NaN
hbond:ASN:129     -1
Name: 70, dtype: object

>  <hydroph_interaction:ASN:129>  (71) 
hydroph_interaction:ASN:129    NaN
hydroph_interaction:ASN:129     -1
Name: 70, dtype: object

>  <halogenbond:ASN:129>  (71) 
halogenbond:ASN:129    NaN
halogenbond:ASN:129     -1
Name: 70, dtype: object

>  <hbond:GLY:130>  (71) 
hbond:GLY:130    NaN
hbond:GLY:130     -1
Name: 70, dtype: object

>  <hbond:LEU:131>  (71) 
hbond:LEU:131    NaN
hbond:LEU:131     -1
Name: 70, dtype: object

>  <hydroph_interaction:LEU:131>  (71) 
hydroph_interaction:LEU:131    NaN
hydroph_interaction:LEU:131     -1
Name: 70, dtype: object

>  <halogenbond:LEU:131>  (71) 
halogenbond:LEU:131    NaN
halogenbond:LEU:131     -1
Name: 70, dtype: object

>  <hydroph_interaction:VAL:132>  (71) 
hydroph_interaction:VAL:132    0.0
hydroph_interaction:VAL:132      0
Name: 70, dtype: object

>  <hbond:VAL:132>  (71) 
hbond:VAL:132    NaN
hbond:VAL:132     -1
Name: 70, dtype: object

>  <hbond:GLY:133>  (71) 
hbond:GLY:133    NaN
hbond:GLY:133     -1
Name: 70, dtype: object

>  <halogenbond:GLY:133>  (71) 
halogenbond:GLY:133    NaN
halogenbond:GLY:133     -1
Name: 70, dtype: object

>  <hydroph_interaction:PHE:134>  (71) 
hydroph_interaction:PHE:134    NaN
hydroph_interaction:PHE:134     -1
Name: 70, dtype: object

>  <hbond:PHE:134>  (71) 
hbond:PHE:134    NaN
hbond:PHE:134     -1
Name: 70, dtype: object

>  <pistack:PHE:134>  (71) 
pistack:PHE:134    NaN
pistack:PHE:134     -1
Name: 70, dtype: object

>  <pication:PHE:134>  (71) 
pication:PHE:134    NaN
pication:PHE:134     -1
Name: 70, dtype: object

>  <halogenbond:PHE:134>  (71) 
halogenbond:PHE:134    NaN
halogenbond:PHE:134     -1
Name: 70, dtype: object

>  <hydroph_interaction:ALA:135>  (71) 
hydroph_interaction:ALA:135    NaN
hydroph_interaction:ALA:135     -1
Name: 70, dtype: object

>  <hbond:ALA:135>  (71) 
hbond:ALA:135    NaN
hbond:ALA:135     -1
Name: 70, dtype: object

$$$$
PV_005829523368
     RDKit          3D

 21 21  0  0  0  0  0  0  0  0999 V2000
    0.8910   14.5020   20.9860 C   0  0  0  0  0  0  0  0  0  0  0  0
    0.5980   13.1400   20.3840 C   0  0  0  0  0  0  0  0  0  0  0  0
    1.7840   12.4500   19.7160 C   0  0  0  0  0  0  0  0  0  0  0  0
    2.3170   13.1760   18.5270 C   0  0  0  0  0  0  0  0  0  0  0  0
    1.5230   14.2720   18.3870 N   0  0  0  0  0  0  0  0  0  0  0  0
    3.4980   12.5650   17.8390 C   0  0  0  0  0  0  0  0  0  0  0  0
    4.1590   13.1850   16.6350 C   0  0  0  0  0  0  0  0  0  0  0  0
    3.9670   11.3770   18.3570 C   0  0  0  0  0  0  0  0  0  0  0  0
    3.4150   10.7520   19.4480 C   0  0  0  0  0  0  0  0  0  0  0  0
    3.9590    9.6200   19.7950 F   0  0  0  0  0  0  0  0  0  0  0  0
    2.3480   11.2770   20.1340 C   0  0  0  0  0  0  0  0  0  0  0  0
    1.8970   14.9300   20.9280 H   0  0  0  0  0  0  0  0  0  0  0  0
    0.1130   15.0810   21.4920 H   0  0  0  0  0  0  0  0  0  0  0  0
   -0.3740   12.6520   20.4050 H   0  0  0  0  0  0  0  0  0  0  0  0
    1.7660   14.8840   17.6160 H   0  0  0  0  0  0  0  0  0  0  0  0
    0.5240   14.2870   18.5480 H   0  0  0  0  0  0  0  0  0  0  0  0
    3.7010   14.1410   16.4100 H   0  0  0  0  0  0  0  0  0  0  0  0
    5.2190   13.3330   16.8260 H   0  0  0  0  0  0  0  0  0  0  0  0
    4.0880   12.5440   15.7570 H   0  0  0  0  0  0  0  0  0  0  0  0
    4.7990   10.8800   17.9000 H   0  0  0  0  0  0  0  0  0  0  0  0
    2.0120   10.7000   20.9910 H   0  0  0  0  0  0  0  0  0  0  0  0
  1  2  2  0
  2  3  1  0
  3  4  2  0
  4  5  1  0
  4  6  1  0
  6  7  1  0
  6  8  2  0
  8  9  1  0
  9 10  1  0
  9 11  2  0
 11  3  1  0
  1 12  1  0
  1 13  1  0
  2 14  1  0
  5 15  1  0
  5 16  1  0
  7 17  1  0
  7 18  1  0
  7 19  1  0
  8 20  1  0
 11 21  1  0
A    1
 C1 
A    2
 C2 
A    3
 C3 
A    4
 C4 
A    5
 N1 
A    6
 C5 
A    7
 C6 
A    8
 C7 
A    9
 C8 
A   10
 F1 
A   11
 C9 
A   12
 H1 
A   13
 H2 
A   14
 H3 
A   15
 H4 
A   16
 H5 
A   17
 H6 
A   18
 H7 
A   19
 H8 
A   20
 H9 
A   21
 H10
M  END
>  <ref_pdb>  (72) 
x0310_0A

>  <ref_mols>  (72) 
x0310_0A,x0473_0A

>  <original SMILES>  (72) 
C=Cc1cc(F)cc(C)c1N

>  <rationale>  (72) 
info halogenbond:C110+A86+S125+E106+E88+T126+P107+H104+Y64+C65+S87+F83+R93+L131+I82+G128+P91+N19+H21+V84+G133+Y90+Y89+H97+L81+F134+L98+R20+G103+S66+S67+S7+G108+R38+V124+M99+S36; hbond:E85+G108+G103+G130+H104+R68+P91+F83+S67+S7+S66+G112+R20+Y89+S77+A135+Y63+A92+A101+M99+F134+L100+I82+Y64+S36+L98+V84+Y94+S80+R38+S37+V102+G8+I123+G111+I113+L114+C65+L22+S96; hydroph_interaction:V84+E85+L40+I123+A135+I82+L100+L98+L131+R93+H104+R20+A86+V74+P91+A101+F76+M99+L114+Y94+R68+Y72+Y64+V18+V102+W28+G127+G128+L81; pication:H104+R93+Y63+F134+Y90+R68+F83+R20; pistack:Y90+H104+F134+Y63+F83+Y94; saltbridge:R93+H104+E106+R68+R20; 

>  <intxn_cluster>  (72) 
-1

>  <intxn_cluster_rank>  (72) 
-1

>  <N_interactions>  (72) 
9

>  <∆∆G>  (72) 
-5.830131

>  <$/mg>  (72) 
163.0

>  <comRMSD>  (72) 
0.667619

>  <N_rotatable_bonds>  (72) 
3

>  <deep_P1_sidechain>  (72) 
nan

>  <farthest_distance_to_substrate>  (72) 
3.891538

>  <hbond:SER:7>  (72) 
hbond:SER:7    NaN
hbond:SER:7     -1
Name: 71, dtype: object

>  <halogenbond:SER:7>  (72) 
halogenbond:SER:7    NaN
halogenbond:SER:7     -1
Name: 71, dtype: object

>  <hbond:GLY:8>  (72) 
hbond:GLY:8    NaN
hbond:GLY:8     -1
Name: 71, dtype: object

>  <hydroph_interaction:VAL:18>  (72) 
hydroph_interaction:VAL:18    NaN
hydroph_interaction:VAL:18     -1
Name: 71, dtype: object

>  <hbond:ASN:19>  (72) 
hbond:ASN:19    0.0
hbond:ASN:19      0
Name: 71, dtype: object

>  <hydroph_interaction:ASN:19>  (72) 
hydroph_interaction:ASN:19    0.0
hydroph_interaction:ASN:19      0
Name: 71, dtype: object

>  <halogenbond:ASN:19>  (72) 
halogenbond:ASN:19    NaN
halogenbond:ASN:19     -1
Name: 71, dtype: object

>  <hbond:ARG:20>  (72) 
hbond:ARG:20    NaN
hbond:ARG:20     -1
Name: 71, dtype: object

>  <hydroph_interaction:ARG:20>  (72) 
hydroph_interaction:ARG:20    NaN
hydroph_interaction:ARG:20     -1
Name: 71, dtype: object

>  <saltbridge:ARG:20>  (72) 
saltbridge:ARG:20    NaN
saltbridge:ARG:20     -1
Name: 71, dtype: object

>  <halogenbond:ARG:20>  (72) 
halogenbond:ARG:20    NaN
halogenbond:ARG:20     -1
Name: 71, dtype: object

>  <pication:ARG:20>  (72) 
pication:ARG:20    NaN
pication:ARG:20     -1
Name: 71, dtype: object

>  <hbond:HIS:21>  (72) 
hbond:HIS:21    0.0
hbond:HIS:21      0
Name: 71, dtype: object

>  <hydroph_interaction:HIS:21>  (72) 
hydroph_interaction:HIS:21    0.0
hydroph_interaction:HIS:21      0
Name: 71, dtype: object

>  <pistack:HIS:21>  (72) 
pistack:HIS:21    0.0
pistack:HIS:21      0
Name: 71, dtype: object

>  <pication:HIS:21>  (72) 
pication:HIS:21    0.0
pication:HIS:21      0
Name: 71, dtype: object

>  <saltbridge:HIS:21>  (72) 
saltbridge:HIS:21    0.0
saltbridge:HIS:21      0
Name: 71, dtype: object

>  <halogenbond:HIS:21>  (72) 
halogenbond:HIS:21    NaN
halogenbond:HIS:21     -1
Name: 71, dtype: object

>  <hydroph_interaction:LEU:22>  (72) 
hydroph_interaction:LEU:22    0.0
hydroph_interaction:LEU:22      0
Name: 71, dtype: object

>  <hbond:LEU:22>  (72) 
hbond:LEU:22    NaN
hbond:LEU:22     -1
Name: 71, dtype: object

>  <hydroph_interaction:TRP:28>  (72) 
hydroph_interaction:TRP:28    NaN
hydroph_interaction:TRP:28     -1
Name: 71, dtype: object

>  <hbond:SER:36>  (72) 
hbond:SER:36    NaN
hbond:SER:36     -1
Name: 71, dtype: object

>  <halogenbond:SER:36>  (72) 
halogenbond:SER:36    NaN
halogenbond:SER:36     -1
Name: 71, dtype: object

>  <hbond:SER:37>  (72) 
hbond:SER:37    NaN
hbond:SER:37     -1
Name: 71, dtype: object

>  <hbond:ARG:38>  (72) 
hbond:ARG:38    NaN
hbond:ARG:38     -1
Name: 71, dtype: object

>  <halogenbond:ARG:38>  (72) 
halogenbond:ARG:38    NaN
halogenbond:ARG:38     -1
Name: 71, dtype: object

>  <saltbridge:ASP:39>  (72) 
saltbridge:ASP:39    0.0
saltbridge:ASP:39      0
Name: 71, dtype: object

>  <halogenbond:ASP:39>  (72) 
halogenbond:ASP:39    0.0
halogenbond:ASP:39      0
Name: 71, dtype: object

>  <hbond:ASP:39>  (72) 
hbond:ASP:39    0.0
hbond:ASP:39      0
Name: 71, dtype: object

>  <hydroph_interaction:ASP:39>  (72) 
hydroph_interaction:ASP:39    0.0
hydroph_interaction:ASP:39      0
Name: 71, dtype: object

>  <hydroph_interaction:LEU:40>  (72) 
hydroph_interaction:LEU:40    NaN
hydroph_interaction:LEU:40     -1
Name: 71, dtype: object

>  <hydroph_interaction:TYR:63>  (72) 
hydroph_interaction:TYR:63    0.0
hydroph_interaction:TYR:63      0
Name: 71, dtype: object

>  <hbond:TYR:63>  (72) 
hbond:TYR:63    NaN
hbond:TYR:63     -1
Name: 71, dtype: object

>  <pistack:TYR:63>  (72) 
pistack:TYR:63    NaN
pistack:TYR:63     -1
Name: 71, dtype: object

>  <pication:TYR:63>  (72) 
pication:TYR:63    NaN
pication:TYR:63     -1
Name: 71, dtype: object

>  <halogenbond:TYR:64>  (72) 
halogenbond:TYR:64    NaN
halogenbond:TYR:64     -1
Name: 71, dtype: object

>  <hbond:TYR:64>  (72) 
hbond:TYR:64    NaN
hbond:TYR:64     -1
Name: 71, dtype: object

>  <hydroph_interaction:TYR:64>  (72) 
hydroph_interaction:TYR:64    NaN
hydroph_interaction:TYR:64     -1
Name: 71, dtype: object

>  <halogenbond:CYS:65>  (72) 
halogenbond:CYS:65    NaN
halogenbond:CYS:65     -1
Name: 71, dtype: object

>  <hbond:CYS:65>  (72) 
hbond:CYS:65    NaN
hbond:CYS:65     -1
Name: 71, dtype: object

>  <hbond:SER:66>  (72) 
hbond:SER:66    NaN
hbond:SER:66     -1
Name: 71, dtype: object

>  <halogenbond:SER:66>  (72) 
halogenbond:SER:66    NaN
halogenbond:SER:66     -1
Name: 71, dtype: object

>  <hbond:SER:67>  (72) 
hbond:SER:67    NaN
hbond:SER:67     -1
Name: 71, dtype: object

>  <halogenbond:SER:67>  (72) 
halogenbond:SER:67    NaN
halogenbond:SER:67     -1
Name: 71, dtype: object

>  <hbond:ARG:68>  (72) 
hbond:ARG:68    NaN
hbond:ARG:68     -1
Name: 71, dtype: object

>  <saltbridge:ARG:68>  (72) 
saltbridge:ARG:68    NaN
saltbridge:ARG:68     -1
Name: 71, dtype: object

>  <hydroph_interaction:ARG:68>  (72) 
hydroph_interaction:ARG:68    NaN
hydroph_interaction:ARG:68     -1
Name: 71, dtype: object

>  <pication:ARG:68>  (72) 
pication:ARG:68    NaN
pication:ARG:68     -1
Name: 71, dtype: object

>  <hydroph_interaction:TYR:72>  (72) 
hydroph_interaction:TYR:72    NaN
hydroph_interaction:TYR:72     -1
Name: 71, dtype: object

>  <hydroph_interaction:VAL:74>  (72) 
hydroph_interaction:VAL:74    NaN
hydroph_interaction:VAL:74     -1
Name: 71, dtype: object

>  <hydroph_interaction:PHE:76>  (72) 
hydroph_interaction:PHE:76    NaN
hydroph_interaction:PHE:76     -1
Name: 71, dtype: object

>  <hbond:SER:77>  (72) 
hbond:SER:77    NaN
hbond:SER:77     -1
Name: 71, dtype: object

>  <hbond:SER:80>  (72) 
hbond:SER:80    NaN
hbond:SER:80     -1
Name: 71, dtype: object

>  <hbond:LEU:81>  (72) 
hbond:LEU:81    0.0
hbond:LEU:81      0
Name: 71, dtype: object

>  <halogenbond:LEU:81>  (72) 
halogenbond:LEU:81    NaN
halogenbond:LEU:81     -1
Name: 71, dtype: object

>  <hydroph_interaction:LEU:81>  (72) 
hydroph_interaction:LEU:81    NaN
hydroph_interaction:LEU:81     -1
Name: 71, dtype: object

>  <hydroph_interaction:ILE:82>  (72) 
hydroph_interaction:ILE:82    1.0
hydroph_interaction:ILE:82      1
Name: 71, dtype: object

>  <halogenbond:ILE:82>  (72) 
halogenbond:ILE:82    NaN
halogenbond:ILE:82     -1
Name: 71, dtype: object

>  <hbond:ILE:82>  (72) 
hbond:ILE:82    NaN
hbond:ILE:82     -1
Name: 71, dtype: object

>  <hbond:PHE:83>  (72) 
hbond:PHE:83    1.0
hbond:PHE:83      1
Name: 71, dtype: object

>  <hydroph_interaction:PHE:83>  (72) 
hydroph_interaction:PHE:83    0.0
hydroph_interaction:PHE:83      0
Name: 71, dtype: object

>  <halogenbond:PHE:83>  (72) 
halogenbond:PHE:83    NaN
halogenbond:PHE:83     -1
Name: 71, dtype: object

>  <pistack:PHE:83>  (72) 
pistack:PHE:83    NaN
pistack:PHE:83     -1
Name: 71, dtype: object

>  <pication:PHE:83>  (72) 
pication:PHE:83    NaN
pication:PHE:83     -1
Name: 71, dtype: object

>  <hydroph_interaction:VAL:84>  (72) 
hydroph_interaction:VAL:84    2.0
hydroph_interaction:VAL:84      2
Name: 71, dtype: object

>  <halogenbond:VAL:84>  (72) 
halogenbond:VAL:84    NaN
halogenbond:VAL:84     -1
Name: 71, dtype: object

>  <hbond:VAL:84>  (72) 
hbond:VAL:84    NaN
hbond:VAL:84     -1
Name: 71, dtype: object

>  <hydroph_interaction:GLU:85>  (72) 
hydroph_interaction:GLU:85    1.0
hydroph_interaction:GLU:85      1
Name: 71, dtype: object

>  <hbond:GLU:85>  (72) 
hbond:GLU:85    1.0
hbond:GLU:85      1
Name: 71, dtype: object

>  <halogenbond:GLU:85>  (72) 
halogenbond:GLU:85    0.0
halogenbond:GLU:85      0
Name: 71, dtype: object

>  <saltbridge:GLU:85>  (72) 
saltbridge:GLU:85    0.0
saltbridge:GLU:85      0
Name: 71, dtype: object

>  <halogenbond:ALA:86>  (72) 
halogenbond:ALA:86    NaN
halogenbond:ALA:86     -1
Name: 71, dtype: object

>  <hbond:ALA:86>  (72) 
hbond:ALA:86    0.0
hbond:ALA:86      0
Name: 71, dtype: object

>  <hydroph_interaction:ALA:86>  (72) 
hydroph_interaction:ALA:86    NaN
hydroph_interaction:ALA:86     -1
Name: 71, dtype: object

>  <hbond:SER:87>  (72) 
hbond:SER:87    0
hbond:SER:87    0
Name: 71, dtype: object

>  <halogenbond:SER:87>  (72) 
halogenbond:SER:87    NaN
halogenbond:SER:87     -1
Name: 71, dtype: object

>  <hbond:GLU:88>  (72) 
hbond:GLU:88    0.0
hbond:GLU:88      0
Name: 71, dtype: object

>  <hydroph_interaction:GLU:88>  (72) 
hydroph_interaction:GLU:88    0.0
hydroph_interaction:GLU:88      0
Name: 71, dtype: object

>  <halogenbond:GLU:88>  (72) 
halogenbond:GLU:88    NaN
halogenbond:GLU:88     -1
Name: 71, dtype: object

>  <saltbridge:GLU:88>  (72) 
saltbridge:GLU:88    0.0
saltbridge:GLU:88      0
Name: 71, dtype: object

>  <hydroph_interaction:TYR:89>  (72) 
hydroph_interaction:TYR:89    0.0
hydroph_interaction:TYR:89      0
Name: 71, dtype: object

>  <pistack:TYR:89>  (72) 
pistack:TYR:89    0.0
pistack:TYR:89      0
Name: 71, dtype: object

>  <hbond:TYR:89>  (72) 
hbond:TYR:89    NaN
hbond:TYR:89     -1
Name: 71, dtype: object

>  <halogenbond:TYR:89>  (72) 
halogenbond:TYR:89    NaN
halogenbond:TYR:89     -1
Name: 71, dtype: object

>  <hydroph_interaction:TYR:90>  (72) 
hydroph_interaction:TYR:90    0.0
hydroph_interaction:TYR:90      0
Name: 71, dtype: object

>  <hbond:TYR:90>  (72) 
hbond:TYR:90    0.0
hbond:TYR:90      0
Name: 71, dtype: object

>  <pistack:TYR:90>  (72) 
pistack:TYR:90    NaN
pistack:TYR:90     -1
Name: 71, dtype: object

>  <halogenbond:TYR:90>  (72) 
halogenbond:TYR:90    NaN
halogenbond:TYR:90     -1
Name: 71, dtype: object

>  <pication:TYR:90>  (72) 
pication:TYR:90    NaN
pication:TYR:90     -1
Name: 71, dtype: object

>  <hbond:PRO:91>  (72) 
hbond:PRO:91    NaN
hbond:PRO:91     -1
Name: 71, dtype: object

>  <hydroph_interaction:PRO:91>  (72) 
hydroph_interaction:PRO:91    NaN
hydroph_interaction:PRO:91     -1
Name: 71, dtype: object

>  <halogenbond:PRO:91>  (72) 
halogenbond:PRO:91    NaN
halogenbond:PRO:91     -1
Name: 71, dtype: object

>  <hbond:ALA:92>  (72) 
hbond:ALA:92    NaN
hbond:ALA:92     -1
Name: 71, dtype: object

>  <hydroph_interaction:ALA:92>  (72) 
hydroph_interaction:ALA:92    0.0
hydroph_interaction:ALA:92      0
Name: 71, dtype: object

>  <saltbridge:ARG:93>  (72) 
saltbridge:ARG:93    NaN
saltbridge:ARG:93     -1
Name: 71, dtype: object

>  <hbond:ARG:93>  (72) 
hbond:ARG:93    0.0
hbond:ARG:93      0
Name: 71, dtype: object

>  <hydroph_interaction:ARG:93>  (72) 
hydroph_interaction:ARG:93    NaN
hydroph_interaction:ARG:93     -1
Name: 71, dtype: object

>  <halogenbond:ARG:93>  (72) 
halogenbond:ARG:93    NaN
halogenbond:ARG:93     -1
Name: 71, dtype: object

>  <pication:ARG:93>  (72) 
pication:ARG:93    NaN
pication:ARG:93     -1
Name: 71, dtype: object

>  <hydroph_interaction:TYR:94>  (72) 
hydroph_interaction:TYR:94    NaN
hydroph_interaction:TYR:94     -1
Name: 71, dtype: object

>  <pistack:TYR:94>  (72) 
pistack:TYR:94    NaN
pistack:TYR:94     -1
Name: 71, dtype: object

>  <hbond:TYR:94>  (72) 
hbond:TYR:94    NaN
hbond:TYR:94     -1
Name: 71, dtype: object

>  <hbond:GLN:95>  (72) 
hbond:GLN:95    0.0
hbond:GLN:95      0
Name: 71, dtype: object

>  <hydroph_interaction:GLN:95>  (72) 
hydroph_interaction:GLN:95    0.0
hydroph_interaction:GLN:95      0
Name: 71, dtype: object

>  <halogenbond:GLN:95>  (72) 
halogenbond:GLN:95    0.0
halogenbond:GLN:95      0
Name: 71, dtype: object

>  <hbond:SER:96>  (72) 
hbond:SER:96    NaN
hbond:SER:96     -1
Name: 71, dtype: object

>  <halogenbond:HIS:97>  (72) 
halogenbond:HIS:97    NaN
halogenbond:HIS:97     -1
Name: 71, dtype: object

>  <hydroph_interaction:LEU:98>  (72) 
hydroph_interaction:LEU:98    1.0
hydroph_interaction:LEU:98      1
Name: 71, dtype: object

>  <hbond:LEU:98>  (72) 
hbond:LEU:98    NaN
hbond:LEU:98     -1
Name: 71, dtype: object

>  <halogenbond:LEU:98>  (72) 
halogenbond:LEU:98    NaN
halogenbond:LEU:98     -1
Name: 71, dtype: object

>  <hbond:MET:99>  (72) 
hbond:MET:99    NaN
hbond:MET:99     -1
Name: 71, dtype: object

>  <hydroph_interaction:MET:99>  (72) 
hydroph_interaction:MET:99    NaN
hydroph_interaction:MET:99     -1
Name: 71, dtype: object

>  <halogenbond:MET:99>  (72) 
halogenbond:MET:99    NaN
halogenbond:MET:99     -1
Name: 71, dtype: object

>  <hydroph_interaction:LEU:100>  (72) 
hydroph_interaction:LEU:100    1.0
hydroph_interaction:LEU:100      1
Name: 71, dtype: object

>  <hbond:LEU:100>  (72) 
hbond:LEU:100    NaN
hbond:LEU:100     -1
Name: 71, dtype: object

>  <hbond:ALA:101>  (72) 
hbond:ALA:101    NaN
hbond:ALA:101     -1
Name: 71, dtype: object

>  <hydroph_interaction:ALA:101>  (72) 
hydroph_interaction:ALA:101    NaN
hydroph_interaction:ALA:101     -1
Name: 71, dtype: object

>  <hydroph_interaction:VAL:102>  (72) 
hydroph_interaction:VAL:102    NaN
hydroph_interaction:VAL:102     -1
Name: 71, dtype: object

>  <hbond:VAL:102>  (72) 
hbond:VAL:102    NaN
hbond:VAL:102     -1
Name: 71, dtype: object

>  <hbond:GLY:103>  (72) 
hbond:GLY:103    NaN
hbond:GLY:103     -1
Name: 71, dtype: object

>  <halogenbond:GLY:103>  (72) 
halogenbond:GLY:103    NaN
halogenbond:GLY:103     -1
Name: 71, dtype: object

>  <hbond:HIS:104>  (72) 
hbond:HIS:104    NaN
hbond:HIS:104     -1
Name: 71, dtype: object

>  <saltbridge:HIS:104>  (72) 
saltbridge:HIS:104    NaN
saltbridge:HIS:104     -1
Name: 71, dtype: object

>  <pication:HIS:104>  (72) 
pication:HIS:104    NaN
pication:HIS:104     -1
Name: 71, dtype: object

>  <halogenbond:HIS:104>  (72) 
halogenbond:HIS:104    NaN
halogenbond:HIS:104     -1
Name: 71, dtype: object

>  <hydroph_interaction:HIS:104>  (72) 
hydroph_interaction:HIS:104    NaN
hydroph_interaction:HIS:104     -1
Name: 71, dtype: object

>  <pistack:HIS:104>  (72) 
pistack:HIS:104    NaN
pistack:HIS:104     -1
Name: 71, dtype: object

>  <halogenbond:SER:105>  (72) 
halogenbond:SER:105    0.0
halogenbond:SER:105      0
Name: 71, dtype: object

>  <hbond:SER:105>  (72) 
hbond:SER:105    0.0
hbond:SER:105      0
Name: 71, dtype: object

>  <hbond:GLU:106>  (72) 
hbond:GLU:106    0.0
hbond:GLU:106      0
Name: 71, dtype: object

>  <hydroph_interaction:GLU:106>  (72) 
hydroph_interaction:GLU:106    0.0
hydroph_interaction:GLU:106      0
Name: 71, dtype: object

>  <saltbridge:GLU:106>  (72) 
saltbridge:GLU:106    NaN
saltbridge:GLU:106     -1
Name: 71, dtype: object

>  <halogenbond:GLU:106>  (72) 
halogenbond:GLU:106    NaN
halogenbond:GLU:106     -1
Name: 71, dtype: object

>  <hydroph_interaction:PRO:107>  (72) 
hydroph_interaction:PRO:107    0
hydroph_interaction:PRO:107    0
Name: 71, dtype: object

>  <hbond:PRO:107>  (72) 
hbond:PRO:107    0.0
hbond:PRO:107      0
Name: 71, dtype: object

>  <halogenbond:PRO:107>  (72) 
halogenbond:PRO:107    NaN
halogenbond:PRO:107     -1
Name: 71, dtype: object

>  <hbond:GLY:108>  (72) 
hbond:GLY:108    NaN
hbond:GLY:108     -1
Name: 71, dtype: object

>  <halogenbond:GLY:108>  (72) 
halogenbond:GLY:108    NaN
halogenbond:GLY:108     -1
Name: 71, dtype: object

>  <hbond:ASP:109>  (72) 
hbond:ASP:109    0.0
hbond:ASP:109      0
Name: 71, dtype: object

>  <hydroph_interaction:ASP:109>  (72) 
hydroph_interaction:ASP:109    0.0
hydroph_interaction:ASP:109      0
Name: 71, dtype: object

>  <saltbridge:ASP:109>  (72) 
saltbridge:ASP:109    0.0
saltbridge:ASP:109      0
Name: 71, dtype: object

>  <halogenbond:CYS:110>  (72) 
halogenbond:CYS:110    NaN
halogenbond:CYS:110     -1
Name: 71, dtype: object

>  <hbond:CYS:110>  (72) 
hbond:CYS:110    0.0
hbond:CYS:110      0
Name: 71, dtype: object

>  <hbond:GLY:111>  (72) 
hbond:GLY:111    NaN
hbond:GLY:111     -1
Name: 71, dtype: object

>  <hbond:GLY:112>  (72) 
hbond:GLY:112    NaN
hbond:GLY:112     -1
Name: 71, dtype: object

>  <hbond:ILE:113>  (72) 
hbond:ILE:113    NaN
hbond:ILE:113     -1
Name: 71, dtype: object

>  <hydroph_interaction:LEU:114>  (72) 
hydroph_interaction:LEU:114    NaN
hydroph_interaction:LEU:114     -1
Name: 71, dtype: object

>  <hbond:LEU:114>  (72) 
hbond:LEU:114    NaN
hbond:LEU:114     -1
Name: 71, dtype: object

>  <hydroph_interaction:ILE:123>  (72) 
hydroph_interaction:ILE:123    NaN
hydroph_interaction:ILE:123     -1
Name: 71, dtype: object

>  <hbond:ILE:123>  (72) 
hbond:ILE:123    NaN
hbond:ILE:123     -1
Name: 71, dtype: object

>  <hydroph_interaction:VAL:124>  (72) 
hydroph_interaction:VAL:124    0.0
hydroph_interaction:VAL:124      0
Name: 71, dtype: object

>  <hbond:VAL:124>  (72) 
hbond:VAL:124    0.0
hbond:VAL:124      0
Name: 71, dtype: object

>  <halogenbond:VAL:124>  (72) 
halogenbond:VAL:124    NaN
halogenbond:VAL:124     -1
Name: 71, dtype: object

>  <hbond:SER:125>  (72) 
hbond:SER:125    0
hbond:SER:125    0
Name: 71, dtype: object

>  <halogenbond:SER:125>  (72) 
halogenbond:SER:125    NaN
halogenbond:SER:125     -1
Name: 71, dtype: object

>  <hydroph_interaction:THR:126>  (72) 
hydroph_interaction:THR:126    0.0
hydroph_interaction:THR:126      0
Name: 71, dtype: object

>  <hbond:THR:126>  (72) 
hbond:THR:126    0.0
hbond:THR:126      0
Name: 71, dtype: object

>  <halogenbond:THR:126>  (72) 
halogenbond:THR:126    NaN
halogenbond:THR:126     -1
Name: 71, dtype: object

>  <hbond:GLY:127>  (72) 
hbond:GLY:127    0
hbond:GLY:127    0
Name: 71, dtype: object

>  <halogenbond:GLY:127>  (72) 
halogenbond:GLY:127    0.0
halogenbond:GLY:127      0
Name: 71, dtype: object

>  <hydroph_interaction:GLY:127>  (72) 
hydroph_interaction:GLY:127    NaN
hydroph_interaction:GLY:127     -1
Name: 71, dtype: object

>  <hbond:GLY:128>  (72) 
hbond:GLY:128    0.0
hbond:GLY:128      0
Name: 71, dtype: object

>  <halogenbond:GLY:128>  (72) 
halogenbond:GLY:128    NaN
halogenbond:GLY:128     -1
Name: 71, dtype: object

>  <hydroph_interaction:GLY:128>  (72) 
hydroph_interaction:GLY:128    NaN
hydroph_interaction:GLY:128     -1
Name: 71, dtype: object

>  <hbond:ASN:129>  (72) 
hbond:ASN:129    0.0
hbond:ASN:129      0
Name: 71, dtype: object

>  <hydroph_interaction:ASN:129>  (72) 
hydroph_interaction:ASN:129    0.0
hydroph_interaction:ASN:129      0
Name: 71, dtype: object

>  <halogenbond:ASN:129>  (72) 
halogenbond:ASN:129    0.0
halogenbond:ASN:129      0
Name: 71, dtype: object

>  <hbond:GLY:130>  (72) 
hbond:GLY:130    NaN
hbond:GLY:130     -1
Name: 71, dtype: object

>  <hbond:LEU:131>  (72) 
hbond:LEU:131    0.0
hbond:LEU:131      0
Name: 71, dtype: object

>  <hydroph_interaction:LEU:131>  (72) 
hydroph_interaction:LEU:131    1.0
hydroph_interaction:LEU:131      1
Name: 71, dtype: object

>  <halogenbond:LEU:131>  (72) 
halogenbond:LEU:131    NaN
halogenbond:LEU:131     -1
Name: 71, dtype: object

>  <hydroph_interaction:VAL:132>  (72) 
hydroph_interaction:VAL:132    0.0
hydroph_interaction:VAL:132      0
Name: 71, dtype: object

>  <hbond:VAL:132>  (72) 
hbond:VAL:132    0.0
hbond:VAL:132      0
Name: 71, dtype: object

>  <hbond:GLY:133>  (72) 
hbond:GLY:133    0.0
hbond:GLY:133      0
Name: 71, dtype: object

>  <halogenbond:GLY:133>  (72) 
halogenbond:GLY:133    NaN
halogenbond:GLY:133     -1
Name: 71, dtype: object

>  <hydroph_interaction:PHE:134>  (72) 
hydroph_interaction:PHE:134    0.0
hydroph_interaction:PHE:134      0
Name: 71, dtype: object

>  <hbond:PHE:134>  (72) 
hbond:PHE:134    NaN
hbond:PHE:134     -1
Name: 71, dtype: object

>  <pistack:PHE:134>  (72) 
pistack:PHE:134    NaN
pistack:PHE:134     -1
Name: 71, dtype: object

>  <pication:PHE:134>  (72) 
pication:PHE:134    NaN
pication:PHE:134     -1
Name: 71, dtype: object

>  <halogenbond:PHE:134>  (72) 
halogenbond:PHE:134    NaN
halogenbond:PHE:134     -1
Name: 71, dtype: object

>  <hydroph_interaction:ALA:135>  (72) 
hydroph_interaction:ALA:135    NaN
hydroph_interaction:ALA:135     -1
Name: 71, dtype: object

>  <hbond:ALA:135>  (72) 
hbond:ALA:135    NaN
hbond:ALA:135     -1
Name: 71, dtype: object

$$$$
PV_002731322070
     RDKit          3D

 28 28  0  0  0  0  0  0  0  0999 V2000
   12.3710   15.7910   21.5570 C   0  0  0  0  0  0  0  0  0  0  0  0
   10.9840   15.2900   21.2270 C   0  0  0  0  0  0  0  0  0  0  0  0
   10.2430   15.9370   20.4990 O   0  0  0  0  0  0  0  0  0  0  0  0
   10.6810   14.0920   21.8420 N   0  0  0  0  0  0  0  0  0  0  0  0
   10.3190   13.9780   23.2000 C   0  0  0  0  0  0  0  0  0  0  0  0
   11.2380   14.3510   24.1860 C   0  0  0  0  0  0  0  0  0  0  0  0
    9.7190   12.6300   23.5180 C   0  0  0  0  0  0  0  0  0  0  0  0
   10.2800   11.4860   23.0140 C   0  0  0  0  0  0  0  0  0  0  0  0
    9.7190   10.1680   23.3540 C   0  0  0  0  0  0  0  0  0  0  0  0
    8.5310   10.1330   24.2520 C   0  0  0  0  0  0  0  0  0  0  0  0
    8.0180   11.3320   24.7000 C   0  0  0  0  0  0  0  0  0  0  0  0
    8.5760   12.5650   24.3510 C   0  0  0  0  0  0  0  0  0  0  0  0
    7.9270   13.8080   24.8850 C   0  0  0  0  0  0  0  0  0  0  0  0
   12.3340   16.8750   21.6880 H   0  0  0  0  0  0  0  0  0  0  0  0
   12.7620   15.3260   22.4680 H   0  0  0  0  0  0  0  0  0  0  0  0
   13.0510   15.5630   20.7330 H   0  0  0  0  0  0  0  0  0  0  0  0
   10.8080   13.2410   21.2860 H   0  0  0  0  0  0  0  0  0  0  0  0
    9.5020   14.6780   23.3380 H   0  0  0  0  0  0  0  0  0  0  0  0
   11.8310   15.2420   23.9960 H   0  0  0  0  0  0  0  0  0  0  0  0
   10.8550   14.5010   25.1890 H   0  0  0  0  0  0  0  0  0  0  0  0
   11.9650   13.5420   24.3040 H   0  0  0  0  0  0  0  0  0  0  0  0
   11.1400   11.5620   22.3710 H   0  0  0  0  0  0  0  0  0  0  0  0
   10.1670    9.2590   22.9580 H   0  0  0  0  0  0  0  0  0  0  0  0
    8.0800    9.1960   24.5400 H   0  0  0  0  0  0  0  0  0  0  0  0
    7.1410   11.2190   25.3450 H   0  0  0  0  0  0  0  0  0  0  0  0
    8.6780   14.4770   25.3170 H   0  0  0  0  0  0  0  0  0  0  0  0
    7.3820   14.3270   24.0900 H   0  0  0  0  0  0  0  0  0  0  0  0
    7.1990   13.5740   25.6700 H   0  0  0  0  0  0  0  0  0  0  0  0
  1  2  1  0
  2  3  2  0
  2  4  1  0
  4  5  1  0
  5  6  1  0
  5  7  1  0
  7  8  2  0
  8  9  1  0
  9 10  2  0
 10 11  1  0
 11 12  2  0
 12 13  1  0
 12  7  1  0
  1 14  1  0
  1 15  1  0
  1 16  1  0
  4 17  1  0
  5 18  1  0
  6 19  1  0
  6 20  1  0
  6 21  1  0
  8 22  1  0
  9 23  1  0
 10 24  1  0
 11 25  1  0
 13 26  1  0
 13 27  1  0
 13 28  1  0
A    1
 C1 
A    2
 C2 
A    3
 O1 
A    4
 N1 
A    5
 C3 
A    6
 C4 
A    7
 C5 
A    8
 C6 
A    9
 C7 
A   10
 C8 
A   11
 C9 
A   12
 C10
A   13
 C11
A   14
 H1 
A   15
 H2 
A   16
 H3 
A   17
 H4 
A   18
 H5 
A   19
 H6 
A   20
 H7 
A   21
 H8 
A   22
 H9 
A   23
 H10
A   24
 H11
A   25
 H12
A   26
 H13
A   27
 H14
A   28
 H15
M  END
>  <ref_pdb>  (73) 
x0310_0A

>  <ref_mols>  (73) 
x0732_0A,x0528_0A

>  <original SMILES>  (73) 
CC(=O)NC(C)c1ccccc1C

>  <rationale>  (73) 
info halogenbond:G127+D39+A86+S125+E85+Q95+E106+E88+T126+P107+H104+Y64+C65+S87+N129+F83+R93+L131+I82+G128+P91+N19+H21+V84+G133+Y90+Y89+H97+L81+F134+L98+R20+G103+S66+S67+S7+G108+R38+V124+M99+S36; hbond:S87+S125+Y90+Q95+D39+C110+D109+G108+G103+G128+G130+L131+N129+N19+H104+R68+V124+R93+P91+F83+S67+S7+S66+G112+G133+V132+R20+Y89+S77+A135+Y63+A92+A101+M99+F134+L100+I82+Y64+S36+L98+V84+L81+Y94+S80+R38+S37+V102+G8+I123+G111+I113+L114+C65+L22+S96; hydroph_interaction:Y90+Y89+T126+H21+P107+L22+E106+E88+N129+D39+N19+L40+I123+A135+Q95+I82+L100+L98+L131+F83+R93+V132+Y63+F134+H104+R20+A86+V74+P91+A101+F76+M99+L114+A92+Y94+R68+Y72+Y64+V18+V102+W28+G127+G128+L81; pication:H21+H104+R93+Y63+F134+Y90+R68+F83+R20; pistack:H21+Y89+Y90+H104+F134+Y63+F83+Y94; saltbridge:R93+H104+E106+D109+E85+E88+R68+R20; 

>  <intxn_cluster>  (73) 
-1

>  <intxn_cluster_rank>  (73) 
-1

>  <N_interactions>  (73) 
6

>  <∆∆G>  (73) 
-9.557995

>  <$/mg>  (73) 
163.0

>  <comRMSD>  (73) 
0.879718

>  <N_rotatable_bonds>  (73) 
5

>  <deep_P1_sidechain>  (73) 
nan

>  <farthest_distance_to_substrate>  (73) 
2.261698

>  <hbond:SER:7>  (73) 
hbond:SER:7    NaN
hbond:SER:7     -1
Name: 72, dtype: object

>  <halogenbond:SER:7>  (73) 
halogenbond:SER:7    NaN
halogenbond:SER:7     -1
Name: 72, dtype: object

>  <hbond:GLY:8>  (73) 
hbond:GLY:8    NaN
hbond:GLY:8     -1
Name: 72, dtype: object

>  <hydroph_interaction:VAL:18>  (73) 
hydroph_interaction:VAL:18    NaN
hydroph_interaction:VAL:18     -1
Name: 72, dtype: object

>  <hbond:ASN:19>  (73) 
hbond:ASN:19    NaN
hbond:ASN:19     -1
Name: 72, dtype: object

>  <hydroph_interaction:ASN:19>  (73) 
hydroph_interaction:ASN:19    NaN
hydroph_interaction:ASN:19     -1
Name: 72, dtype: object

>  <halogenbond:ASN:19>  (73) 
halogenbond:ASN:19    NaN
halogenbond:ASN:19     -1
Name: 72, dtype: object

>  <hbond:ARG:20>  (73) 
hbond:ARG:20    NaN
hbond:ARG:20     -1
Name: 72, dtype: object

>  <hydroph_interaction:ARG:20>  (73) 
hydroph_interaction:ARG:20    NaN
hydroph_interaction:ARG:20     -1
Name: 72, dtype: object

>  <saltbridge:ARG:20>  (73) 
saltbridge:ARG:20    NaN
saltbridge:ARG:20     -1
Name: 72, dtype: object

>  <halogenbond:ARG:20>  (73) 
halogenbond:ARG:20    NaN
halogenbond:ARG:20     -1
Name: 72, dtype: object

>  <pication:ARG:20>  (73) 
pication:ARG:20    NaN
pication:ARG:20     -1
Name: 72, dtype: object

>  <hbond:HIS:21>  (73) 
hbond:HIS:21    0.0
hbond:HIS:21      0
Name: 72, dtype: object

>  <hydroph_interaction:HIS:21>  (73) 
hydroph_interaction:HIS:21    NaN
hydroph_interaction:HIS:21     -1
Name: 72, dtype: object

>  <pistack:HIS:21>  (73) 
pistack:HIS:21    NaN
pistack:HIS:21     -1
Name: 72, dtype: object

>  <pication:HIS:21>  (73) 
pication:HIS:21    NaN
pication:HIS:21     -1
Name: 72, dtype: object

>  <saltbridge:HIS:21>  (73) 
saltbridge:HIS:21    0.0
saltbridge:HIS:21      0
Name: 72, dtype: object

>  <halogenbond:HIS:21>  (73) 
halogenbond:HIS:21    NaN
halogenbond:HIS:21     -1
Name: 72, dtype: object

>  <hydroph_interaction:LEU:22>  (73) 
hydroph_interaction:LEU:22    NaN
hydroph_interaction:LEU:22     -1
Name: 72, dtype: object

>  <hbond:LEU:22>  (73) 
hbond:LEU:22    NaN
hbond:LEU:22     -1
Name: 72, dtype: object

>  <hydroph_interaction:TRP:28>  (73) 
hydroph_interaction:TRP:28    NaN
hydroph_interaction:TRP:28     -1
Name: 72, dtype: object

>  <hbond:SER:36>  (73) 
hbond:SER:36    NaN
hbond:SER:36     -1
Name: 72, dtype: object

>  <halogenbond:SER:36>  (73) 
halogenbond:SER:36    NaN
halogenbond:SER:36     -1
Name: 72, dtype: object

>  <hbond:SER:37>  (73) 
hbond:SER:37    NaN
hbond:SER:37     -1
Name: 72, dtype: object

>  <hbond:ARG:38>  (73) 
hbond:ARG:38    NaN
hbond:ARG:38     -1
Name: 72, dtype: object

>  <halogenbond:ARG:38>  (73) 
halogenbond:ARG:38    NaN
halogenbond:ARG:38     -1
Name: 72, dtype: object

>  <saltbridge:ASP:39>  (73) 
saltbridge:ASP:39    0.0
saltbridge:ASP:39      0
Name: 72, dtype: object

>  <halogenbond:ASP:39>  (73) 
halogenbond:ASP:39    NaN
halogenbond:ASP:39     -1
Name: 72, dtype: object

>  <hbond:ASP:39>  (73) 
hbond:ASP:39    NaN
hbond:ASP:39     -1
Name: 72, dtype: object

>  <hydroph_interaction:ASP:39>  (73) 
hydroph_interaction:ASP:39    NaN
hydroph_interaction:ASP:39     -1
Name: 72, dtype: object

>  <hydroph_interaction:LEU:40>  (73) 
hydroph_interaction:LEU:40    NaN
hydroph_interaction:LEU:40     -1
Name: 72, dtype: object

>  <hydroph_interaction:TYR:63>  (73) 
hydroph_interaction:TYR:63    NaN
hydroph_interaction:TYR:63     -1
Name: 72, dtype: object

>  <hbond:TYR:63>  (73) 
hbond:TYR:63    NaN
hbond:TYR:63     -1
Name: 72, dtype: object

>  <pistack:TYR:63>  (73) 
pistack:TYR:63    NaN
pistack:TYR:63     -1
Name: 72, dtype: object

>  <pication:TYR:63>  (73) 
pication:TYR:63    NaN
pication:TYR:63     -1
Name: 72, dtype: object

>  <halogenbond:TYR:64>  (73) 
halogenbond:TYR:64    NaN
halogenbond:TYR:64     -1
Name: 72, dtype: object

>  <hbond:TYR:64>  (73) 
hbond:TYR:64    NaN
hbond:TYR:64     -1
Name: 72, dtype: object

>  <hydroph_interaction:TYR:64>  (73) 
hydroph_interaction:TYR:64    NaN
hydroph_interaction:TYR:64     -1
Name: 72, dtype: object

>  <halogenbond:CYS:65>  (73) 
halogenbond:CYS:65    NaN
halogenbond:CYS:65     -1
Name: 72, dtype: object

>  <hbond:CYS:65>  (73) 
hbond:CYS:65    NaN
hbond:CYS:65     -1
Name: 72, dtype: object

>  <hbond:SER:66>  (73) 
hbond:SER:66    NaN
hbond:SER:66     -1
Name: 72, dtype: object

>  <halogenbond:SER:66>  (73) 
halogenbond:SER:66    NaN
halogenbond:SER:66     -1
Name: 72, dtype: object

>  <hbond:SER:67>  (73) 
hbond:SER:67    NaN
hbond:SER:67     -1
Name: 72, dtype: object

>  <halogenbond:SER:67>  (73) 
halogenbond:SER:67    NaN
halogenbond:SER:67     -1
Name: 72, dtype: object

>  <hbond:ARG:68>  (73) 
hbond:ARG:68    NaN
hbond:ARG:68     -1
Name: 72, dtype: object

>  <saltbridge:ARG:68>  (73) 
saltbridge:ARG:68    NaN
saltbridge:ARG:68     -1
Name: 72, dtype: object

>  <hydroph_interaction:ARG:68>  (73) 
hydroph_interaction:ARG:68    NaN
hydroph_interaction:ARG:68     -1
Name: 72, dtype: object

>  <pication:ARG:68>  (73) 
pication:ARG:68    NaN
pication:ARG:68     -1
Name: 72, dtype: object

>  <hydroph_interaction:TYR:72>  (73) 
hydroph_interaction:TYR:72    NaN
hydroph_interaction:TYR:72     -1
Name: 72, dtype: object

>  <hydroph_interaction:VAL:74>  (73) 
hydroph_interaction:VAL:74    NaN
hydroph_interaction:VAL:74     -1
Name: 72, dtype: object

>  <hydroph_interaction:PHE:76>  (73) 
hydroph_interaction:PHE:76    NaN
hydroph_interaction:PHE:76     -1
Name: 72, dtype: object

>  <hbond:SER:77>  (73) 
hbond:SER:77    NaN
hbond:SER:77     -1
Name: 72, dtype: object

>  <hbond:SER:80>  (73) 
hbond:SER:80    NaN
hbond:SER:80     -1
Name: 72, dtype: object

>  <hbond:LEU:81>  (73) 
hbond:LEU:81    NaN
hbond:LEU:81     -1
Name: 72, dtype: object

>  <halogenbond:LEU:81>  (73) 
halogenbond:LEU:81    NaN
halogenbond:LEU:81     -1
Name: 72, dtype: object

>  <hydroph_interaction:LEU:81>  (73) 
hydroph_interaction:LEU:81    NaN
hydroph_interaction:LEU:81     -1
Name: 72, dtype: object

>  <hydroph_interaction:ILE:82>  (73) 
hydroph_interaction:ILE:82    NaN
hydroph_interaction:ILE:82     -1
Name: 72, dtype: object

>  <halogenbond:ILE:82>  (73) 
halogenbond:ILE:82    NaN
halogenbond:ILE:82     -1
Name: 72, dtype: object

>  <hbond:ILE:82>  (73) 
hbond:ILE:82    NaN
hbond:ILE:82     -1
Name: 72, dtype: object

>  <hbond:PHE:83>  (73) 
hbond:PHE:83    NaN
hbond:PHE:83     -1
Name: 72, dtype: object

>  <hydroph_interaction:PHE:83>  (73) 
hydroph_interaction:PHE:83    NaN
hydroph_interaction:PHE:83     -1
Name: 72, dtype: object

>  <halogenbond:PHE:83>  (73) 
halogenbond:PHE:83    NaN
halogenbond:PHE:83     -1
Name: 72, dtype: object

>  <pistack:PHE:83>  (73) 
pistack:PHE:83    NaN
pistack:PHE:83     -1
Name: 72, dtype: object

>  <pication:PHE:83>  (73) 
pication:PHE:83    NaN
pication:PHE:83     -1
Name: 72, dtype: object

>  <hydroph_interaction:VAL:84>  (73) 
hydroph_interaction:VAL:84    0.0
hydroph_interaction:VAL:84      0
Name: 72, dtype: object

>  <halogenbond:VAL:84>  (73) 
halogenbond:VAL:84    NaN
halogenbond:VAL:84     -1
Name: 72, dtype: object

>  <hbond:VAL:84>  (73) 
hbond:VAL:84    NaN
hbond:VAL:84     -1
Name: 72, dtype: object

>  <hydroph_interaction:GLU:85>  (73) 
hydroph_interaction:GLU:85    0.0
hydroph_interaction:GLU:85      0
Name: 72, dtype: object

>  <hbond:GLU:85>  (73) 
hbond:GLU:85    0.0
hbond:GLU:85      0
Name: 72, dtype: object

>  <halogenbond:GLU:85>  (73) 
halogenbond:GLU:85    NaN
halogenbond:GLU:85     -1
Name: 72, dtype: object

>  <saltbridge:GLU:85>  (73) 
saltbridge:GLU:85    NaN
saltbridge:GLU:85     -1
Name: 72, dtype: object

>  <halogenbond:ALA:86>  (73) 
halogenbond:ALA:86    NaN
halogenbond:ALA:86     -1
Name: 72, dtype: object

>  <hbond:ALA:86>  (73) 
hbond:ALA:86    0.0
hbond:ALA:86      0
Name: 72, dtype: object

>  <hydroph_interaction:ALA:86>  (73) 
hydroph_interaction:ALA:86    NaN
hydroph_interaction:ALA:86     -1
Name: 72, dtype: object

>  <hbond:SER:87>  (73) 
hbond:SER:87    1
hbond:SER:87    1
Name: 72, dtype: object

>  <halogenbond:SER:87>  (73) 
halogenbond:SER:87    NaN
halogenbond:SER:87     -1
Name: 72, dtype: object

>  <hbond:GLU:88>  (73) 
hbond:GLU:88    0.0
hbond:GLU:88      0
Name: 72, dtype: object

>  <hydroph_interaction:GLU:88>  (73) 
hydroph_interaction:GLU:88    NaN
hydroph_interaction:GLU:88     -1
Name: 72, dtype: object

>  <halogenbond:GLU:88>  (73) 
halogenbond:GLU:88    NaN
halogenbond:GLU:88     -1
Name: 72, dtype: object

>  <saltbridge:GLU:88>  (73) 
saltbridge:GLU:88    NaN
saltbridge:GLU:88     -1
Name: 72, dtype: object

>  <hydroph_interaction:TYR:89>  (73) 
hydroph_interaction:TYR:89    1.0
hydroph_interaction:TYR:89      1
Name: 72, dtype: object

>  <pistack:TYR:89>  (73) 
pistack:TYR:89    NaN
pistack:TYR:89     -1
Name: 72, dtype: object

>  <hbond:TYR:89>  (73) 
hbond:TYR:89    NaN
hbond:TYR:89     -1
Name: 72, dtype: object

>  <halogenbond:TYR:89>  (73) 
halogenbond:TYR:89    NaN
halogenbond:TYR:89     -1
Name: 72, dtype: object

>  <hydroph_interaction:TYR:90>  (73) 
hydroph_interaction:TYR:90    1.0
hydroph_interaction:TYR:90      1
Name: 72, dtype: object

>  <hbond:TYR:90>  (73) 
hbond:TYR:90    NaN
hbond:TYR:90     -1
Name: 72, dtype: object

>  <pistack:TYR:90>  (73) 
pistack:TYR:90    NaN
pistack:TYR:90     -1
Name: 72, dtype: object

>  <halogenbond:TYR:90>  (73) 
halogenbond:TYR:90    NaN
halogenbond:TYR:90     -1
Name: 72, dtype: object

>  <pication:TYR:90>  (73) 
pication:TYR:90    NaN
pication:TYR:90     -1
Name: 72, dtype: object

>  <hbond:PRO:91>  (73) 
hbond:PRO:91    NaN
hbond:PRO:91     -1
Name: 72, dtype: object

>  <hydroph_interaction:PRO:91>  (73) 
hydroph_interaction:PRO:91    NaN
hydroph_interaction:PRO:91     -1
Name: 72, dtype: object

>  <halogenbond:PRO:91>  (73) 
halogenbond:PRO:91    NaN
halogenbond:PRO:91     -1
Name: 72, dtype: object

>  <hbond:ALA:92>  (73) 
hbond:ALA:92    NaN
hbond:ALA:92     -1
Name: 72, dtype: object

>  <hydroph_interaction:ALA:92>  (73) 
hydroph_interaction:ALA:92    NaN
hydroph_interaction:ALA:92     -1
Name: 72, dtype: object

>  <saltbridge:ARG:93>  (73) 
saltbridge:ARG:93    NaN
saltbridge:ARG:93     -1
Name: 72, dtype: object

>  <hbond:ARG:93>  (73) 
hbond:ARG:93    NaN
hbond:ARG:93     -1
Name: 72, dtype: object

>  <hydroph_interaction:ARG:93>  (73) 
hydroph_interaction:ARG:93    NaN
hydroph_interaction:ARG:93     -1
Name: 72, dtype: object

>  <halogenbond:ARG:93>  (73) 
halogenbond:ARG:93    NaN
halogenbond:ARG:93     -1
Name: 72, dtype: object

>  <pication:ARG:93>  (73) 
pication:ARG:93    NaN
pication:ARG:93     -1
Name: 72, dtype: object

>  <hydroph_interaction:TYR:94>  (73) 
hydroph_interaction:TYR:94    NaN
hydroph_interaction:TYR:94     -1
Name: 72, dtype: object

>  <pistack:TYR:94>  (73) 
pistack:TYR:94    NaN
pistack:TYR:94     -1
Name: 72, dtype: object

>  <hbond:TYR:94>  (73) 
hbond:TYR:94    NaN
hbond:TYR:94     -1
Name: 72, dtype: object

>  <hbond:GLN:95>  (73) 
hbond:GLN:95    NaN
hbond:GLN:95     -1
Name: 72, dtype: object

>  <hydroph_interaction:GLN:95>  (73) 
hydroph_interaction:GLN:95    NaN
hydroph_interaction:GLN:95     -1
Name: 72, dtype: object

>  <halogenbond:GLN:95>  (73) 
halogenbond:GLN:95    NaN
halogenbond:GLN:95     -1
Name: 72, dtype: object

>  <hbond:SER:96>  (73) 
hbond:SER:96    NaN
hbond:SER:96     -1
Name: 72, dtype: object

>  <halogenbond:HIS:97>  (73) 
halogenbond:HIS:97    NaN
halogenbond:HIS:97     -1
Name: 72, dtype: object

>  <hydroph_interaction:LEU:98>  (73) 
hydroph_interaction:LEU:98    NaN
hydroph_interaction:LEU:98     -1
Name: 72, dtype: object

>  <hbond:LEU:98>  (73) 
hbond:LEU:98    NaN
hbond:LEU:98     -1
Name: 72, dtype: object

>  <halogenbond:LEU:98>  (73) 
halogenbond:LEU:98    NaN
halogenbond:LEU:98     -1
Name: 72, dtype: object

>  <hbond:MET:99>  (73) 
hbond:MET:99    NaN
hbond:MET:99     -1
Name: 72, dtype: object

>  <hydroph_interaction:MET:99>  (73) 
hydroph_interaction:MET:99    NaN
hydroph_interaction:MET:99     -1
Name: 72, dtype: object

>  <halogenbond:MET:99>  (73) 
halogenbond:MET:99    NaN
halogenbond:MET:99     -1
Name: 72, dtype: object

>  <hydroph_interaction:LEU:100>  (73) 
hydroph_interaction:LEU:100    NaN
hydroph_interaction:LEU:100     -1
Name: 72, dtype: object

>  <hbond:LEU:100>  (73) 
hbond:LEU:100    NaN
hbond:LEU:100     -1
Name: 72, dtype: object

>  <hbond:ALA:101>  (73) 
hbond:ALA:101    NaN
hbond:ALA:101     -1
Name: 72, dtype: object

>  <hydroph_interaction:ALA:101>  (73) 
hydroph_interaction:ALA:101    NaN
hydroph_interaction:ALA:101     -1
Name: 72, dtype: object

>  <hydroph_interaction:VAL:102>  (73) 
hydroph_interaction:VAL:102    NaN
hydroph_interaction:VAL:102     -1
Name: 72, dtype: object

>  <hbond:VAL:102>  (73) 
hbond:VAL:102    NaN
hbond:VAL:102     -1
Name: 72, dtype: object

>  <hbond:GLY:103>  (73) 
hbond:GLY:103    NaN
hbond:GLY:103     -1
Name: 72, dtype: object

>  <halogenbond:GLY:103>  (73) 
halogenbond:GLY:103    NaN
halogenbond:GLY:103     -1
Name: 72, dtype: object

>  <hbond:HIS:104>  (73) 
hbond:HIS:104    NaN
hbond:HIS:104     -1
Name: 72, dtype: object

>  <saltbridge:HIS:104>  (73) 
saltbridge:HIS:104    NaN
saltbridge:HIS:104     -1
Name: 72, dtype: object

>  <pication:HIS:104>  (73) 
pication:HIS:104    NaN
pication:HIS:104     -1
Name: 72, dtype: object

>  <halogenbond:HIS:104>  (73) 
halogenbond:HIS:104    NaN
halogenbond:HIS:104     -1
Name: 72, dtype: object

>  <hydroph_interaction:HIS:104>  (73) 
hydroph_interaction:HIS:104    NaN
hydroph_interaction:HIS:104     -1
Name: 72, dtype: object

>  <pistack:HIS:104>  (73) 
pistack:HIS:104    NaN
pistack:HIS:104     -1
Name: 72, dtype: object

>  <halogenbond:SER:105>  (73) 
halogenbond:SER:105    0.0
halogenbond:SER:105      0
Name: 72, dtype: object

>  <hbond:SER:105>  (73) 
hbond:SER:105    0.0
hbond:SER:105      0
Name: 72, dtype: object

>  <hbond:GLU:106>  (73) 
hbond:GLU:106    0.0
hbond:GLU:106      0
Name: 72, dtype: object

>  <hydroph_interaction:GLU:106>  (73) 
hydroph_interaction:GLU:106    NaN
hydroph_interaction:GLU:106     -1
Name: 72, dtype: object

>  <saltbridge:GLU:106>  (73) 
saltbridge:GLU:106    NaN
saltbridge:GLU:106     -1
Name: 72, dtype: object

>  <halogenbond:GLU:106>  (73) 
halogenbond:GLU:106    NaN
halogenbond:GLU:106     -1
Name: 72, dtype: object

>  <hydroph_interaction:PRO:107>  (73) 
hydroph_interaction:PRO:107    2
hydroph_interaction:PRO:107    2
Name: 72, dtype: object

>  <hbond:PRO:107>  (73) 
hbond:PRO:107    0.0
hbond:PRO:107      0
Name: 72, dtype: object

>  <halogenbond:PRO:107>  (73) 
halogenbond:PRO:107    NaN
halogenbond:PRO:107     -1
Name: 72, dtype: object

>  <hbond:GLY:108>  (73) 
hbond:GLY:108    NaN
hbond:GLY:108     -1
Name: 72, dtype: object

>  <halogenbond:GLY:108>  (73) 
halogenbond:GLY:108    NaN
halogenbond:GLY:108     -1
Name: 72, dtype: object

>  <hbond:ASP:109>  (73) 
hbond:ASP:109    NaN
hbond:ASP:109     -1
Name: 72, dtype: object

>  <hydroph_interaction:ASP:109>  (73) 
hydroph_interaction:ASP:109    0.0
hydroph_interaction:ASP:109      0
Name: 72, dtype: object

>  <saltbridge:ASP:109>  (73) 
saltbridge:ASP:109    NaN
saltbridge:ASP:109     -1
Name: 72, dtype: object

>  <halogenbond:CYS:110>  (73) 
halogenbond:CYS:110    0.0
halogenbond:CYS:110      0
Name: 72, dtype: object

>  <hbond:CYS:110>  (73) 
hbond:CYS:110    NaN
hbond:CYS:110     -1
Name: 72, dtype: object

>  <hbond:GLY:111>  (73) 
hbond:GLY:111    NaN
hbond:GLY:111     -1
Name: 72, dtype: object

>  <hbond:GLY:112>  (73) 
hbond:GLY:112    NaN
hbond:GLY:112     -1
Name: 72, dtype: object

>  <hbond:ILE:113>  (73) 
hbond:ILE:113    NaN
hbond:ILE:113     -1
Name: 72, dtype: object

>  <hydroph_interaction:LEU:114>  (73) 
hydroph_interaction:LEU:114    NaN
hydroph_interaction:LEU:114     -1
Name: 72, dtype: object

>  <hbond:LEU:114>  (73) 
hbond:LEU:114    NaN
hbond:LEU:114     -1
Name: 72, dtype: object

>  <hydroph_interaction:ILE:123>  (73) 
hydroph_interaction:ILE:123    NaN
hydroph_interaction:ILE:123     -1
Name: 72, dtype: object

>  <hbond:ILE:123>  (73) 
hbond:ILE:123    NaN
hbond:ILE:123     -1
Name: 72, dtype: object

>  <hydroph_interaction:VAL:124>  (73) 
hydroph_interaction:VAL:124    0.0
hydroph_interaction:VAL:124      0
Name: 72, dtype: object

>  <hbond:VAL:124>  (73) 
hbond:VAL:124    NaN
hbond:VAL:124     -1
Name: 72, dtype: object

>  <halogenbond:VAL:124>  (73) 
halogenbond:VAL:124    NaN
halogenbond:VAL:124     -1
Name: 72, dtype: object

>  <hbond:SER:125>  (73) 
hbond:SER:125    1
hbond:SER:125    1
Name: 72, dtype: object

>  <halogenbond:SER:125>  (73) 
halogenbond:SER:125    NaN
halogenbond:SER:125     -1
Name: 72, dtype: object

>  <hydroph_interaction:THR:126>  (73) 
hydroph_interaction:THR:126    NaN
hydroph_interaction:THR:126     -1
Name: 72, dtype: object

>  <hbond:THR:126>  (73) 
hbond:THR:126    0.0
hbond:THR:126      0
Name: 72, dtype: object

>  <halogenbond:THR:126>  (73) 
halogenbond:THR:126    NaN
halogenbond:THR:126     -1
Name: 72, dtype: object

>  <hbond:GLY:127>  (73) 
hbond:GLY:127    0
hbond:GLY:127    0
Name: 72, dtype: object

>  <halogenbond:GLY:127>  (73) 
halogenbond:GLY:127    NaN
halogenbond:GLY:127     -1
Name: 72, dtype: object

>  <hydroph_interaction:GLY:127>  (73) 
hydroph_interaction:GLY:127    NaN
hydroph_interaction:GLY:127     -1
Name: 72, dtype: object

>  <hbond:GLY:128>  (73) 
hbond:GLY:128    NaN
hbond:GLY:128     -1
Name: 72, dtype: object

>  <halogenbond:GLY:128>  (73) 
halogenbond:GLY:128    NaN
halogenbond:GLY:128     -1
Name: 72, dtype: object

>  <hydroph_interaction:GLY:128>  (73) 
hydroph_interaction:GLY:128    NaN
hydroph_interaction:GLY:128     -1
Name: 72, dtype: object

>  <hbond:ASN:129>  (73) 
hbond:ASN:129    NaN
hbond:ASN:129     -1
Name: 72, dtype: object

>  <hydroph_interaction:ASN:129>  (73) 
hydroph_interaction:ASN:129    NaN
hydroph_interaction:ASN:129     -1
Name: 72, dtype: object

>  <halogenbond:ASN:129>  (73) 
halogenbond:ASN:129    NaN
halogenbond:ASN:129     -1
Name: 72, dtype: object

>  <hbond:GLY:130>  (73) 
hbond:GLY:130    NaN
hbond:GLY:130     -1
Name: 72, dtype: object

>  <hbond:LEU:131>  (73) 
hbond:LEU:131    NaN
hbond:LEU:131     -1
Name: 72, dtype: object

>  <hydroph_interaction:LEU:131>  (73) 
hydroph_interaction:LEU:131    NaN
hydroph_interaction:LEU:131     -1
Name: 72, dtype: object

>  <halogenbond:LEU:131>  (73) 
halogenbond:LEU:131    NaN
halogenbond:LEU:131     -1
Name: 72, dtype: object

>  <hydroph_interaction:VAL:132>  (73) 
hydroph_interaction:VAL:132    NaN
hydroph_interaction:VAL:132     -1
Name: 72, dtype: object

>  <hbond:VAL:132>  (73) 
hbond:VAL:132    NaN
hbond:VAL:132     -1
Name: 72, dtype: object

>  <hbond:GLY:133>  (73) 
hbond:GLY:133    NaN
hbond:GLY:133     -1
Name: 72, dtype: object

>  <halogenbond:GLY:133>  (73) 
halogenbond:GLY:133    NaN
halogenbond:GLY:133     -1
Name: 72, dtype: object

>  <hydroph_interaction:PHE:134>  (73) 
hydroph_interaction:PHE:134    NaN
hydroph_interaction:PHE:134     -1
Name: 72, dtype: object

>  <hbond:PHE:134>  (73) 
hbond:PHE:134    NaN
hbond:PHE:134     -1
Name: 72, dtype: object

>  <pistack:PHE:134>  (73) 
pistack:PHE:134    NaN
pistack:PHE:134     -1
Name: 72, dtype: object

>  <pication:PHE:134>  (73) 
pication:PHE:134    NaN
pication:PHE:134     -1
Name: 72, dtype: object

>  <halogenbond:PHE:134>  (73) 
halogenbond:PHE:134    NaN
halogenbond:PHE:134     -1
Name: 72, dtype: object

>  <hydroph_interaction:ALA:135>  (73) 
hydroph_interaction:ALA:135    NaN
hydroph_interaction:ALA:135     -1
Name: 72, dtype: object

>  <hbond:ALA:135>  (73) 
hbond:ALA:135    NaN
hbond:ALA:135     -1
Name: 72, dtype: object

$$$$
Z3712028302
     RDKit          3D

 33 33  0  0  0  0  0  0  0  0999 V2000
   12.5950   13.8120   23.6400 C   0  0  0  0  0  0  0  0  0  0  0  0
   13.0700   14.6390   22.4940 C   0  0  0  0  0  0  0  0  0  0  0  0
   12.2600   15.6390   22.0060 C   0  0  0  0  0  0  0  0  0  0  0  0
   12.9720   16.2370   20.8400 C   0  0  0  0  0  0  0  0  0  0  0  0
   10.9160   15.1240   21.5120 C   0  0  0  0  0  0  0  0  0  0  0  0
   10.2100   15.7170   20.6970 O   0  0  0  0  0  0  0  0  0  0  0  0
   10.5450   13.9310   22.0770 N   0  0  0  0  0  0  0  0  0  0  0  0
    9.7310   13.9170   23.2840 C   0  0  0  0  0  0  0  0  0  0  0  0
    9.3530   12.6350   23.6280 C   0  0  0  0  0  0  0  0  0  0  0  0
   10.0210   11.4810   22.9140 C   0  0  0  0  0  0  0  0  0  0  0  0
    9.5010   10.1630   23.3850 C   0  0  0  0  0  0  0  0  0  0  0  0
   10.0820    8.9540   22.7380 C   0  0  0  0  0  0  0  0  0  0  0  0
    8.5230   10.1190   24.3710 C   0  0  0  0  0  0  0  0  0  0  0  0
    7.9620   11.1800   24.9820 N   0  0  0  0  0  0  0  0  0  0  0  0
    8.3860   12.3950   24.5980 C   0  0  0  0  0  0  0  0  0  0  0  0
    7.8190   13.4460   25.2100 F   0  0  0  0  0  0  0  0  0  0  0  0
   12.0950   14.4380   24.3840 H   0  0  0  0  0  0  0  0  0  0  0  0
   11.9200   13.0210   23.3020 H   0  0  0  0  0  0  0  0  0  0  0  0
   13.4350   13.3180   24.1430 H   0  0  0  0  0  0  0  0  0  0  0  0
   13.3070   13.9540   21.6720 H   0  0  0  0  0  0  0  0  0  0  0  0
   14.0090   15.0990   22.8100 H   0  0  0  0  0  0  0  0  0  0  0  0
   12.0930   16.3990   22.7780 H   0  0  0  0  0  0  0  0  0  0  0  0
   14.0600   16.1430   20.9240 H   0  0  0  0  0  0  0  0  0  0  0  0
   12.6460   15.7130   19.9380 H   0  0  0  0  0  0  0  0  0  0  0  0
   12.7120   17.2980   20.7760 H   0  0  0  0  0  0  0  0  0  0  0  0
   10.6090   13.0960   21.4840 H   0  0  0  0  0  0  0  0  0  0  0  0
    8.8310   14.5210   23.1290 H   0  0  0  0  0  0  0  0  0  0  0  0
   10.3100   14.3960   24.0790 H   0  0  0  0  0  0  0  0  0  0  0  0
   10.7820   11.5990   22.1510 H   0  0  0  0  0  0  0  0  0  0  0  0
   10.5280    8.2720   23.4520 H   0  0  0  0  0  0  0  0  0  0  0  0
    9.3080    8.4260   22.1760 H   0  0  0  0  0  0  0  0  0  0  0  0
   10.8690    9.2490   22.0390 H   0  0  0  0  0  0  0  0  0  0  0  0
    8.1440    9.1720   24.7120 H   0  0  0  0  0  0  0  0  0  0  0  0
  1  2  1  0
  2  3  1  0
  3  4  1  0
  3  5  1  0
  5  6  2  0
  5  7  1  0
  7  8  1  0
  8  9  1  0
  9 10  2  0
 10 11  1  0
 11 12  1  0
 11 13  2  0
 13 14  1  0
 14 15  2  0
 15 16  1  0
 15  9  1  0
  1 17  1  0
  1 18  1  0
  1 19  1  0
  2 20  1  0
  2 21  1  0
  3 22  1  0
  4 23  1  0
  4 24  1  0
  4 25  1  0
  7 26  1  0
  8 27  1  0
  8 28  1  0
 10 29  1  0
 12 30  1  0
 12 31  1  0
 12 32  1  0
 13 33  1  0
A    1
 C1 
A    2
 C2 
A    3
 C3 
A    4
 C4 
A    5
 C5 
A    6
 O1 
A    7
 N1 
A    8
 C6 
A    9
 C7 
A   10
 C8 
A   11
 C9 
A   12
 C10
A   13
 C11
A   14
 N2 
A   15
 C12
A   16
 F1 
A   17
 H1 
A   18
 H2 
A   19
 H3 
A   20
 H4 
A   21
 H5 
A   22
 H6 
A   23
 H7 
A   24
 H8 
A   25
 H9 
A   26
 H10
A   27
 H11
A   28
 H12
A   29
 H13
A   30
 H14
A   31
 H15
A   32
 H16
A   33
 H17
M  END
>  <ref_pdb>  (74) 
x0310_0A

>  <ref_mols>  (74) 
x0416_0A,x0528_0A

>  <original SMILES>  (74) 
CCC(C)C(=O)NCc1cc(C)cnc1F

>  <rationale>  (74) 
info halogenbond:G127+D39+A86+E85+E106+E88+T126+P107+Y64+C65+N129+F83+R93+L131+I82+G128+P91+N19+H21+V84+G133+Y90+Y89+H97+L81+F134+L98+R20+G103+S66+S67+S7+G108+R38+V124+M99+S36; hbond:S87+S125+T126+A86+E85+G103+G128+G130+L131+N129+H104+R68+V124+R93+P91+F83+S7+S66+G112+G133+V132+R20+Y89+S77+A135+Y63+A92+A101+M99+F134+L100+I82+Y64+S36+L98+V84+L81+Y94+S80+R38+S37+V102+G8+I123+G111+I113+L114+C65+L22+S96; hydroph_interaction:V124+Y90+Y89+P107+L22+E106+E88+N129+N19+L40+I123+A135+I82+L100+L98+L131+F83+R93+V132+Y63+F134+H104+R20+A86+V74+P91+A101+F76+M99+L114+A92+Y94+R68+Y72+Y64+V18+V102+W28+G127+G128+L81; pication:H104+Y63+F134+Y90+R68+F83+R20; pistack:H21+Y89+H104+F134+Y63+F83+Y94; saltbridge:R93+H104+E106+D109+E85+E88+R68+R20; 

>  <intxn_cluster>  (74) 
-1

>  <intxn_cluster_rank>  (74) 
-1

>  <N_interactions>  (74) 
6

>  <∆∆G>  (74) 
-12.008848

>  <$/mg>  (74) 
0.0

>  <comRMSD>  (74) 
0.597022

>  <N_rotatable_bonds>  (74) 
7

>  <deep_P1_sidechain>  (74) 
nan

>  <farthest_distance_to_substrate>  (74) 
2.286107

>  <hbond:SER:7>  (74) 
hbond:SER:7    NaN
hbond:SER:7     -1
Name: 73, dtype: object

>  <halogenbond:SER:7>  (74) 
halogenbond:SER:7    NaN
halogenbond:SER:7     -1
Name: 73, dtype: object

>  <hbond:GLY:8>  (74) 
hbond:GLY:8    NaN
hbond:GLY:8     -1
Name: 73, dtype: object

>  <hydroph_interaction:VAL:18>  (74) 
hydroph_interaction:VAL:18    NaN
hydroph_interaction:VAL:18     -1
Name: 73, dtype: object

>  <hbond:ASN:19>  (74) 
hbond:ASN:19    0.0
hbond:ASN:19      0
Name: 73, dtype: object

>  <hydroph_interaction:ASN:19>  (74) 
hydroph_interaction:ASN:19    NaN
hydroph_interaction:ASN:19     -1
Name: 73, dtype: object

>  <halogenbond:ASN:19>  (74) 
halogenbond:ASN:19    NaN
halogenbond:ASN:19     -1
Name: 73, dtype: object

>  <hbond:ARG:20>  (74) 
hbond:ARG:20    NaN
hbond:ARG:20     -1
Name: 73, dtype: object

>  <hydroph_interaction:ARG:20>  (74) 
hydroph_interaction:ARG:20    NaN
hydroph_interaction:ARG:20     -1
Name: 73, dtype: object

>  <saltbridge:ARG:20>  (74) 
saltbridge:ARG:20    NaN
saltbridge:ARG:20     -1
Name: 73, dtype: object

>  <halogenbond:ARG:20>  (74) 
halogenbond:ARG:20    NaN
halogenbond:ARG:20     -1
Name: 73, dtype: object

>  <pication:ARG:20>  (74) 
pication:ARG:20    NaN
pication:ARG:20     -1
Name: 73, dtype: object

>  <hbond:HIS:21>  (74) 
hbond:HIS:21    0.0
hbond:HIS:21      0
Name: 73, dtype: object

>  <hydroph_interaction:HIS:21>  (74) 
hydroph_interaction:HIS:21    0.0
hydroph_interaction:HIS:21      0
Name: 73, dtype: object

>  <pistack:HIS:21>  (74) 
pistack:HIS:21    NaN
pistack:HIS:21     -1
Name: 73, dtype: object

>  <pication:HIS:21>  (74) 
pication:HIS:21    0.0
pication:HIS:21      0
Name: 73, dtype: object

>  <saltbridge:HIS:21>  (74) 
saltbridge:HIS:21    0.0
saltbridge:HIS:21      0
Name: 73, dtype: object

>  <halogenbond:HIS:21>  (74) 
halogenbond:HIS:21    NaN
halogenbond:HIS:21     -1
Name: 73, dtype: object

>  <hydroph_interaction:LEU:22>  (74) 
hydroph_interaction:LEU:22    NaN
hydroph_interaction:LEU:22     -1
Name: 73, dtype: object

>  <hbond:LEU:22>  (74) 
hbond:LEU:22    NaN
hbond:LEU:22     -1
Name: 73, dtype: object

>  <hydroph_interaction:TRP:28>  (74) 
hydroph_interaction:TRP:28    NaN
hydroph_interaction:TRP:28     -1
Name: 73, dtype: object

>  <hbond:SER:36>  (74) 
hbond:SER:36    NaN
hbond:SER:36     -1
Name: 73, dtype: object

>  <halogenbond:SER:36>  (74) 
halogenbond:SER:36    NaN
halogenbond:SER:36     -1
Name: 73, dtype: object

>  <hbond:SER:37>  (74) 
hbond:SER:37    NaN
hbond:SER:37     -1
Name: 73, dtype: object

>  <hbond:ARG:38>  (74) 
hbond:ARG:38    NaN
hbond:ARG:38     -1
Name: 73, dtype: object

>  <halogenbond:ARG:38>  (74) 
halogenbond:ARG:38    NaN
halogenbond:ARG:38     -1
Name: 73, dtype: object

>  <saltbridge:ASP:39>  (74) 
saltbridge:ASP:39    0.0
saltbridge:ASP:39      0
Name: 73, dtype: object

>  <halogenbond:ASP:39>  (74) 
halogenbond:ASP:39    NaN
halogenbond:ASP:39     -1
Name: 73, dtype: object

>  <hbond:ASP:39>  (74) 
hbond:ASP:39    0.0
hbond:ASP:39      0
Name: 73, dtype: object

>  <hydroph_interaction:ASP:39>  (74) 
hydroph_interaction:ASP:39    0.0
hydroph_interaction:ASP:39      0
Name: 73, dtype: object

>  <hydroph_interaction:LEU:40>  (74) 
hydroph_interaction:LEU:40    NaN
hydroph_interaction:LEU:40     -1
Name: 73, dtype: object

>  <hydroph_interaction:TYR:63>  (74) 
hydroph_interaction:TYR:63    NaN
hydroph_interaction:TYR:63     -1
Name: 73, dtype: object

>  <hbond:TYR:63>  (74) 
hbond:TYR:63    NaN
hbond:TYR:63     -1
Name: 73, dtype: object

>  <pistack:TYR:63>  (74) 
pistack:TYR:63    NaN
pistack:TYR:63     -1
Name: 73, dtype: object

>  <pication:TYR:63>  (74) 
pication:TYR:63    NaN
pication:TYR:63     -1
Name: 73, dtype: object

>  <halogenbond:TYR:64>  (74) 
halogenbond:TYR:64    NaN
halogenbond:TYR:64     -1
Name: 73, dtype: object

>  <hbond:TYR:64>  (74) 
hbond:TYR:64    NaN
hbond:TYR:64     -1
Name: 73, dtype: object

>  <hydroph_interaction:TYR:64>  (74) 
hydroph_interaction:TYR:64    NaN
hydroph_interaction:TYR:64     -1
Name: 73, dtype: object

>  <halogenbond:CYS:65>  (74) 
halogenbond:CYS:65    NaN
halogenbond:CYS:65     -1
Name: 73, dtype: object

>  <hbond:CYS:65>  (74) 
hbond:CYS:65    NaN
hbond:CYS:65     -1
Name: 73, dtype: object

>  <hbond:SER:66>  (74) 
hbond:SER:66    NaN
hbond:SER:66     -1
Name: 73, dtype: object

>  <halogenbond:SER:66>  (74) 
halogenbond:SER:66    NaN
halogenbond:SER:66     -1
Name: 73, dtype: object

>  <hbond:SER:67>  (74) 
hbond:SER:67    0.0
hbond:SER:67      0
Name: 73, dtype: object

>  <halogenbond:SER:67>  (74) 
halogenbond:SER:67    NaN
halogenbond:SER:67     -1
Name: 73, dtype: object

>  <hbond:ARG:68>  (74) 
hbond:ARG:68    NaN
hbond:ARG:68     -1
Name: 73, dtype: object

>  <saltbridge:ARG:68>  (74) 
saltbridge:ARG:68    NaN
saltbridge:ARG:68     -1
Name: 73, dtype: object

>  <hydroph_interaction:ARG:68>  (74) 
hydroph_interaction:ARG:68    NaN
hydroph_interaction:ARG:68     -1
Name: 73, dtype: object

>  <pication:ARG:68>  (74) 
pication:ARG:68    NaN
pication:ARG:68     -1
Name: 73, dtype: object

>  <hydroph_interaction:TYR:72>  (74) 
hydroph_interaction:TYR:72    NaN
hydroph_interaction:TYR:72     -1
Name: 73, dtype: object

>  <hydroph_interaction:VAL:74>  (74) 
hydroph_interaction:VAL:74    NaN
hydroph_interaction:VAL:74     -1
Name: 73, dtype: object

>  <hydroph_interaction:PHE:76>  (74) 
hydroph_interaction:PHE:76    NaN
hydroph_interaction:PHE:76     -1
Name: 73, dtype: object

>  <hbond:SER:77>  (74) 
hbond:SER:77    NaN
hbond:SER:77     -1
Name: 73, dtype: object

>  <hbond:SER:80>  (74) 
hbond:SER:80    NaN
hbond:SER:80     -1
Name: 73, dtype: object

>  <hbond:LEU:81>  (74) 
hbond:LEU:81    NaN
hbond:LEU:81     -1
Name: 73, dtype: object

>  <halogenbond:LEU:81>  (74) 
halogenbond:LEU:81    NaN
halogenbond:LEU:81     -1
Name: 73, dtype: object

>  <hydroph_interaction:LEU:81>  (74) 
hydroph_interaction:LEU:81    NaN
hydroph_interaction:LEU:81     -1
Name: 73, dtype: object

>  <hydroph_interaction:ILE:82>  (74) 
hydroph_interaction:ILE:82    NaN
hydroph_interaction:ILE:82     -1
Name: 73, dtype: object

>  <halogenbond:ILE:82>  (74) 
halogenbond:ILE:82    NaN
halogenbond:ILE:82     -1
Name: 73, dtype: object

>  <hbond:ILE:82>  (74) 
hbond:ILE:82    NaN
hbond:ILE:82     -1
Name: 73, dtype: object

>  <hbond:PHE:83>  (74) 
hbond:PHE:83    NaN
hbond:PHE:83     -1
Name: 73, dtype: object

>  <hydroph_interaction:PHE:83>  (74) 
hydroph_interaction:PHE:83    NaN
hydroph_interaction:PHE:83     -1
Name: 73, dtype: object

>  <halogenbond:PHE:83>  (74) 
halogenbond:PHE:83    NaN
halogenbond:PHE:83     -1
Name: 73, dtype: object

>  <pistack:PHE:83>  (74) 
pistack:PHE:83    NaN
pistack:PHE:83     -1
Name: 73, dtype: object

>  <pication:PHE:83>  (74) 
pication:PHE:83    NaN
pication:PHE:83     -1
Name: 73, dtype: object

>  <hydroph_interaction:VAL:84>  (74) 
hydroph_interaction:VAL:84    0.0
hydroph_interaction:VAL:84      0
Name: 73, dtype: object

>  <halogenbond:VAL:84>  (74) 
halogenbond:VAL:84    NaN
halogenbond:VAL:84     -1
Name: 73, dtype: object

>  <hbond:VAL:84>  (74) 
hbond:VAL:84    NaN
hbond:VAL:84     -1
Name: 73, dtype: object

>  <hydroph_interaction:GLU:85>  (74) 
hydroph_interaction:GLU:85    0.0
hydroph_interaction:GLU:85      0
Name: 73, dtype: object

>  <hbond:GLU:85>  (74) 
hbond:GLU:85    NaN
hbond:GLU:85     -1
Name: 73, dtype: object

>  <halogenbond:GLU:85>  (74) 
halogenbond:GLU:85    NaN
halogenbond:GLU:85     -1
Name: 73, dtype: object

>  <saltbridge:GLU:85>  (74) 
saltbridge:GLU:85    NaN
saltbridge:GLU:85     -1
Name: 73, dtype: object

>  <halogenbond:ALA:86>  (74) 
halogenbond:ALA:86    NaN
halogenbond:ALA:86     -1
Name: 73, dtype: object

>  <hbond:ALA:86>  (74) 
hbond:ALA:86    NaN
hbond:ALA:86     -1
Name: 73, dtype: object

>  <hydroph_interaction:ALA:86>  (74) 
hydroph_interaction:ALA:86    NaN
hydroph_interaction:ALA:86     -1
Name: 73, dtype: object

>  <hbond:SER:87>  (74) 
hbond:SER:87    1
hbond:SER:87    1
Name: 73, dtype: object

>  <halogenbond:SER:87>  (74) 
halogenbond:SER:87    0.0
halogenbond:SER:87      0
Name: 73, dtype: object

>  <hbond:GLU:88>  (74) 
hbond:GLU:88    0.0
hbond:GLU:88      0
Name: 73, dtype: object

>  <hydroph_interaction:GLU:88>  (74) 
hydroph_interaction:GLU:88    NaN
hydroph_interaction:GLU:88     -1
Name: 73, dtype: object

>  <halogenbond:GLU:88>  (74) 
halogenbond:GLU:88    NaN
halogenbond:GLU:88     -1
Name: 73, dtype: object

>  <saltbridge:GLU:88>  (74) 
saltbridge:GLU:88    NaN
saltbridge:GLU:88     -1
Name: 73, dtype: object

>  <hydroph_interaction:TYR:89>  (74) 
hydroph_interaction:TYR:89    1.0
hydroph_interaction:TYR:89      1
Name: 73, dtype: object

>  <pistack:TYR:89>  (74) 
pistack:TYR:89    NaN
pistack:TYR:89     -1
Name: 73, dtype: object

>  <hbond:TYR:89>  (74) 
hbond:TYR:89    NaN
hbond:TYR:89     -1
Name: 73, dtype: object

>  <halogenbond:TYR:89>  (74) 
halogenbond:TYR:89    NaN
halogenbond:TYR:89     -1
Name: 73, dtype: object

>  <hydroph_interaction:TYR:90>  (74) 
hydroph_interaction:TYR:90    1.0
hydroph_interaction:TYR:90      1
Name: 73, dtype: object

>  <hbond:TYR:90>  (74) 
hbond:TYR:90    0.0
hbond:TYR:90      0
Name: 73, dtype: object

>  <pistack:TYR:90>  (74) 
pistack:TYR:90    0.0
pistack:TYR:90      0
Name: 73, dtype: object

>  <halogenbond:TYR:90>  (74) 
halogenbond:TYR:90    NaN
halogenbond:TYR:90     -1
Name: 73, dtype: object

>  <pication:TYR:90>  (74) 
pication:TYR:90    NaN
pication:TYR:90     -1
Name: 73, dtype: object

>  <hbond:PRO:91>  (74) 
hbond:PRO:91    NaN
hbond:PRO:91     -1
Name: 73, dtype: object

>  <hydroph_interaction:PRO:91>  (74) 
hydroph_interaction:PRO:91    NaN
hydroph_interaction:PRO:91     -1
Name: 73, dtype: object

>  <halogenbond:PRO:91>  (74) 
halogenbond:PRO:91    NaN
halogenbond:PRO:91     -1
Name: 73, dtype: object

>  <hbond:ALA:92>  (74) 
hbond:ALA:92    NaN
hbond:ALA:92     -1
Name: 73, dtype: object

>  <hydroph_interaction:ALA:92>  (74) 
hydroph_interaction:ALA:92    NaN
hydroph_interaction:ALA:92     -1
Name: 73, dtype: object

>  <saltbridge:ARG:93>  (74) 
saltbridge:ARG:93    NaN
saltbridge:ARG:93     -1
Name: 73, dtype: object

>  <hbond:ARG:93>  (74) 
hbond:ARG:93    NaN
hbond:ARG:93     -1
Name: 73, dtype: object

>  <hydroph_interaction:ARG:93>  (74) 
hydroph_interaction:ARG:93    NaN
hydroph_interaction:ARG:93     -1
Name: 73, dtype: object

>  <halogenbond:ARG:93>  (74) 
halogenbond:ARG:93    NaN
halogenbond:ARG:93     -1
Name: 73, dtype: object

>  <pication:ARG:93>  (74) 
pication:ARG:93    0.0
pication:ARG:93      0
Name: 73, dtype: object

>  <hydroph_interaction:TYR:94>  (74) 
hydroph_interaction:TYR:94    NaN
hydroph_interaction:TYR:94     -1
Name: 73, dtype: object

>  <pistack:TYR:94>  (74) 
pistack:TYR:94    NaN
pistack:TYR:94     -1
Name: 73, dtype: object

>  <hbond:TYR:94>  (74) 
hbond:TYR:94    NaN
hbond:TYR:94     -1
Name: 73, dtype: object

>  <hbond:GLN:95>  (74) 
hbond:GLN:95    0.0
hbond:GLN:95      0
Name: 73, dtype: object

>  <hydroph_interaction:GLN:95>  (74) 
hydroph_interaction:GLN:95    0.0
hydroph_interaction:GLN:95      0
Name: 73, dtype: object

>  <halogenbond:GLN:95>  (74) 
halogenbond:GLN:95    0.0
halogenbond:GLN:95      0
Name: 73, dtype: object

>  <hbond:SER:96>  (74) 
hbond:SER:96    NaN
hbond:SER:96     -1
Name: 73, dtype: object

>  <halogenbond:HIS:97>  (74) 
halogenbond:HIS:97    NaN
halogenbond:HIS:97     -1
Name: 73, dtype: object

>  <hydroph_interaction:LEU:98>  (74) 
hydroph_interaction:LEU:98    NaN
hydroph_interaction:LEU:98     -1
Name: 73, dtype: object

>  <hbond:LEU:98>  (74) 
hbond:LEU:98    NaN
hbond:LEU:98     -1
Name: 73, dtype: object

>  <halogenbond:LEU:98>  (74) 
halogenbond:LEU:98    NaN
halogenbond:LEU:98     -1
Name: 73, dtype: object

>  <hbond:MET:99>  (74) 
hbond:MET:99    NaN
hbond:MET:99     -1
Name: 73, dtype: object

>  <hydroph_interaction:MET:99>  (74) 
hydroph_interaction:MET:99    NaN
hydroph_interaction:MET:99     -1
Name: 73, dtype: object

>  <halogenbond:MET:99>  (74) 
halogenbond:MET:99    NaN
halogenbond:MET:99     -1
Name: 73, dtype: object

>  <hydroph_interaction:LEU:100>  (74) 
hydroph_interaction:LEU:100    NaN
hydroph_interaction:LEU:100     -1
Name: 73, dtype: object

>  <hbond:LEU:100>  (74) 
hbond:LEU:100    NaN
hbond:LEU:100     -1
Name: 73, dtype: object

>  <hbond:ALA:101>  (74) 
hbond:ALA:101    NaN
hbond:ALA:101     -1
Name: 73, dtype: object

>  <hydroph_interaction:ALA:101>  (74) 
hydroph_interaction:ALA:101    NaN
hydroph_interaction:ALA:101     -1
Name: 73, dtype: object

>  <hydroph_interaction:VAL:102>  (74) 
hydroph_interaction:VAL:102    NaN
hydroph_interaction:VAL:102     -1
Name: 73, dtype: object

>  <hbond:VAL:102>  (74) 
hbond:VAL:102    NaN
hbond:VAL:102     -1
Name: 73, dtype: object

>  <hbond:GLY:103>  (74) 
hbond:GLY:103    NaN
hbond:GLY:103     -1
Name: 73, dtype: object

>  <halogenbond:GLY:103>  (74) 
halogenbond:GLY:103    NaN
halogenbond:GLY:103     -1
Name: 73, dtype: object

>  <hbond:HIS:104>  (74) 
hbond:HIS:104    NaN
hbond:HIS:104     -1
Name: 73, dtype: object

>  <saltbridge:HIS:104>  (74) 
saltbridge:HIS:104    NaN
saltbridge:HIS:104     -1
Name: 73, dtype: object

>  <pication:HIS:104>  (74) 
pication:HIS:104    NaN
pication:HIS:104     -1
Name: 73, dtype: object

>  <halogenbond:HIS:104>  (74) 
halogenbond:HIS:104    0.0
halogenbond:HIS:104      0
Name: 73, dtype: object

>  <hydroph_interaction:HIS:104>  (74) 
hydroph_interaction:HIS:104    NaN
hydroph_interaction:HIS:104     -1
Name: 73, dtype: object

>  <pistack:HIS:104>  (74) 
pistack:HIS:104    NaN
pistack:HIS:104     -1
Name: 73, dtype: object

>  <halogenbond:SER:105>  (74) 
halogenbond:SER:105    0.0
halogenbond:SER:105      0
Name: 73, dtype: object

>  <hbond:SER:105>  (74) 
hbond:SER:105    0.0
hbond:SER:105      0
Name: 73, dtype: object

>  <hbond:GLU:106>  (74) 
hbond:GLU:106    0.0
hbond:GLU:106      0
Name: 73, dtype: object

>  <hydroph_interaction:GLU:106>  (74) 
hydroph_interaction:GLU:106    NaN
hydroph_interaction:GLU:106     -1
Name: 73, dtype: object

>  <saltbridge:GLU:106>  (74) 
saltbridge:GLU:106    NaN
saltbridge:GLU:106     -1
Name: 73, dtype: object

>  <halogenbond:GLU:106>  (74) 
halogenbond:GLU:106    NaN
halogenbond:GLU:106     -1
Name: 73, dtype: object

>  <hydroph_interaction:PRO:107>  (74) 
hydroph_interaction:PRO:107    1
hydroph_interaction:PRO:107    1
Name: 73, dtype: object

>  <hbond:PRO:107>  (74) 
hbond:PRO:107    0.0
hbond:PRO:107      0
Name: 73, dtype: object

>  <halogenbond:PRO:107>  (74) 
halogenbond:PRO:107    NaN
halogenbond:PRO:107     -1
Name: 73, dtype: object

>  <hbond:GLY:108>  (74) 
hbond:GLY:108    0.0
hbond:GLY:108      0
Name: 73, dtype: object

>  <halogenbond:GLY:108>  (74) 
halogenbond:GLY:108    NaN
halogenbond:GLY:108     -1
Name: 73, dtype: object

>  <hbond:ASP:109>  (74) 
hbond:ASP:109    0.0
hbond:ASP:109      0
Name: 73, dtype: object

>  <hydroph_interaction:ASP:109>  (74) 
hydroph_interaction:ASP:109    0.0
hydroph_interaction:ASP:109      0
Name: 73, dtype: object

>  <saltbridge:ASP:109>  (74) 
saltbridge:ASP:109    NaN
saltbridge:ASP:109     -1
Name: 73, dtype: object

>  <halogenbond:CYS:110>  (74) 
halogenbond:CYS:110    0.0
halogenbond:CYS:110      0
Name: 73, dtype: object

>  <hbond:CYS:110>  (74) 
hbond:CYS:110    0.0
hbond:CYS:110      0
Name: 73, dtype: object

>  <hbond:GLY:111>  (74) 
hbond:GLY:111    NaN
hbond:GLY:111     -1
Name: 73, dtype: object

>  <hbond:GLY:112>  (74) 
hbond:GLY:112    NaN
hbond:GLY:112     -1
Name: 73, dtype: object

>  <hbond:ILE:113>  (74) 
hbond:ILE:113    NaN
hbond:ILE:113     -1
Name: 73, dtype: object

>  <hydroph_interaction:LEU:114>  (74) 
hydroph_interaction:LEU:114    NaN
hydroph_interaction:LEU:114     -1
Name: 73, dtype: object

>  <hbond:LEU:114>  (74) 
hbond:LEU:114    NaN
hbond:LEU:114     -1
Name: 73, dtype: object

>  <hydroph_interaction:ILE:123>  (74) 
hydroph_interaction:ILE:123    NaN
hydroph_interaction:ILE:123     -1
Name: 73, dtype: object

>  <hbond:ILE:123>  (74) 
hbond:ILE:123    NaN
hbond:ILE:123     -1
Name: 73, dtype: object

>  <hydroph_interaction:VAL:124>  (74) 
hydroph_interaction:VAL:124    1.0
hydroph_interaction:VAL:124      1
Name: 73, dtype: object

>  <hbond:VAL:124>  (74) 
hbond:VAL:124    NaN
hbond:VAL:124     -1
Name: 73, dtype: object

>  <halogenbond:VAL:124>  (74) 
halogenbond:VAL:124    NaN
halogenbond:VAL:124     -1
Name: 73, dtype: object

>  <hbond:SER:125>  (74) 
hbond:SER:125    1
hbond:SER:125    1
Name: 73, dtype: object

>  <halogenbond:SER:125>  (74) 
halogenbond:SER:125    0.0
halogenbond:SER:125      0
Name: 73, dtype: object

>  <hydroph_interaction:THR:126>  (74) 
hydroph_interaction:THR:126    0.0
hydroph_interaction:THR:126      0
Name: 73, dtype: object

>  <hbond:THR:126>  (74) 
hbond:THR:126    NaN
hbond:THR:126     -1
Name: 73, dtype: object

>  <halogenbond:THR:126>  (74) 
halogenbond:THR:126    NaN
halogenbond:THR:126     -1
Name: 73, dtype: object

>  <hbond:GLY:127>  (74) 
hbond:GLY:127    0
hbond:GLY:127    0
Name: 73, dtype: object

>  <halogenbond:GLY:127>  (74) 
halogenbond:GLY:127    NaN
halogenbond:GLY:127     -1
Name: 73, dtype: object

>  <hydroph_interaction:GLY:127>  (74) 
hydroph_interaction:GLY:127    NaN
hydroph_interaction:GLY:127     -1
Name: 73, dtype: object

>  <hbond:GLY:128>  (74) 
hbond:GLY:128    NaN
hbond:GLY:128     -1
Name: 73, dtype: object

>  <halogenbond:GLY:128>  (74) 
halogenbond:GLY:128    NaN
halogenbond:GLY:128     -1
Name: 73, dtype: object

>  <hydroph_interaction:GLY:128>  (74) 
hydroph_interaction:GLY:128    NaN
hydroph_interaction:GLY:128     -1
Name: 73, dtype: object

>  <hbond:ASN:129>  (74) 
hbond:ASN:129    NaN
hbond:ASN:129     -1
Name: 73, dtype: object

>  <hydroph_interaction:ASN:129>  (74) 
hydroph_interaction:ASN:129    NaN
hydroph_interaction:ASN:129     -1
Name: 73, dtype: object

>  <halogenbond:ASN:129>  (74) 
halogenbond:ASN:129    NaN
halogenbond:ASN:129     -1
Name: 73, dtype: object

>  <hbond:GLY:130>  (74) 
hbond:GLY:130    NaN
hbond:GLY:130     -1
Name: 73, dtype: object

>  <hbond:LEU:131>  (74) 
hbond:LEU:131    NaN
hbond:LEU:131     -1
Name: 73, dtype: object

>  <hydroph_interaction:LEU:131>  (74) 
hydroph_interaction:LEU:131    NaN
hydroph_interaction:LEU:131     -1
Name: 73, dtype: object

>  <halogenbond:LEU:131>  (74) 
halogenbond:LEU:131    NaN
halogenbond:LEU:131     -1
Name: 73, dtype: object

>  <hydroph_interaction:VAL:132>  (74) 
hydroph_interaction:VAL:132    NaN
hydroph_interaction:VAL:132     -1
Name: 73, dtype: object

>  <hbond:VAL:132>  (74) 
hbond:VAL:132    NaN
hbond:VAL:132     -1
Name: 73, dtype: object

>  <hbond:GLY:133>  (74) 
hbond:GLY:133    NaN
hbond:GLY:133     -1
Name: 73, dtype: object

>  <halogenbond:GLY:133>  (74) 
halogenbond:GLY:133    NaN
halogenbond:GLY:133     -1
Name: 73, dtype: object

>  <hydroph_interaction:PHE:134>  (74) 
hydroph_interaction:PHE:134    NaN
hydroph_interaction:PHE:134     -1
Name: 73, dtype: object

>  <hbond:PHE:134>  (74) 
hbond:PHE:134    NaN
hbond:PHE:134     -1
Name: 73, dtype: object

>  <pistack:PHE:134>  (74) 
pistack:PHE:134    NaN
pistack:PHE:134     -1
Name: 73, dtype: object

>  <pication:PHE:134>  (74) 
pication:PHE:134    NaN
pication:PHE:134     -1
Name: 73, dtype: object

>  <halogenbond:PHE:134>  (74) 
halogenbond:PHE:134    NaN
halogenbond:PHE:134     -1
Name: 73, dtype: object

>  <hydroph_interaction:ALA:135>  (74) 
hydroph_interaction:ALA:135    NaN
hydroph_interaction:ALA:135     -1
Name: 73, dtype: object

>  <hbond:ALA:135>  (74) 
hbond:ALA:135    NaN
hbond:ALA:135     -1
Name: 73, dtype: object

$$$$
PV_002870367296
     RDKit          3D

 20 20  0  0  0  0  0  0  0  0999 V2000
   11.7140   14.0860   22.2740 C   0  0  0  0  0  0  0  0  0  0  0  0
   10.3070   13.9640   22.6550 N   0  0  0  0  0  0  0  0  0  0  0  0
    9.7640   12.7350   23.1290 C   0  0  0  0  0  0  0  0  0  0  0  0
   10.2290   11.5000   22.7040 C   0  0  0  0  0  0  0  0  0  0  0  0
    9.7070   10.2890   23.1400 C   0  0  0  0  0  0  0  0  0  0  0  0
   10.2840    9.0350   22.5870 C   0  0  0  0  0  0  0  0  0  0  0  0
    8.6690   10.2830   24.0650 C   0  0  0  0  0  0  0  0  0  0  0  0
    8.1650   11.4900   24.5280 C   0  0  0  0  0  0  0  0  0  0  0  0
    8.7040   12.6920   24.0620 C   0  0  0  0  0  0  0  0  0  0  0  0
    8.1850   13.8380   24.5270 F   0  0  0  0  0  0  0  0  0  0  0  0
   11.8070   13.9690   21.1890 H   0  0  0  0  0  0  0  0  0  0  0  0
   12.3260   13.3060   22.7360 H   0  0  0  0  0  0  0  0  0  0  0  0
   12.1140   15.0720   22.5370 H   0  0  0  0  0  0  0  0  0  0  0  0
    9.6840   14.3470   21.9430 H   0  0  0  0  0  0  0  0  0  0  0  0
   11.0290   11.4620   22.0020 H   0  0  0  0  0  0  0  0  0  0  0  0
    9.4830    8.3480   22.3070 H   0  0  0  0  0  0  0  0  0  0  0  0
   10.9620    8.5450   23.2890 H   0  0  0  0  0  0  0  0  0  0  0  0
   10.8590    9.2760   21.6930 H   0  0  0  0  0  0  0  0  0  0  0  0
    8.2520    9.3450   24.4210 H   0  0  0  0  0  0  0  0  0  0  0  0
    7.3510   11.5100   25.2480 H   0  0  0  0  0  0  0  0  0  0  0  0
  1  2  1  0
  2  3  1  0
  3  4  2  0
  4  5  1  0
  5  6  1  0
  5  7  2  0
  7  8  1  0
  8  9  2  0
  9 10  1  0
  9  3  1  0
  1 11  1  0
  1 12  1  0
  1 13  1  0
  2 14  1  0
  4 15  1  0
  6 16  1  0
  6 17  1  0
  6 18  1  0
  7 19  1  0
  8 20  1  0
A    1
 C1 
A    2
 N1 
A    3
 C2 
A    4
 C3 
A    5
 C4 
A    6
 C5 
A    7
 C6 
A    8
 C7 
A    9
 C8 
A   10
 F1 
A   11
 H1 
A   12
 H2 
A   13
 H3 
A   14
 H4 
A   15
 H5 
A   16
 H6 
A   17
 H7 
A   18
 H8 
A   19
 H9 
A   20
 H10
M  END
>  <ref_pdb>  (75) 
x0310_0A

>  <ref_mols>  (75) 
x0451_0A,x0739_0A

>  <original SMILES>  (75) 
CNc1cc(C)ccc1F

>  <rationale>  (75) 
info halogenbond:C110+D39+A86+S125+E85+Q95+E106+E88+T126+P107+H104+Y64+C65+S87+N129+F83+R93+L131+I82+G128+P91+N19+H21+V84+G133+Y90+Y89+H97+L81+F134+L98+R20+G103+S66+S67+S7+G108+R38+V124+M99+S36; hbond:S87+Y90+P107+Q95+D39+A86+C110+E85+G108+G103+G128+G130+L131+N129+N19+H104+R68+V124+R93+P91+F83+S67+S7+S66+G112+G133+V132+R20+Y89+S77+A135+Y63+A92+A101+M99+F134+L100+I82+Y64+S36+L98+V84+L81+Y94+S80+R38+S37+V102+G8+I123+G111+I113+L114+C65+L22+S96; hydroph_interaction:V124+T126+H21+L22+E85+E106+E88+N129+D39+N19+L40+I123+A135+Q95+I82+L100+L98+L131+F83+R93+V132+Y63+F134+H104+R20+A86+V74+P91+A101+F76+M99+L114+A92+Y94+R68+Y72+Y64+V18+V102+W28+G127+G128+L81; pication:H21+H104+R93+Y63+F134+Y90+R68+F83+R20; pistack:H21+Y89+Y90+H104+F134+Y63+F83+Y94; saltbridge:D39+H21+R93+H104+E106+D109+E85+E88+R68+R20; 

>  <intxn_cluster>  (75) 
-1

>  <intxn_cluster_rank>  (75) 
-1

>  <N_interactions>  (75) 
3

>  <∆∆G>  (75) 
-8.959054

>  <$/mg>  (75) 
163.0

>  <comRMSD>  (75) 
0.777686

>  <N_rotatable_bonds>  (75) 
3

>  <deep_P1_sidechain>  (75) 
nan

>  <farthest_distance_to_substrate>  (75) 
2.289094

>  <hbond:SER:7>  (75) 
hbond:SER:7    NaN
hbond:SER:7     -1
Name: 74, dtype: object

>  <halogenbond:SER:7>  (75) 
halogenbond:SER:7    NaN
halogenbond:SER:7     -1
Name: 74, dtype: object

>  <hbond:GLY:8>  (75) 
hbond:GLY:8    NaN
hbond:GLY:8     -1
Name: 74, dtype: object

>  <hydroph_interaction:VAL:18>  (75) 
hydroph_interaction:VAL:18    NaN
hydroph_interaction:VAL:18     -1
Name: 74, dtype: object

>  <hbond:ASN:19>  (75) 
hbond:ASN:19    NaN
hbond:ASN:19     -1
Name: 74, dtype: object

>  <hydroph_interaction:ASN:19>  (75) 
hydroph_interaction:ASN:19    NaN
hydroph_interaction:ASN:19     -1
Name: 74, dtype: object

>  <halogenbond:ASN:19>  (75) 
halogenbond:ASN:19    NaN
halogenbond:ASN:19     -1
Name: 74, dtype: object

>  <hbond:ARG:20>  (75) 
hbond:ARG:20    NaN
hbond:ARG:20     -1
Name: 74, dtype: object

>  <hydroph_interaction:ARG:20>  (75) 
hydroph_interaction:ARG:20    NaN
hydroph_interaction:ARG:20     -1
Name: 74, dtype: object

>  <saltbridge:ARG:20>  (75) 
saltbridge:ARG:20    NaN
saltbridge:ARG:20     -1
Name: 74, dtype: object

>  <halogenbond:ARG:20>  (75) 
halogenbond:ARG:20    NaN
halogenbond:ARG:20     -1
Name: 74, dtype: object

>  <pication:ARG:20>  (75) 
pication:ARG:20    NaN
pication:ARG:20     -1
Name: 74, dtype: object

>  <hbond:HIS:21>  (75) 
hbond:HIS:21    0.0
hbond:HIS:21      0
Name: 74, dtype: object

>  <hydroph_interaction:HIS:21>  (75) 
hydroph_interaction:HIS:21    NaN
hydroph_interaction:HIS:21     -1
Name: 74, dtype: object

>  <pistack:HIS:21>  (75) 
pistack:HIS:21    NaN
pistack:HIS:21     -1
Name: 74, dtype: object

>  <pication:HIS:21>  (75) 
pication:HIS:21    NaN
pication:HIS:21     -1
Name: 74, dtype: object

>  <saltbridge:HIS:21>  (75) 
saltbridge:HIS:21    NaN
saltbridge:HIS:21     -1
Name: 74, dtype: object

>  <halogenbond:HIS:21>  (75) 
halogenbond:HIS:21    NaN
halogenbond:HIS:21     -1
Name: 74, dtype: object

>  <hydroph_interaction:LEU:22>  (75) 
hydroph_interaction:LEU:22    NaN
hydroph_interaction:LEU:22     -1
Name: 74, dtype: object

>  <hbond:LEU:22>  (75) 
hbond:LEU:22    NaN
hbond:LEU:22     -1
Name: 74, dtype: object

>  <hydroph_interaction:TRP:28>  (75) 
hydroph_interaction:TRP:28    NaN
hydroph_interaction:TRP:28     -1
Name: 74, dtype: object

>  <hbond:SER:36>  (75) 
hbond:SER:36    NaN
hbond:SER:36     -1
Name: 74, dtype: object

>  <halogenbond:SER:36>  (75) 
halogenbond:SER:36    NaN
halogenbond:SER:36     -1
Name: 74, dtype: object

>  <hbond:SER:37>  (75) 
hbond:SER:37    NaN
hbond:SER:37     -1
Name: 74, dtype: object

>  <hbond:ARG:38>  (75) 
hbond:ARG:38    NaN
hbond:ARG:38     -1
Name: 74, dtype: object

>  <halogenbond:ARG:38>  (75) 
halogenbond:ARG:38    NaN
halogenbond:ARG:38     -1
Name: 74, dtype: object

>  <saltbridge:ASP:39>  (75) 
saltbridge:ASP:39    NaN
saltbridge:ASP:39     -1
Name: 74, dtype: object

>  <halogenbond:ASP:39>  (75) 
halogenbond:ASP:39    NaN
halogenbond:ASP:39     -1
Name: 74, dtype: object

>  <hbond:ASP:39>  (75) 
hbond:ASP:39    NaN
hbond:ASP:39     -1
Name: 74, dtype: object

>  <hydroph_interaction:ASP:39>  (75) 
hydroph_interaction:ASP:39    NaN
hydroph_interaction:ASP:39     -1
Name: 74, dtype: object

>  <hydroph_interaction:LEU:40>  (75) 
hydroph_interaction:LEU:40    NaN
hydroph_interaction:LEU:40     -1
Name: 74, dtype: object

>  <hydroph_interaction:TYR:63>  (75) 
hydroph_interaction:TYR:63    NaN
hydroph_interaction:TYR:63     -1
Name: 74, dtype: object

>  <hbond:TYR:63>  (75) 
hbond:TYR:63    NaN
hbond:TYR:63     -1
Name: 74, dtype: object

>  <pistack:TYR:63>  (75) 
pistack:TYR:63    NaN
pistack:TYR:63     -1
Name: 74, dtype: object

>  <pication:TYR:63>  (75) 
pication:TYR:63    NaN
pication:TYR:63     -1
Name: 74, dtype: object

>  <halogenbond:TYR:64>  (75) 
halogenbond:TYR:64    NaN
halogenbond:TYR:64     -1
Name: 74, dtype: object

>  <hbond:TYR:64>  (75) 
hbond:TYR:64    NaN
hbond:TYR:64     -1
Name: 74, dtype: object

>  <hydroph_interaction:TYR:64>  (75) 
hydroph_interaction:TYR:64    NaN
hydroph_interaction:TYR:64     -1
Name: 74, dtype: object

>  <halogenbond:CYS:65>  (75) 
halogenbond:CYS:65    NaN
halogenbond:CYS:65     -1
Name: 74, dtype: object

>  <hbond:CYS:65>  (75) 
hbond:CYS:65    NaN
hbond:CYS:65     -1
Name: 74, dtype: object

>  <hbond:SER:66>  (75) 
hbond:SER:66    NaN
hbond:SER:66     -1
Name: 74, dtype: object

>  <halogenbond:SER:66>  (75) 
halogenbond:SER:66    NaN
halogenbond:SER:66     -1
Name: 74, dtype: object

>  <hbond:SER:67>  (75) 
hbond:SER:67    NaN
hbond:SER:67     -1
Name: 74, dtype: object

>  <halogenbond:SER:67>  (75) 
halogenbond:SER:67    NaN
halogenbond:SER:67     -1
Name: 74, dtype: object

>  <hbond:ARG:68>  (75) 
hbond:ARG:68    NaN
hbond:ARG:68     -1
Name: 74, dtype: object

>  <saltbridge:ARG:68>  (75) 
saltbridge:ARG:68    NaN
saltbridge:ARG:68     -1
Name: 74, dtype: object

>  <hydroph_interaction:ARG:68>  (75) 
hydroph_interaction:ARG:68    NaN
hydroph_interaction:ARG:68     -1
Name: 74, dtype: object

>  <pication:ARG:68>  (75) 
pication:ARG:68    NaN
pication:ARG:68     -1
Name: 74, dtype: object

>  <hydroph_interaction:TYR:72>  (75) 
hydroph_interaction:TYR:72    NaN
hydroph_interaction:TYR:72     -1
Name: 74, dtype: object

>  <hydroph_interaction:VAL:74>  (75) 
hydroph_interaction:VAL:74    NaN
hydroph_interaction:VAL:74     -1
Name: 74, dtype: object

>  <hydroph_interaction:PHE:76>  (75) 
hydroph_interaction:PHE:76    NaN
hydroph_interaction:PHE:76     -1
Name: 74, dtype: object

>  <hbond:SER:77>  (75) 
hbond:SER:77    NaN
hbond:SER:77     -1
Name: 74, dtype: object

>  <hbond:SER:80>  (75) 
hbond:SER:80    NaN
hbond:SER:80     -1
Name: 74, dtype: object

>  <hbond:LEU:81>  (75) 
hbond:LEU:81    NaN
hbond:LEU:81     -1
Name: 74, dtype: object

>  <halogenbond:LEU:81>  (75) 
halogenbond:LEU:81    NaN
halogenbond:LEU:81     -1
Name: 74, dtype: object

>  <hydroph_interaction:LEU:81>  (75) 
hydroph_interaction:LEU:81    NaN
hydroph_interaction:LEU:81     -1
Name: 74, dtype: object

>  <hydroph_interaction:ILE:82>  (75) 
hydroph_interaction:ILE:82    NaN
hydroph_interaction:ILE:82     -1
Name: 74, dtype: object

>  <halogenbond:ILE:82>  (75) 
halogenbond:ILE:82    NaN
halogenbond:ILE:82     -1
Name: 74, dtype: object

>  <hbond:ILE:82>  (75) 
hbond:ILE:82    NaN
hbond:ILE:82     -1
Name: 74, dtype: object

>  <hbond:PHE:83>  (75) 
hbond:PHE:83    NaN
hbond:PHE:83     -1
Name: 74, dtype: object

>  <hydroph_interaction:PHE:83>  (75) 
hydroph_interaction:PHE:83    NaN
hydroph_interaction:PHE:83     -1
Name: 74, dtype: object

>  <halogenbond:PHE:83>  (75) 
halogenbond:PHE:83    NaN
halogenbond:PHE:83     -1
Name: 74, dtype: object

>  <pistack:PHE:83>  (75) 
pistack:PHE:83    NaN
pistack:PHE:83     -1
Name: 74, dtype: object

>  <pication:PHE:83>  (75) 
pication:PHE:83    NaN
pication:PHE:83     -1
Name: 74, dtype: object

>  <hydroph_interaction:VAL:84>  (75) 
hydroph_interaction:VAL:84    0.0
hydroph_interaction:VAL:84      0
Name: 74, dtype: object

>  <halogenbond:VAL:84>  (75) 
halogenbond:VAL:84    NaN
halogenbond:VAL:84     -1
Name: 74, dtype: object

>  <hbond:VAL:84>  (75) 
hbond:VAL:84    NaN
hbond:VAL:84     -1
Name: 74, dtype: object

>  <hydroph_interaction:GLU:85>  (75) 
hydroph_interaction:GLU:85    NaN
hydroph_interaction:GLU:85     -1
Name: 74, dtype: object

>  <hbond:GLU:85>  (75) 
hbond:GLU:85    NaN
hbond:GLU:85     -1
Name: 74, dtype: object

>  <halogenbond:GLU:85>  (75) 
halogenbond:GLU:85    NaN
halogenbond:GLU:85     -1
Name: 74, dtype: object

>  <saltbridge:GLU:85>  (75) 
saltbridge:GLU:85    NaN
saltbridge:GLU:85     -1
Name: 74, dtype: object

>  <halogenbond:ALA:86>  (75) 
halogenbond:ALA:86    NaN
halogenbond:ALA:86     -1
Name: 74, dtype: object

>  <hbond:ALA:86>  (75) 
hbond:ALA:86    NaN
hbond:ALA:86     -1
Name: 74, dtype: object

>  <hydroph_interaction:ALA:86>  (75) 
hydroph_interaction:ALA:86    NaN
hydroph_interaction:ALA:86     -1
Name: 74, dtype: object

>  <hbond:SER:87>  (75) 
hbond:SER:87    2
hbond:SER:87    2
Name: 74, dtype: object

>  <halogenbond:SER:87>  (75) 
halogenbond:SER:87    NaN
halogenbond:SER:87     -1
Name: 74, dtype: object

>  <hbond:GLU:88>  (75) 
hbond:GLU:88    0.0
hbond:GLU:88      0
Name: 74, dtype: object

>  <hydroph_interaction:GLU:88>  (75) 
hydroph_interaction:GLU:88    NaN
hydroph_interaction:GLU:88     -1
Name: 74, dtype: object

>  <halogenbond:GLU:88>  (75) 
halogenbond:GLU:88    NaN
halogenbond:GLU:88     -1
Name: 74, dtype: object

>  <saltbridge:GLU:88>  (75) 
saltbridge:GLU:88    NaN
saltbridge:GLU:88     -1
Name: 74, dtype: object

>  <hydroph_interaction:TYR:89>  (75) 
hydroph_interaction:TYR:89    0.0
hydroph_interaction:TYR:89      0
Name: 74, dtype: object

>  <pistack:TYR:89>  (75) 
pistack:TYR:89    NaN
pistack:TYR:89     -1
Name: 74, dtype: object

>  <hbond:TYR:89>  (75) 
hbond:TYR:89    NaN
hbond:TYR:89     -1
Name: 74, dtype: object

>  <halogenbond:TYR:89>  (75) 
halogenbond:TYR:89    NaN
halogenbond:TYR:89     -1
Name: 74, dtype: object

>  <hydroph_interaction:TYR:90>  (75) 
hydroph_interaction:TYR:90    0.0
hydroph_interaction:TYR:90      0
Name: 74, dtype: object

>  <hbond:TYR:90>  (75) 
hbond:TYR:90    NaN
hbond:TYR:90     -1
Name: 74, dtype: object

>  <pistack:TYR:90>  (75) 
pistack:TYR:90    NaN
pistack:TYR:90     -1
Name: 74, dtype: object

>  <halogenbond:TYR:90>  (75) 
halogenbond:TYR:90    NaN
halogenbond:TYR:90     -1
Name: 74, dtype: object

>  <pication:TYR:90>  (75) 
pication:TYR:90    NaN
pication:TYR:90     -1
Name: 74, dtype: object

>  <hbond:PRO:91>  (75) 
hbond:PRO:91    NaN
hbond:PRO:91     -1
Name: 74, dtype: object

>  <hydroph_interaction:PRO:91>  (75) 
hydroph_interaction:PRO:91    NaN
hydroph_interaction:PRO:91     -1
Name: 74, dtype: object

>  <halogenbond:PRO:91>  (75) 
halogenbond:PRO:91    NaN
halogenbond:PRO:91     -1
Name: 74, dtype: object

>  <hbond:ALA:92>  (75) 
hbond:ALA:92    NaN
hbond:ALA:92     -1
Name: 74, dtype: object

>  <hydroph_interaction:ALA:92>  (75) 
hydroph_interaction:ALA:92    NaN
hydroph_interaction:ALA:92     -1
Name: 74, dtype: object

>  <saltbridge:ARG:93>  (75) 
saltbridge:ARG:93    NaN
saltbridge:ARG:93     -1
Name: 74, dtype: object

>  <hbond:ARG:93>  (75) 
hbond:ARG:93    NaN
hbond:ARG:93     -1
Name: 74, dtype: object

>  <hydroph_interaction:ARG:93>  (75) 
hydroph_interaction:ARG:93    NaN
hydroph_interaction:ARG:93     -1
Name: 74, dtype: object

>  <halogenbond:ARG:93>  (75) 
halogenbond:ARG:93    NaN
halogenbond:ARG:93     -1
Name: 74, dtype: object

>  <pication:ARG:93>  (75) 
pication:ARG:93    NaN
pication:ARG:93     -1
Name: 74, dtype: object

>  <hydroph_interaction:TYR:94>  (75) 
hydroph_interaction:TYR:94    NaN
hydroph_interaction:TYR:94     -1
Name: 74, dtype: object

>  <pistack:TYR:94>  (75) 
pistack:TYR:94    NaN
pistack:TYR:94     -1
Name: 74, dtype: object

>  <hbond:TYR:94>  (75) 
hbond:TYR:94    NaN
hbond:TYR:94     -1
Name: 74, dtype: object

>  <hbond:GLN:95>  (75) 
hbond:GLN:95    NaN
hbond:GLN:95     -1
Name: 74, dtype: object

>  <hydroph_interaction:GLN:95>  (75) 
hydroph_interaction:GLN:95    NaN
hydroph_interaction:GLN:95     -1
Name: 74, dtype: object

>  <halogenbond:GLN:95>  (75) 
halogenbond:GLN:95    NaN
halogenbond:GLN:95     -1
Name: 74, dtype: object

>  <hbond:SER:96>  (75) 
hbond:SER:96    NaN
hbond:SER:96     -1
Name: 74, dtype: object

>  <halogenbond:HIS:97>  (75) 
halogenbond:HIS:97    NaN
halogenbond:HIS:97     -1
Name: 74, dtype: object

>  <hydroph_interaction:LEU:98>  (75) 
hydroph_interaction:LEU:98    NaN
hydroph_interaction:LEU:98     -1
Name: 74, dtype: object

>  <hbond:LEU:98>  (75) 
hbond:LEU:98    NaN
hbond:LEU:98     -1
Name: 74, dtype: object

>  <halogenbond:LEU:98>  (75) 
halogenbond:LEU:98    NaN
halogenbond:LEU:98     -1
Name: 74, dtype: object

>  <hbond:MET:99>  (75) 
hbond:MET:99    NaN
hbond:MET:99     -1
Name: 74, dtype: object

>  <hydroph_interaction:MET:99>  (75) 
hydroph_interaction:MET:99    NaN
hydroph_interaction:MET:99     -1
Name: 74, dtype: object

>  <halogenbond:MET:99>  (75) 
halogenbond:MET:99    NaN
halogenbond:MET:99     -1
Name: 74, dtype: object

>  <hydroph_interaction:LEU:100>  (75) 
hydroph_interaction:LEU:100    NaN
hydroph_interaction:LEU:100     -1
Name: 74, dtype: object

>  <hbond:LEU:100>  (75) 
hbond:LEU:100    NaN
hbond:LEU:100     -1
Name: 74, dtype: object

>  <hbond:ALA:101>  (75) 
hbond:ALA:101    NaN
hbond:ALA:101     -1
Name: 74, dtype: object

>  <hydroph_interaction:ALA:101>  (75) 
hydroph_interaction:ALA:101    NaN
hydroph_interaction:ALA:101     -1
Name: 74, dtype: object

>  <hydroph_interaction:VAL:102>  (75) 
hydroph_interaction:VAL:102    NaN
hydroph_interaction:VAL:102     -1
Name: 74, dtype: object

>  <hbond:VAL:102>  (75) 
hbond:VAL:102    NaN
hbond:VAL:102     -1
Name: 74, dtype: object

>  <hbond:GLY:103>  (75) 
hbond:GLY:103    NaN
hbond:GLY:103     -1
Name: 74, dtype: object

>  <halogenbond:GLY:103>  (75) 
halogenbond:GLY:103    NaN
halogenbond:GLY:103     -1
Name: 74, dtype: object

>  <hbond:HIS:104>  (75) 
hbond:HIS:104    NaN
hbond:HIS:104     -1
Name: 74, dtype: object

>  <saltbridge:HIS:104>  (75) 
saltbridge:HIS:104    NaN
saltbridge:HIS:104     -1
Name: 74, dtype: object

>  <pication:HIS:104>  (75) 
pication:HIS:104    NaN
pication:HIS:104     -1
Name: 74, dtype: object

>  <halogenbond:HIS:104>  (75) 
halogenbond:HIS:104    NaN
halogenbond:HIS:104     -1
Name: 74, dtype: object

>  <hydroph_interaction:HIS:104>  (75) 
hydroph_interaction:HIS:104    NaN
hydroph_interaction:HIS:104     -1
Name: 74, dtype: object

>  <pistack:HIS:104>  (75) 
pistack:HIS:104    NaN
pistack:HIS:104     -1
Name: 74, dtype: object

>  <halogenbond:SER:105>  (75) 
halogenbond:SER:105    0.0
halogenbond:SER:105      0
Name: 74, dtype: object

>  <hbond:SER:105>  (75) 
hbond:SER:105    0.0
hbond:SER:105      0
Name: 74, dtype: object

>  <hbond:GLU:106>  (75) 
hbond:GLU:106    0.0
hbond:GLU:106      0
Name: 74, dtype: object

>  <hydroph_interaction:GLU:106>  (75) 
hydroph_interaction:GLU:106    NaN
hydroph_interaction:GLU:106     -1
Name: 74, dtype: object

>  <saltbridge:GLU:106>  (75) 
saltbridge:GLU:106    NaN
saltbridge:GLU:106     -1
Name: 74, dtype: object

>  <halogenbond:GLU:106>  (75) 
halogenbond:GLU:106    NaN
halogenbond:GLU:106     -1
Name: 74, dtype: object

>  <hydroph_interaction:PRO:107>  (75) 
hydroph_interaction:PRO:107    0
hydroph_interaction:PRO:107    0
Name: 74, dtype: object

>  <hbond:PRO:107>  (75) 
hbond:PRO:107    NaN
hbond:PRO:107     -1
Name: 74, dtype: object

>  <halogenbond:PRO:107>  (75) 
halogenbond:PRO:107    NaN
halogenbond:PRO:107     -1
Name: 74, dtype: object

>  <hbond:GLY:108>  (75) 
hbond:GLY:108    NaN
hbond:GLY:108     -1
Name: 74, dtype: object

>  <halogenbond:GLY:108>  (75) 
halogenbond:GLY:108    NaN
halogenbond:GLY:108     -1
Name: 74, dtype: object

>  <hbond:ASP:109>  (75) 
hbond:ASP:109    0.0
hbond:ASP:109      0
Name: 74, dtype: object

>  <hydroph_interaction:ASP:109>  (75) 
hydroph_interaction:ASP:109    0.0
hydroph_interaction:ASP:109      0
Name: 74, dtype: object

>  <saltbridge:ASP:109>  (75) 
saltbridge:ASP:109    NaN
saltbridge:ASP:109     -1
Name: 74, dtype: object

>  <halogenbond:CYS:110>  (75) 
halogenbond:CYS:110    NaN
halogenbond:CYS:110     -1
Name: 74, dtype: object

>  <hbond:CYS:110>  (75) 
hbond:CYS:110    NaN
hbond:CYS:110     -1
Name: 74, dtype: object

>  <hbond:GLY:111>  (75) 
hbond:GLY:111    NaN
hbond:GLY:111     -1
Name: 74, dtype: object

>  <hbond:GLY:112>  (75) 
hbond:GLY:112    NaN
hbond:GLY:112     -1
Name: 74, dtype: object

>  <hbond:ILE:113>  (75) 
hbond:ILE:113    NaN
hbond:ILE:113     -1
Name: 74, dtype: object

>  <hydroph_interaction:LEU:114>  (75) 
hydroph_interaction:LEU:114    NaN
hydroph_interaction:LEU:114     -1
Name: 74, dtype: object

>  <hbond:LEU:114>  (75) 
hbond:LEU:114    NaN
hbond:LEU:114     -1
Name: 74, dtype: object

>  <hydroph_interaction:ILE:123>  (75) 
hydroph_interaction:ILE:123    NaN
hydroph_interaction:ILE:123     -1
Name: 74, dtype: object

>  <hbond:ILE:123>  (75) 
hbond:ILE:123    NaN
hbond:ILE:123     -1
Name: 74, dtype: object

>  <hydroph_interaction:VAL:124>  (75) 
hydroph_interaction:VAL:124    1.0
hydroph_interaction:VAL:124      1
Name: 74, dtype: object

>  <hbond:VAL:124>  (75) 
hbond:VAL:124    NaN
hbond:VAL:124     -1
Name: 74, dtype: object

>  <halogenbond:VAL:124>  (75) 
halogenbond:VAL:124    NaN
halogenbond:VAL:124     -1
Name: 74, dtype: object

>  <hbond:SER:125>  (75) 
hbond:SER:125    0
hbond:SER:125    0
Name: 74, dtype: object

>  <halogenbond:SER:125>  (75) 
halogenbond:SER:125    NaN
halogenbond:SER:125     -1
Name: 74, dtype: object

>  <hydroph_interaction:THR:126>  (75) 
hydroph_interaction:THR:126    NaN
hydroph_interaction:THR:126     -1
Name: 74, dtype: object

>  <hbond:THR:126>  (75) 
hbond:THR:126    0.0
hbond:THR:126      0
Name: 74, dtype: object

>  <halogenbond:THR:126>  (75) 
halogenbond:THR:126    NaN
halogenbond:THR:126     -1
Name: 74, dtype: object

>  <hbond:GLY:127>  (75) 
hbond:GLY:127    0
hbond:GLY:127    0
Name: 74, dtype: object

>  <halogenbond:GLY:127>  (75) 
halogenbond:GLY:127    0.0
halogenbond:GLY:127      0
Name: 74, dtype: object

>  <hydroph_interaction:GLY:127>  (75) 
hydroph_interaction:GLY:127    NaN
hydroph_interaction:GLY:127     -1
Name: 74, dtype: object

>  <hbond:GLY:128>  (75) 
hbond:GLY:128    NaN
hbond:GLY:128     -1
Name: 74, dtype: object

>  <halogenbond:GLY:128>  (75) 
halogenbond:GLY:128    NaN
halogenbond:GLY:128     -1
Name: 74, dtype: object

>  <hydroph_interaction:GLY:128>  (75) 
hydroph_interaction:GLY:128    NaN
hydroph_interaction:GLY:128     -1
Name: 74, dtype: object

>  <hbond:ASN:129>  (75) 
hbond:ASN:129    NaN
hbond:ASN:129     -1
Name: 74, dtype: object

>  <hydroph_interaction:ASN:129>  (75) 
hydroph_interaction:ASN:129    NaN
hydroph_interaction:ASN:129     -1
Name: 74, dtype: object

>  <halogenbond:ASN:129>  (75) 
halogenbond:ASN:129    NaN
halogenbond:ASN:129     -1
Name: 74, dtype: object

>  <hbond:GLY:130>  (75) 
hbond:GLY:130    NaN
hbond:GLY:130     -1
Name: 74, dtype: object

>  <hbond:LEU:131>  (75) 
hbond:LEU:131    NaN
hbond:LEU:131     -1
Name: 74, dtype: object

>  <hydroph_interaction:LEU:131>  (75) 
hydroph_interaction:LEU:131    NaN
hydroph_interaction:LEU:131     -1
Name: 74, dtype: object

>  <halogenbond:LEU:131>  (75) 
halogenbond:LEU:131    NaN
halogenbond:LEU:131     -1
Name: 74, dtype: object

>  <hydroph_interaction:VAL:132>  (75) 
hydroph_interaction:VAL:132    NaN
hydroph_interaction:VAL:132     -1
Name: 74, dtype: object

>  <hbond:VAL:132>  (75) 
hbond:VAL:132    NaN
hbond:VAL:132     -1
Name: 74, dtype: object

>  <hbond:GLY:133>  (75) 
hbond:GLY:133    NaN
hbond:GLY:133     -1
Name: 74, dtype: object

>  <halogenbond:GLY:133>  (75) 
halogenbond:GLY:133    NaN
halogenbond:GLY:133     -1
Name: 74, dtype: object

>  <hydroph_interaction:PHE:134>  (75) 
hydroph_interaction:PHE:134    NaN
hydroph_interaction:PHE:134     -1
Name: 74, dtype: object

>  <hbond:PHE:134>  (75) 
hbond:PHE:134    NaN
hbond:PHE:134     -1
Name: 74, dtype: object

>  <pistack:PHE:134>  (75) 
pistack:PHE:134    NaN
pistack:PHE:134     -1
Name: 74, dtype: object

>  <pication:PHE:134>  (75) 
pication:PHE:134    NaN
pication:PHE:134     -1
Name: 74, dtype: object

>  <halogenbond:PHE:134>  (75) 
halogenbond:PHE:134    NaN
halogenbond:PHE:134     -1
Name: 74, dtype: object

>  <hydroph_interaction:ALA:135>  (75) 
hydroph_interaction:ALA:135    NaN
hydroph_interaction:ALA:135     -1
Name: 74, dtype: object

>  <hbond:ALA:135>  (75) 
hbond:ALA:135    NaN
hbond:ALA:135     -1
Name: 74, dtype: object

$$$$
PV_002369965275
     RDKit          3D

 18 18  0  0  0  0  0  0  0  0999 V2000
   10.3090    9.4870   22.6230 C   0  0  0  0  0  0  0  0  0  0  0  0
    9.5160   10.2820   23.3600 C   0  0  0  0  0  0  0  0  0  0  0  0
    8.4910    9.8960   24.3310 C   0  0  0  0  0  0  0  0  0  0  0  0
    7.6710   11.1620   25.0900 S   0  0  0  0  0  0  0  0  0  0  0  0
    8.5830   12.2990   24.2080 C   0  0  0  0  0  0  0  0  0  0  0  0
    8.2680   13.9380   24.4800 Cl  0  0  0  0  0  0  0  0  0  0  0  0
    9.5180   11.7600   23.3330 C   0  0  0  0  0  0  0  0  0  0  0  0
   10.3540   12.4730   22.5340 N   0  0  0  0  0  0  0  0  0  0  0  0
   11.2440   13.4680   23.0450 C   0  0  0  0  0  0  0  0  0  0  0  0
   12.1570   13.7870   22.1090 N   0  0  0  0  0  0  0  0  0  0  0  0
   11.2280   14.0030   24.1440 O   0  0  0  0  0  0  0  0  0  0  0  0
   11.1370    9.0190   23.1470 H   0  0  0  0  0  0  0  0  0  0  0  0
    9.8130    8.7710   21.9820 H   0  0  0  0  0  0  0  0  0  0  0  0
   10.7820   10.1540   21.9080 H   0  0  0  0  0  0  0  0  0  0  0  0
    8.3520    8.8410   24.4730 H   0  0  0  0  0  0  0  0  0  0  0  0
   10.5960   12.1250   21.6090 H   0  0  0  0  0  0  0  0  0  0  0  0
   13.1190   13.7650   22.4170 H   0  0  0  0  0  0  0  0  0  0  0  0
   11.9860   13.2190   21.2670 H   0  0  0  0  0  0  0  0  0  0  0  0
  1  2  1  0
  2  3  2  0
  3  4  1  0
  4  5  1  0
  5  6  1  0
  5  7  2  0
  7  8  1  0
  8  9  1  0
  9 10  1  0
  9 11  2  0
  7  2  1  0
  1 12  1  0
  1 13  1  0
  1 14  1  0
  3 15  1  0
  8 16  1  0
 10 17  1  0
 10 18  1  0
A    1
 C1 
A    2
 C2 
A    3
 C3 
A    4
 S1 
A    5
 C4 
A    6
CL1 
A    7
 C5 
A    8
 N1 
A    9
 C6 
A   10
 N2 
A   11
 O1 
A   12
 H1 
A   13
 H2 
A   14
 H3 
A   15
 H4 
A   16
 H5 
A   17
 H6 
A   18
 H7 
M  END
>  <ref_pdb>  (76) 
x0310_0A

>  <ref_mols>  (76) 
x0310_0A,x0416_0A,x0416_0A

>  <original SMILES>  (76) 
Cc1csc(Cl)c1NC(N)=O

>  <rationale>  (76) 
info halogenbond:G127+D39+E85+Q95+E106+E88+T126+P107+H104+Y64+C65+S87+N129+F83+R93+L131+I82+G128+P91+N19+H21+V84+G133+Y90+Y89+H97+L81+F134+L98+R20+G103+S66+S67+S7+G108+R38+V124+M99+S36; hbond:S125+G127+E85+G108+G103+G128+L131+N129+R68+V124+P91+F83+S67+S7+S66+G112+G133+V132+R20+Y89+S77+A135+Y63+A92+A101+M99+F134+L100+I82+Y64+S36+L98+V84+L81+Y94+S80+R38+S37+V102+G8+I123+G111+I113+L114+C65+L22+S96; hydroph_interaction:V84+V124+T126+L22+E85+N129+N19+L40+I123+A135+Q95+I82+L100+L98+L131+F83+R93+V132+Y63+F134+R20+A86+V74+P91+A101+F76+M99+L114+A92+Y94+R68+Y72+Y64+V18+V102+W28+G127+G128+L81; pication:H104+R93+Y63+F134+Y90+R68+F83+R20; pistack:H21+Y89+Y90+H104+F134+Y63+F83+Y94; saltbridge:R93+H104+E106+D109+E85+R68+R20; 

>  <intxn_cluster>  (76) 
-1

>  <intxn_cluster_rank>  (76) 
-1

>  <N_interactions>  (76) 
4

>  <∆∆G>  (76) 
-8.964763

>  <$/mg>  (76) 
163.0

>  <comRMSD>  (76) 
0.655261

>  <N_rotatable_bonds>  (76) 
2

>  <deep_P1_sidechain>  (76) 
nan

>  <farthest_distance_to_substrate>  (76) 
2.349838

>  <hbond:SER:7>  (76) 
hbond:SER:7    NaN
hbond:SER:7     -1
Name: 75, dtype: object

>  <halogenbond:SER:7>  (76) 
halogenbond:SER:7    NaN
halogenbond:SER:7     -1
Name: 75, dtype: object

>  <hbond:GLY:8>  (76) 
hbond:GLY:8    NaN
hbond:GLY:8     -1
Name: 75, dtype: object

>  <hydroph_interaction:VAL:18>  (76) 
hydroph_interaction:VAL:18    NaN
hydroph_interaction:VAL:18     -1
Name: 75, dtype: object

>  <hbond:ASN:19>  (76) 
hbond:ASN:19    0.0
hbond:ASN:19      0
Name: 75, dtype: object

>  <hydroph_interaction:ASN:19>  (76) 
hydroph_interaction:ASN:19    NaN
hydroph_interaction:ASN:19     -1
Name: 75, dtype: object

>  <halogenbond:ASN:19>  (76) 
halogenbond:ASN:19    NaN
halogenbond:ASN:19     -1
Name: 75, dtype: object

>  <hbond:ARG:20>  (76) 
hbond:ARG:20    NaN
hbond:ARG:20     -1
Name: 75, dtype: object

>  <hydroph_interaction:ARG:20>  (76) 
hydroph_interaction:ARG:20    NaN
hydroph_interaction:ARG:20     -1
Name: 75, dtype: object

>  <saltbridge:ARG:20>  (76) 
saltbridge:ARG:20    NaN
saltbridge:ARG:20     -1
Name: 75, dtype: object

>  <halogenbond:ARG:20>  (76) 
halogenbond:ARG:20    NaN
halogenbond:ARG:20     -1
Name: 75, dtype: object

>  <pication:ARG:20>  (76) 
pication:ARG:20    NaN
pication:ARG:20     -1
Name: 75, dtype: object

>  <hbond:HIS:21>  (76) 
hbond:HIS:21    0.0
hbond:HIS:21      0
Name: 75, dtype: object

>  <hydroph_interaction:HIS:21>  (76) 
hydroph_interaction:HIS:21    0.0
hydroph_interaction:HIS:21      0
Name: 75, dtype: object

>  <pistack:HIS:21>  (76) 
pistack:HIS:21    NaN
pistack:HIS:21     -1
Name: 75, dtype: object

>  <pication:HIS:21>  (76) 
pication:HIS:21    0.0
pication:HIS:21      0
Name: 75, dtype: object

>  <saltbridge:HIS:21>  (76) 
saltbridge:HIS:21    0.0
saltbridge:HIS:21      0
Name: 75, dtype: object

>  <halogenbond:HIS:21>  (76) 
halogenbond:HIS:21    NaN
halogenbond:HIS:21     -1
Name: 75, dtype: object

>  <hydroph_interaction:LEU:22>  (76) 
hydroph_interaction:LEU:22    NaN
hydroph_interaction:LEU:22     -1
Name: 75, dtype: object

>  <hbond:LEU:22>  (76) 
hbond:LEU:22    NaN
hbond:LEU:22     -1
Name: 75, dtype: object

>  <hydroph_interaction:TRP:28>  (76) 
hydroph_interaction:TRP:28    NaN
hydroph_interaction:TRP:28     -1
Name: 75, dtype: object

>  <hbond:SER:36>  (76) 
hbond:SER:36    NaN
hbond:SER:36     -1
Name: 75, dtype: object

>  <halogenbond:SER:36>  (76) 
halogenbond:SER:36    NaN
halogenbond:SER:36     -1
Name: 75, dtype: object

>  <hbond:SER:37>  (76) 
hbond:SER:37    NaN
hbond:SER:37     -1
Name: 75, dtype: object

>  <hbond:ARG:38>  (76) 
hbond:ARG:38    NaN
hbond:ARG:38     -1
Name: 75, dtype: object

>  <halogenbond:ARG:38>  (76) 
halogenbond:ARG:38    NaN
halogenbond:ARG:38     -1
Name: 75, dtype: object

>  <saltbridge:ASP:39>  (76) 
saltbridge:ASP:39    0.0
saltbridge:ASP:39      0
Name: 75, dtype: object

>  <halogenbond:ASP:39>  (76) 
halogenbond:ASP:39    NaN
halogenbond:ASP:39     -1
Name: 75, dtype: object

>  <hbond:ASP:39>  (76) 
hbond:ASP:39    0.0
hbond:ASP:39      0
Name: 75, dtype: object

>  <hydroph_interaction:ASP:39>  (76) 
hydroph_interaction:ASP:39    0.0
hydroph_interaction:ASP:39      0
Name: 75, dtype: object

>  <hydroph_interaction:LEU:40>  (76) 
hydroph_interaction:LEU:40    NaN
hydroph_interaction:LEU:40     -1
Name: 75, dtype: object

>  <hydroph_interaction:TYR:63>  (76) 
hydroph_interaction:TYR:63    NaN
hydroph_interaction:TYR:63     -1
Name: 75, dtype: object

>  <hbond:TYR:63>  (76) 
hbond:TYR:63    NaN
hbond:TYR:63     -1
Name: 75, dtype: object

>  <pistack:TYR:63>  (76) 
pistack:TYR:63    NaN
pistack:TYR:63     -1
Name: 75, dtype: object

>  <pication:TYR:63>  (76) 
pication:TYR:63    NaN
pication:TYR:63     -1
Name: 75, dtype: object

>  <halogenbond:TYR:64>  (76) 
halogenbond:TYR:64    NaN
halogenbond:TYR:64     -1
Name: 75, dtype: object

>  <hbond:TYR:64>  (76) 
hbond:TYR:64    NaN
hbond:TYR:64     -1
Name: 75, dtype: object

>  <hydroph_interaction:TYR:64>  (76) 
hydroph_interaction:TYR:64    NaN
hydroph_interaction:TYR:64     -1
Name: 75, dtype: object

>  <halogenbond:CYS:65>  (76) 
halogenbond:CYS:65    NaN
halogenbond:CYS:65     -1
Name: 75, dtype: object

>  <hbond:CYS:65>  (76) 
hbond:CYS:65    NaN
hbond:CYS:65     -1
Name: 75, dtype: object

>  <hbond:SER:66>  (76) 
hbond:SER:66    NaN
hbond:SER:66     -1
Name: 75, dtype: object

>  <halogenbond:SER:66>  (76) 
halogenbond:SER:66    NaN
halogenbond:SER:66     -1
Name: 75, dtype: object

>  <hbond:SER:67>  (76) 
hbond:SER:67    NaN
hbond:SER:67     -1
Name: 75, dtype: object

>  <halogenbond:SER:67>  (76) 
halogenbond:SER:67    NaN
halogenbond:SER:67     -1
Name: 75, dtype: object

>  <hbond:ARG:68>  (76) 
hbond:ARG:68    NaN
hbond:ARG:68     -1
Name: 75, dtype: object

>  <saltbridge:ARG:68>  (76) 
saltbridge:ARG:68    NaN
saltbridge:ARG:68     -1
Name: 75, dtype: object

>  <hydroph_interaction:ARG:68>  (76) 
hydroph_interaction:ARG:68    NaN
hydroph_interaction:ARG:68     -1
Name: 75, dtype: object

>  <pication:ARG:68>  (76) 
pication:ARG:68    NaN
pication:ARG:68     -1
Name: 75, dtype: object

>  <hydroph_interaction:TYR:72>  (76) 
hydroph_interaction:TYR:72    NaN
hydroph_interaction:TYR:72     -1
Name: 75, dtype: object

>  <hydroph_interaction:VAL:74>  (76) 
hydroph_interaction:VAL:74    NaN
hydroph_interaction:VAL:74     -1
Name: 75, dtype: object

>  <hydroph_interaction:PHE:76>  (76) 
hydroph_interaction:PHE:76    NaN
hydroph_interaction:PHE:76     -1
Name: 75, dtype: object

>  <hbond:SER:77>  (76) 
hbond:SER:77    NaN
hbond:SER:77     -1
Name: 75, dtype: object

>  <hbond:SER:80>  (76) 
hbond:SER:80    NaN
hbond:SER:80     -1
Name: 75, dtype: object

>  <hbond:LEU:81>  (76) 
hbond:LEU:81    NaN
hbond:LEU:81     -1
Name: 75, dtype: object

>  <halogenbond:LEU:81>  (76) 
halogenbond:LEU:81    NaN
halogenbond:LEU:81     -1
Name: 75, dtype: object

>  <hydroph_interaction:LEU:81>  (76) 
hydroph_interaction:LEU:81    NaN
hydroph_interaction:LEU:81     -1
Name: 75, dtype: object

>  <hydroph_interaction:ILE:82>  (76) 
hydroph_interaction:ILE:82    NaN
hydroph_interaction:ILE:82     -1
Name: 75, dtype: object

>  <halogenbond:ILE:82>  (76) 
halogenbond:ILE:82    NaN
halogenbond:ILE:82     -1
Name: 75, dtype: object

>  <hbond:ILE:82>  (76) 
hbond:ILE:82    NaN
hbond:ILE:82     -1
Name: 75, dtype: object

>  <hbond:PHE:83>  (76) 
hbond:PHE:83    NaN
hbond:PHE:83     -1
Name: 75, dtype: object

>  <hydroph_interaction:PHE:83>  (76) 
hydroph_interaction:PHE:83    NaN
hydroph_interaction:PHE:83     -1
Name: 75, dtype: object

>  <halogenbond:PHE:83>  (76) 
halogenbond:PHE:83    NaN
halogenbond:PHE:83     -1
Name: 75, dtype: object

>  <pistack:PHE:83>  (76) 
pistack:PHE:83    NaN
pistack:PHE:83     -1
Name: 75, dtype: object

>  <pication:PHE:83>  (76) 
pication:PHE:83    NaN
pication:PHE:83     -1
Name: 75, dtype: object

>  <hydroph_interaction:VAL:84>  (76) 
hydroph_interaction:VAL:84    NaN
hydroph_interaction:VAL:84     -1
Name: 75, dtype: object

>  <halogenbond:VAL:84>  (76) 
halogenbond:VAL:84    NaN
halogenbond:VAL:84     -1
Name: 75, dtype: object

>  <hbond:VAL:84>  (76) 
hbond:VAL:84    NaN
hbond:VAL:84     -1
Name: 75, dtype: object

>  <hydroph_interaction:GLU:85>  (76) 
hydroph_interaction:GLU:85    NaN
hydroph_interaction:GLU:85     -1
Name: 75, dtype: object

>  <hbond:GLU:85>  (76) 
hbond:GLU:85    NaN
hbond:GLU:85     -1
Name: 75, dtype: object

>  <halogenbond:GLU:85>  (76) 
halogenbond:GLU:85    NaN
halogenbond:GLU:85     -1
Name: 75, dtype: object

>  <saltbridge:GLU:85>  (76) 
saltbridge:GLU:85    NaN
saltbridge:GLU:85     -1
Name: 75, dtype: object

>  <halogenbond:ALA:86>  (76) 
halogenbond:ALA:86    0.0
halogenbond:ALA:86      0
Name: 75, dtype: object

>  <hbond:ALA:86>  (76) 
hbond:ALA:86    0.0
hbond:ALA:86      0
Name: 75, dtype: object

>  <hydroph_interaction:ALA:86>  (76) 
hydroph_interaction:ALA:86    NaN
hydroph_interaction:ALA:86     -1
Name: 75, dtype: object

>  <hbond:SER:87>  (76) 
hbond:SER:87    0
hbond:SER:87    0
Name: 75, dtype: object

>  <halogenbond:SER:87>  (76) 
halogenbond:SER:87    NaN
halogenbond:SER:87     -1
Name: 75, dtype: object

>  <hbond:GLU:88>  (76) 
hbond:GLU:88    0.0
hbond:GLU:88      0
Name: 75, dtype: object

>  <hydroph_interaction:GLU:88>  (76) 
hydroph_interaction:GLU:88    0.0
hydroph_interaction:GLU:88      0
Name: 75, dtype: object

>  <halogenbond:GLU:88>  (76) 
halogenbond:GLU:88    NaN
halogenbond:GLU:88     -1
Name: 75, dtype: object

>  <saltbridge:GLU:88>  (76) 
saltbridge:GLU:88    0.0
saltbridge:GLU:88      0
Name: 75, dtype: object

>  <hydroph_interaction:TYR:89>  (76) 
hydroph_interaction:TYR:89    0.0
hydroph_interaction:TYR:89      0
Name: 75, dtype: object

>  <pistack:TYR:89>  (76) 
pistack:TYR:89    NaN
pistack:TYR:89     -1
Name: 75, dtype: object

>  <hbond:TYR:89>  (76) 
hbond:TYR:89    NaN
hbond:TYR:89     -1
Name: 75, dtype: object

>  <halogenbond:TYR:89>  (76) 
halogenbond:TYR:89    NaN
halogenbond:TYR:89     -1
Name: 75, dtype: object

>  <hydroph_interaction:TYR:90>  (76) 
hydroph_interaction:TYR:90    0.0
hydroph_interaction:TYR:90      0
Name: 75, dtype: object

>  <hbond:TYR:90>  (76) 
hbond:TYR:90    0.0
hbond:TYR:90      0
Name: 75, dtype: object

>  <pistack:TYR:90>  (76) 
pistack:TYR:90    NaN
pistack:TYR:90     -1
Name: 75, dtype: object

>  <halogenbond:TYR:90>  (76) 
halogenbond:TYR:90    NaN
halogenbond:TYR:90     -1
Name: 75, dtype: object

>  <pication:TYR:90>  (76) 
pication:TYR:90    NaN
pication:TYR:90     -1
Name: 75, dtype: object

>  <hbond:PRO:91>  (76) 
hbond:PRO:91    NaN
hbond:PRO:91     -1
Name: 75, dtype: object

>  <hydroph_interaction:PRO:91>  (76) 
hydroph_interaction:PRO:91    NaN
hydroph_interaction:PRO:91     -1
Name: 75, dtype: object

>  <halogenbond:PRO:91>  (76) 
halogenbond:PRO:91    NaN
halogenbond:PRO:91     -1
Name: 75, dtype: object

>  <hbond:ALA:92>  (76) 
hbond:ALA:92    NaN
hbond:ALA:92     -1
Name: 75, dtype: object

>  <hydroph_interaction:ALA:92>  (76) 
hydroph_interaction:ALA:92    NaN
hydroph_interaction:ALA:92     -1
Name: 75, dtype: object

>  <saltbridge:ARG:93>  (76) 
saltbridge:ARG:93    NaN
saltbridge:ARG:93     -1
Name: 75, dtype: object

>  <hbond:ARG:93>  (76) 
hbond:ARG:93    0.0
hbond:ARG:93      0
Name: 75, dtype: object

>  <hydroph_interaction:ARG:93>  (76) 
hydroph_interaction:ARG:93    NaN
hydroph_interaction:ARG:93     -1
Name: 75, dtype: object

>  <halogenbond:ARG:93>  (76) 
halogenbond:ARG:93    NaN
halogenbond:ARG:93     -1
Name: 75, dtype: object

>  <pication:ARG:93>  (76) 
pication:ARG:93    NaN
pication:ARG:93     -1
Name: 75, dtype: object

>  <hydroph_interaction:TYR:94>  (76) 
hydroph_interaction:TYR:94    NaN
hydroph_interaction:TYR:94     -1
Name: 75, dtype: object

>  <pistack:TYR:94>  (76) 
pistack:TYR:94    NaN
pistack:TYR:94     -1
Name: 75, dtype: object

>  <hbond:TYR:94>  (76) 
hbond:TYR:94    NaN
hbond:TYR:94     -1
Name: 75, dtype: object

>  <hbond:GLN:95>  (76) 
hbond:GLN:95    0.0
hbond:GLN:95      0
Name: 75, dtype: object

>  <hydroph_interaction:GLN:95>  (76) 
hydroph_interaction:GLN:95    NaN
hydroph_interaction:GLN:95     -1
Name: 75, dtype: object

>  <halogenbond:GLN:95>  (76) 
halogenbond:GLN:95    NaN
halogenbond:GLN:95     -1
Name: 75, dtype: object

>  <hbond:SER:96>  (76) 
hbond:SER:96    NaN
hbond:SER:96     -1
Name: 75, dtype: object

>  <halogenbond:HIS:97>  (76) 
halogenbond:HIS:97    NaN
halogenbond:HIS:97     -1
Name: 75, dtype: object

>  <hydroph_interaction:LEU:98>  (76) 
hydroph_interaction:LEU:98    NaN
hydroph_interaction:LEU:98     -1
Name: 75, dtype: object

>  <hbond:LEU:98>  (76) 
hbond:LEU:98    NaN
hbond:LEU:98     -1
Name: 75, dtype: object

>  <halogenbond:LEU:98>  (76) 
halogenbond:LEU:98    NaN
halogenbond:LEU:98     -1
Name: 75, dtype: object

>  <hbond:MET:99>  (76) 
hbond:MET:99    NaN
hbond:MET:99     -1
Name: 75, dtype: object

>  <hydroph_interaction:MET:99>  (76) 
hydroph_interaction:MET:99    NaN
hydroph_interaction:MET:99     -1
Name: 75, dtype: object

>  <halogenbond:MET:99>  (76) 
halogenbond:MET:99    NaN
halogenbond:MET:99     -1
Name: 75, dtype: object

>  <hydroph_interaction:LEU:100>  (76) 
hydroph_interaction:LEU:100    NaN
hydroph_interaction:LEU:100     -1
Name: 75, dtype: object

>  <hbond:LEU:100>  (76) 
hbond:LEU:100    NaN
hbond:LEU:100     -1
Name: 75, dtype: object

>  <hbond:ALA:101>  (76) 
hbond:ALA:101    NaN
hbond:ALA:101     -1
Name: 75, dtype: object

>  <hydroph_interaction:ALA:101>  (76) 
hydroph_interaction:ALA:101    NaN
hydroph_interaction:ALA:101     -1
Name: 75, dtype: object

>  <hydroph_interaction:VAL:102>  (76) 
hydroph_interaction:VAL:102    NaN
hydroph_interaction:VAL:102     -1
Name: 75, dtype: object

>  <hbond:VAL:102>  (76) 
hbond:VAL:102    NaN
hbond:VAL:102     -1
Name: 75, dtype: object

>  <hbond:GLY:103>  (76) 
hbond:GLY:103    NaN
hbond:GLY:103     -1
Name: 75, dtype: object

>  <halogenbond:GLY:103>  (76) 
halogenbond:GLY:103    NaN
halogenbond:GLY:103     -1
Name: 75, dtype: object

>  <hbond:HIS:104>  (76) 
hbond:HIS:104    0.0
hbond:HIS:104      0
Name: 75, dtype: object

>  <saltbridge:HIS:104>  (76) 
saltbridge:HIS:104    NaN
saltbridge:HIS:104     -1
Name: 75, dtype: object

>  <pication:HIS:104>  (76) 
pication:HIS:104    NaN
pication:HIS:104     -1
Name: 75, dtype: object

>  <halogenbond:HIS:104>  (76) 
halogenbond:HIS:104    NaN
halogenbond:HIS:104     -1
Name: 75, dtype: object

>  <hydroph_interaction:HIS:104>  (76) 
hydroph_interaction:HIS:104    0.0
hydroph_interaction:HIS:104      0
Name: 75, dtype: object

>  <pistack:HIS:104>  (76) 
pistack:HIS:104    NaN
pistack:HIS:104     -1
Name: 75, dtype: object

>  <halogenbond:SER:105>  (76) 
halogenbond:SER:105    0.0
halogenbond:SER:105      0
Name: 75, dtype: object

>  <hbond:SER:105>  (76) 
hbond:SER:105    0.0
hbond:SER:105      0
Name: 75, dtype: object

>  <hbond:GLU:106>  (76) 
hbond:GLU:106    0.0
hbond:GLU:106      0
Name: 75, dtype: object

>  <hydroph_interaction:GLU:106>  (76) 
hydroph_interaction:GLU:106    0.0
hydroph_interaction:GLU:106      0
Name: 75, dtype: object

>  <saltbridge:GLU:106>  (76) 
saltbridge:GLU:106    NaN
saltbridge:GLU:106     -1
Name: 75, dtype: object

>  <halogenbond:GLU:106>  (76) 
halogenbond:GLU:106    NaN
halogenbond:GLU:106     -1
Name: 75, dtype: object

>  <hydroph_interaction:PRO:107>  (76) 
hydroph_interaction:PRO:107    0
hydroph_interaction:PRO:107    0
Name: 75, dtype: object

>  <hbond:PRO:107>  (76) 
hbond:PRO:107    0.0
hbond:PRO:107      0
Name: 75, dtype: object

>  <halogenbond:PRO:107>  (76) 
halogenbond:PRO:107    NaN
halogenbond:PRO:107     -1
Name: 75, dtype: object

>  <hbond:GLY:108>  (76) 
hbond:GLY:108    NaN
hbond:GLY:108     -1
Name: 75, dtype: object

>  <halogenbond:GLY:108>  (76) 
halogenbond:GLY:108    NaN
halogenbond:GLY:108     -1
Name: 75, dtype: object

>  <hbond:ASP:109>  (76) 
hbond:ASP:109    0.0
hbond:ASP:109      0
Name: 75, dtype: object

>  <hydroph_interaction:ASP:109>  (76) 
hydroph_interaction:ASP:109    0.0
hydroph_interaction:ASP:109      0
Name: 75, dtype: object

>  <saltbridge:ASP:109>  (76) 
saltbridge:ASP:109    NaN
saltbridge:ASP:109     -1
Name: 75, dtype: object

>  <halogenbond:CYS:110>  (76) 
halogenbond:CYS:110    0.0
halogenbond:CYS:110      0
Name: 75, dtype: object

>  <hbond:CYS:110>  (76) 
hbond:CYS:110    0.0
hbond:CYS:110      0
Name: 75, dtype: object

>  <hbond:GLY:111>  (76) 
hbond:GLY:111    NaN
hbond:GLY:111     -1
Name: 75, dtype: object

>  <hbond:GLY:112>  (76) 
hbond:GLY:112    NaN
hbond:GLY:112     -1
Name: 75, dtype: object

>  <hbond:ILE:113>  (76) 
hbond:ILE:113    NaN
hbond:ILE:113     -1
Name: 75, dtype: object

>  <hydroph_interaction:LEU:114>  (76) 
hydroph_interaction:LEU:114    NaN
hydroph_interaction:LEU:114     -1
Name: 75, dtype: object

>  <hbond:LEU:114>  (76) 
hbond:LEU:114    NaN
hbond:LEU:114     -1
Name: 75, dtype: object

>  <hydroph_interaction:ILE:123>  (76) 
hydroph_interaction:ILE:123    NaN
hydroph_interaction:ILE:123     -1
Name: 75, dtype: object

>  <hbond:ILE:123>  (76) 
hbond:ILE:123    NaN
hbond:ILE:123     -1
Name: 75, dtype: object

>  <hydroph_interaction:VAL:124>  (76) 
hydroph_interaction:VAL:124    1.0
hydroph_interaction:VAL:124      1
Name: 75, dtype: object

>  <hbond:VAL:124>  (76) 
hbond:VAL:124    NaN
hbond:VAL:124     -1
Name: 75, dtype: object

>  <halogenbond:VAL:124>  (76) 
halogenbond:VAL:124    NaN
halogenbond:VAL:124     -1
Name: 75, dtype: object

>  <hbond:SER:125>  (76) 
hbond:SER:125    2
hbond:SER:125    2
Name: 75, dtype: object

>  <halogenbond:SER:125>  (76) 
halogenbond:SER:125    0.0
halogenbond:SER:125      0
Name: 75, dtype: object

>  <hydroph_interaction:THR:126>  (76) 
hydroph_interaction:THR:126    NaN
hydroph_interaction:THR:126     -1
Name: 75, dtype: object

>  <hbond:THR:126>  (76) 
hbond:THR:126    0.0
hbond:THR:126      0
Name: 75, dtype: object

>  <halogenbond:THR:126>  (76) 
halogenbond:THR:126    NaN
halogenbond:THR:126     -1
Name: 75, dtype: object

>  <hbond:GLY:127>  (76) 
hbond:GLY:127    1
hbond:GLY:127    1
Name: 75, dtype: object

>  <halogenbond:GLY:127>  (76) 
halogenbond:GLY:127    NaN
halogenbond:GLY:127     -1
Name: 75, dtype: object

>  <hydroph_interaction:GLY:127>  (76) 
hydroph_interaction:GLY:127    NaN
hydroph_interaction:GLY:127     -1
Name: 75, dtype: object

>  <hbond:GLY:128>  (76) 
hbond:GLY:128    NaN
hbond:GLY:128     -1
Name: 75, dtype: object

>  <halogenbond:GLY:128>  (76) 
halogenbond:GLY:128    NaN
halogenbond:GLY:128     -1
Name: 75, dtype: object

>  <hydroph_interaction:GLY:128>  (76) 
hydroph_interaction:GLY:128    NaN
hydroph_interaction:GLY:128     -1
Name: 75, dtype: object

>  <hbond:ASN:129>  (76) 
hbond:ASN:129    NaN
hbond:ASN:129     -1
Name: 75, dtype: object

>  <hydroph_interaction:ASN:129>  (76) 
hydroph_interaction:ASN:129    NaN
hydroph_interaction:ASN:129     -1
Name: 75, dtype: object

>  <halogenbond:ASN:129>  (76) 
halogenbond:ASN:129    NaN
halogenbond:ASN:129     -1
Name: 75, dtype: object

>  <hbond:GLY:130>  (76) 
hbond:GLY:130    0.0
hbond:GLY:130      0
Name: 75, dtype: object

>  <hbond:LEU:131>  (76) 
hbond:LEU:131    NaN
hbond:LEU:131     -1
Name: 75, dtype: object

>  <hydroph_interaction:LEU:131>  (76) 
hydroph_interaction:LEU:131    NaN
hydroph_interaction:LEU:131     -1
Name: 75, dtype: object

>  <halogenbond:LEU:131>  (76) 
halogenbond:LEU:131    NaN
halogenbond:LEU:131     -1
Name: 75, dtype: object

>  <hydroph_interaction:VAL:132>  (76) 
hydroph_interaction:VAL:132    NaN
hydroph_interaction:VAL:132     -1
Name: 75, dtype: object

>  <hbond:VAL:132>  (76) 
hbond:VAL:132    NaN
hbond:VAL:132     -1
Name: 75, dtype: object

>  <hbond:GLY:133>  (76) 
hbond:GLY:133    NaN
hbond:GLY:133     -1
Name: 75, dtype: object

>  <halogenbond:GLY:133>  (76) 
halogenbond:GLY:133    NaN
halogenbond:GLY:133     -1
Name: 75, dtype: object

>  <hydroph_interaction:PHE:134>  (76) 
hydroph_interaction:PHE:134    NaN
hydroph_interaction:PHE:134     -1
Name: 75, dtype: object

>  <hbond:PHE:134>  (76) 
hbond:PHE:134    NaN
hbond:PHE:134     -1
Name: 75, dtype: object

>  <pistack:PHE:134>  (76) 
pistack:PHE:134    NaN
pistack:PHE:134     -1
Name: 75, dtype: object

>  <pication:PHE:134>  (76) 
pication:PHE:134    NaN
pication:PHE:134     -1
Name: 75, dtype: object

>  <halogenbond:PHE:134>  (76) 
halogenbond:PHE:134    NaN
halogenbond:PHE:134     -1
Name: 75, dtype: object

>  <hydroph_interaction:ALA:135>  (76) 
hydroph_interaction:ALA:135    NaN
hydroph_interaction:ALA:135     -1
Name: 75, dtype: object

>  <hbond:ALA:135>  (76) 
hbond:ALA:135    NaN
hbond:ALA:135     -1
Name: 75, dtype: object

$$$$
PV_006952226746
     RDKit          3D

 29 30  0  0  0  0  0  0  0  0999 V2000
    9.8410    9.0740   23.3010 C   0  0  0  0  0  0  0  0  0  0  0  0
    9.3040   10.4020   23.6690 C   0  0  0  0  0  0  0  0  0  0  0  0
    8.3930   10.6430   24.6990 C   0  0  0  0  0  0  0  0  0  0  0  0
    7.9100   11.8790   25.0130 N   0  0  0  0  0  0  0  0  0  0  0  0
    8.3710   12.8950   24.2340 C   0  0  0  0  0  0  0  0  0  0  0  0
    7.8750   14.1220   24.5340 O   0  0  0  0  0  0  0  0  0  0  0  0
    9.2730   12.7310   23.1870 C   0  0  0  0  0  0  0  0  0  0  0  0
    9.7670   13.8030   22.2760 C   0  0  0  0  0  0  0  0  0  0  0  0
    8.8080   14.4640   21.3380 C   0  0  0  0  0  0  0  0  0  0  0  0
    9.1460   15.4130   20.2480 C   0  0  0  0  0  0  0  0  0  0  0  0
    8.4070   16.6870   19.9610 C   0  0  0  0  0  0  0  0  0  0  0  0
    8.7290   17.4590   18.8840 C   0  0  0  0  0  0  0  0  0  0  0  0
    9.7580   17.0500   18.0770 C   0  0  0  0  0  0  0  0  0  0  0  0
   10.4640   15.9010   18.3470 C   0  0  0  0  0  0  0  0  0  0  0  0
   10.1810   15.0910   19.4040 C   0  0  0  0  0  0  0  0  0  0  0  0
    9.7260   11.4620   22.9390 C   0  0  0  0  0  0  0  0  0  0  0  0
   10.9370    9.0710   23.3050 H   0  0  0  0  0  0  0  0  0  0  0  0
    9.5060    8.3510   24.0220 H   0  0  0  0  0  0  0  0  0  0  0  0
    9.4890    8.7770   22.3100 H   0  0  0  0  0  0  0  0  0  0  0  0
    8.0140    9.8350   25.3160 H   0  0  0  0  0  0  0  0  0  0  0  0
    6.9820   13.8590   24.8350 H   0  0  0  0  0  0  0  0  0  0  0  0
   10.8460   13.9910   22.3100 H   0  0  0  0  0  0  0  0  0  0  0  0
    7.7540   14.2090   21.3800 H   0  0  0  0  0  0  0  0  0  0  0  0
    7.5690   17.1100   20.5230 H   0  0  0  0  0  0  0  0  0  0  0  0
    8.1840   18.3770   18.6640 H   0  0  0  0  0  0  0  0  0  0  0  0
   10.0340   17.6260   17.2230 H   0  0  0  0  0  0  0  0  0  0  0  0
   11.2810   15.6210   17.6860 H   0  0  0  0  0  0  0  0  0  0  0  0
   10.7540   14.1900   19.5700 H   0  0  0  0  0  0  0  0  0  0  0  0
   10.4300   11.2860   22.1340 H   0  0  0  0  0  0  0  0  0  0  0  0
  1  2  1  0
  2  3  2  0
  3  4  1  0
  4  5  2  0
  5  6  1  0
  5  7  1  0
  7  8  1  0
  8  9  2  0
  9 10  1  0
 10 11  2  0
 11 12  1  0
 12 13  2  0
 13 14  1  0
 14 15  2  0
  7 16  2  0
 16  2  1  0
 15 10  1  0
  1 17  1  0
  1 18  1  0
  1 19  1  0
  3 20  1  0
  6 21  1  0
  8 22  1  0
  9 23  1  0
 11 24  1  0
 12 25  1  0
 13 26  1  0
 14 27  1  0
 15 28  1  0
 16 29  1  0
A    1
 C1 
A    2
 C2 
A    3
 C3 
A    4
 N1 
A    5
 C4 
A    6
 O1 
A    7
 C5 
A    8
 C6 
A    9
 C7 
A   10
 C8 
A   11
 C9 
A   12
 C10
A   13
 C11
A   14
 C12
A   15
 C13
A   16
 C14
A   17
 H1 
A   18
 H2 
A   19
 H3 
A   20
 H4 
A   21
 H5 
A   22
 H6 
A   23
 H7 
A   24
 H8 
A   25
 H9 
A   26
 H10
A   27
 H11
A   28
 H12
A   29
 H13
M  END
>  <ref_pdb>  (77) 
x0310_0A

>  <ref_mols>  (77) 
x0416_0A,x0556_0A

>  <original SMILES>  (77) 
Cc1cnc(O)c(/C=C/c2ccccc2)c1

>  <rationale>  (77) 
info halogenbond:D39+Q95+E106+E88+T126+H104+Y64+C65+S87+N129+F83+R93+L131+I82+G128+P91+N19+H21+V84+Y90+Y89+H97+L81+F134+L98+R20+G103+S66+S67+S7+G108+R38+V124+M99+S36; hbond:G127+H21+Y90+Q95+D39+G108+G103+G128+G130+L131+N129+N19+H104+R68+V124+R93+P91+F83+S7+S66+G112+V132+R20+Y89+S77+A135+Y63+A92+A101+M99+F134+L100+I82+Y64+S36+L98+V84+L81+Y94+S80+R38+S37+V102+G8+I123+G111+I113+L114+C65+L22+S96; hydroph_interaction:V84+V124+Y90+T126+N129+D39+N19+L40+I123+A135+Q95+I82+L100+L131+F83+R93+R20+A86+V74+P91+A101+F76+M99+L114+A92+Y94+Y72+Y64+V18+V102+W28+G127+G128+L81; pication:H104+R93+Y63+F134+Y90+R68+F83+R20; pistack:Y89+Y90+H104+F134+Y63+F83+Y94; saltbridge:D39+H21+R93+H104+E106+D109+E85+E88+R68+R20; 

>  <intxn_cluster>  (77) 
-1

>  <intxn_cluster_rank>  (77) 
-1

>  <N_interactions>  (77) 
6

>  <∆∆G>  (77) 
-10.030031

>  <$/mg>  (77) 
163.0

>  <comRMSD>  (77) 
0.601274

>  <N_rotatable_bonds>  (77) 
4

>  <deep_P1_sidechain>  (77) 
nan

>  <farthest_distance_to_substrate>  (77) 
2.411295

>  <hbond:SER:7>  (77) 
hbond:SER:7    NaN
hbond:SER:7     -1
Name: 76, dtype: object

>  <halogenbond:SER:7>  (77) 
halogenbond:SER:7    NaN
halogenbond:SER:7     -1
Name: 76, dtype: object

>  <hbond:GLY:8>  (77) 
hbond:GLY:8    NaN
hbond:GLY:8     -1
Name: 76, dtype: object

>  <hydroph_interaction:VAL:18>  (77) 
hydroph_interaction:VAL:18    NaN
hydroph_interaction:VAL:18     -1
Name: 76, dtype: object

>  <hbond:ASN:19>  (77) 
hbond:ASN:19    NaN
hbond:ASN:19     -1
Name: 76, dtype: object

>  <hydroph_interaction:ASN:19>  (77) 
hydroph_interaction:ASN:19    NaN
hydroph_interaction:ASN:19     -1
Name: 76, dtype: object

>  <halogenbond:ASN:19>  (77) 
halogenbond:ASN:19    NaN
halogenbond:ASN:19     -1
Name: 76, dtype: object

>  <hbond:ARG:20>  (77) 
hbond:ARG:20    NaN
hbond:ARG:20     -1
Name: 76, dtype: object

>  <hydroph_interaction:ARG:20>  (77) 
hydroph_interaction:ARG:20    NaN
hydroph_interaction:ARG:20     -1
Name: 76, dtype: object

>  <saltbridge:ARG:20>  (77) 
saltbridge:ARG:20    NaN
saltbridge:ARG:20     -1
Name: 76, dtype: object

>  <halogenbond:ARG:20>  (77) 
halogenbond:ARG:20    NaN
halogenbond:ARG:20     -1
Name: 76, dtype: object

>  <pication:ARG:20>  (77) 
pication:ARG:20    NaN
pication:ARG:20     -1
Name: 76, dtype: object

>  <hbond:HIS:21>  (77) 
hbond:HIS:21    NaN
hbond:HIS:21     -1
Name: 76, dtype: object

>  <hydroph_interaction:HIS:21>  (77) 
hydroph_interaction:HIS:21    0.0
hydroph_interaction:HIS:21      0
Name: 76, dtype: object

>  <pistack:HIS:21>  (77) 
pistack:HIS:21    0.0
pistack:HIS:21      0
Name: 76, dtype: object

>  <pication:HIS:21>  (77) 
pication:HIS:21    0.0
pication:HIS:21      0
Name: 76, dtype: object

>  <saltbridge:HIS:21>  (77) 
saltbridge:HIS:21    NaN
saltbridge:HIS:21     -1
Name: 76, dtype: object

>  <halogenbond:HIS:21>  (77) 
halogenbond:HIS:21    NaN
halogenbond:HIS:21     -1
Name: 76, dtype: object

>  <hydroph_interaction:LEU:22>  (77) 
hydroph_interaction:LEU:22    0.0
hydroph_interaction:LEU:22      0
Name: 76, dtype: object

>  <hbond:LEU:22>  (77) 
hbond:LEU:22    NaN
hbond:LEU:22     -1
Name: 76, dtype: object

>  <hydroph_interaction:TRP:28>  (77) 
hydroph_interaction:TRP:28    NaN
hydroph_interaction:TRP:28     -1
Name: 76, dtype: object

>  <hbond:SER:36>  (77) 
hbond:SER:36    NaN
hbond:SER:36     -1
Name: 76, dtype: object

>  <halogenbond:SER:36>  (77) 
halogenbond:SER:36    NaN
halogenbond:SER:36     -1
Name: 76, dtype: object

>  <hbond:SER:37>  (77) 
hbond:SER:37    NaN
hbond:SER:37     -1
Name: 76, dtype: object

>  <hbond:ARG:38>  (77) 
hbond:ARG:38    NaN
hbond:ARG:38     -1
Name: 76, dtype: object

>  <halogenbond:ARG:38>  (77) 
halogenbond:ARG:38    NaN
halogenbond:ARG:38     -1
Name: 76, dtype: object

>  <saltbridge:ASP:39>  (77) 
saltbridge:ASP:39    NaN
saltbridge:ASP:39     -1
Name: 76, dtype: object

>  <halogenbond:ASP:39>  (77) 
halogenbond:ASP:39    NaN
halogenbond:ASP:39     -1
Name: 76, dtype: object

>  <hbond:ASP:39>  (77) 
hbond:ASP:39    NaN
hbond:ASP:39     -1
Name: 76, dtype: object

>  <hydroph_interaction:ASP:39>  (77) 
hydroph_interaction:ASP:39    NaN
hydroph_interaction:ASP:39     -1
Name: 76, dtype: object

>  <hydroph_interaction:LEU:40>  (77) 
hydroph_interaction:LEU:40    NaN
hydroph_interaction:LEU:40     -1
Name: 76, dtype: object

>  <hydroph_interaction:TYR:63>  (77) 
hydroph_interaction:TYR:63    0.0
hydroph_interaction:TYR:63      0
Name: 76, dtype: object

>  <hbond:TYR:63>  (77) 
hbond:TYR:63    NaN
hbond:TYR:63     -1
Name: 76, dtype: object

>  <pistack:TYR:63>  (77) 
pistack:TYR:63    NaN
pistack:TYR:63     -1
Name: 76, dtype: object

>  <pication:TYR:63>  (77) 
pication:TYR:63    NaN
pication:TYR:63     -1
Name: 76, dtype: object

>  <halogenbond:TYR:64>  (77) 
halogenbond:TYR:64    NaN
halogenbond:TYR:64     -1
Name: 76, dtype: object

>  <hbond:TYR:64>  (77) 
hbond:TYR:64    NaN
hbond:TYR:64     -1
Name: 76, dtype: object

>  <hydroph_interaction:TYR:64>  (77) 
hydroph_interaction:TYR:64    NaN
hydroph_interaction:TYR:64     -1
Name: 76, dtype: object

>  <halogenbond:CYS:65>  (77) 
halogenbond:CYS:65    NaN
halogenbond:CYS:65     -1
Name: 76, dtype: object

>  <hbond:CYS:65>  (77) 
hbond:CYS:65    NaN
hbond:CYS:65     -1
Name: 76, dtype: object

>  <hbond:SER:66>  (77) 
hbond:SER:66    NaN
hbond:SER:66     -1
Name: 76, dtype: object

>  <halogenbond:SER:66>  (77) 
halogenbond:SER:66    NaN
halogenbond:SER:66     -1
Name: 76, dtype: object

>  <hbond:SER:67>  (77) 
hbond:SER:67    0.0
hbond:SER:67      0
Name: 76, dtype: object

>  <halogenbond:SER:67>  (77) 
halogenbond:SER:67    NaN
halogenbond:SER:67     -1
Name: 76, dtype: object

>  <hbond:ARG:68>  (77) 
hbond:ARG:68    NaN
hbond:ARG:68     -1
Name: 76, dtype: object

>  <saltbridge:ARG:68>  (77) 
saltbridge:ARG:68    NaN
saltbridge:ARG:68     -1
Name: 76, dtype: object

>  <hydroph_interaction:ARG:68>  (77) 
hydroph_interaction:ARG:68    0.0
hydroph_interaction:ARG:68      0
Name: 76, dtype: object

>  <pication:ARG:68>  (77) 
pication:ARG:68    NaN
pication:ARG:68     -1
Name: 76, dtype: object

>  <hydroph_interaction:TYR:72>  (77) 
hydroph_interaction:TYR:72    NaN
hydroph_interaction:TYR:72     -1
Name: 76, dtype: object

>  <hydroph_interaction:VAL:74>  (77) 
hydroph_interaction:VAL:74    NaN
hydroph_interaction:VAL:74     -1
Name: 76, dtype: object

>  <hydroph_interaction:PHE:76>  (77) 
hydroph_interaction:PHE:76    NaN
hydroph_interaction:PHE:76     -1
Name: 76, dtype: object

>  <hbond:SER:77>  (77) 
hbond:SER:77    NaN
hbond:SER:77     -1
Name: 76, dtype: object

>  <hbond:SER:80>  (77) 
hbond:SER:80    NaN
hbond:SER:80     -1
Name: 76, dtype: object

>  <hbond:LEU:81>  (77) 
hbond:LEU:81    NaN
hbond:LEU:81     -1
Name: 76, dtype: object

>  <halogenbond:LEU:81>  (77) 
halogenbond:LEU:81    NaN
halogenbond:LEU:81     -1
Name: 76, dtype: object

>  <hydroph_interaction:LEU:81>  (77) 
hydroph_interaction:LEU:81    NaN
hydroph_interaction:LEU:81     -1
Name: 76, dtype: object

>  <hydroph_interaction:ILE:82>  (77) 
hydroph_interaction:ILE:82    NaN
hydroph_interaction:ILE:82     -1
Name: 76, dtype: object

>  <halogenbond:ILE:82>  (77) 
halogenbond:ILE:82    NaN
halogenbond:ILE:82     -1
Name: 76, dtype: object

>  <hbond:ILE:82>  (77) 
hbond:ILE:82    NaN
hbond:ILE:82     -1
Name: 76, dtype: object

>  <hbond:PHE:83>  (77) 
hbond:PHE:83    NaN
hbond:PHE:83     -1
Name: 76, dtype: object

>  <hydroph_interaction:PHE:83>  (77) 
hydroph_interaction:PHE:83    NaN
hydroph_interaction:PHE:83     -1
Name: 76, dtype: object

>  <halogenbond:PHE:83>  (77) 
halogenbond:PHE:83    NaN
halogenbond:PHE:83     -1
Name: 76, dtype: object

>  <pistack:PHE:83>  (77) 
pistack:PHE:83    NaN
pistack:PHE:83     -1
Name: 76, dtype: object

>  <pication:PHE:83>  (77) 
pication:PHE:83    NaN
pication:PHE:83     -1
Name: 76, dtype: object

>  <hydroph_interaction:VAL:84>  (77) 
hydroph_interaction:VAL:84    1.0
hydroph_interaction:VAL:84      1
Name: 76, dtype: object

>  <halogenbond:VAL:84>  (77) 
halogenbond:VAL:84    NaN
halogenbond:VAL:84     -1
Name: 76, dtype: object

>  <hbond:VAL:84>  (77) 
hbond:VAL:84    NaN
hbond:VAL:84     -1
Name: 76, dtype: object

>  <hydroph_interaction:GLU:85>  (77) 
hydroph_interaction:GLU:85    0.0
hydroph_interaction:GLU:85      0
Name: 76, dtype: object

>  <hbond:GLU:85>  (77) 
hbond:GLU:85    0.0
hbond:GLU:85      0
Name: 76, dtype: object

>  <halogenbond:GLU:85>  (77) 
halogenbond:GLU:85    0.0
halogenbond:GLU:85      0
Name: 76, dtype: object

>  <saltbridge:GLU:85>  (77) 
saltbridge:GLU:85    NaN
saltbridge:GLU:85     -1
Name: 76, dtype: object

>  <halogenbond:ALA:86>  (77) 
halogenbond:ALA:86    0.0
halogenbond:ALA:86      0
Name: 76, dtype: object

>  <hbond:ALA:86>  (77) 
hbond:ALA:86    0.0
hbond:ALA:86      0
Name: 76, dtype: object

>  <hydroph_interaction:ALA:86>  (77) 
hydroph_interaction:ALA:86    NaN
hydroph_interaction:ALA:86     -1
Name: 76, dtype: object

>  <hbond:SER:87>  (77) 
hbond:SER:87    0
hbond:SER:87    0
Name: 76, dtype: object

>  <halogenbond:SER:87>  (77) 
halogenbond:SER:87    NaN
halogenbond:SER:87     -1
Name: 76, dtype: object

>  <hbond:GLU:88>  (77) 
hbond:GLU:88    0.0
hbond:GLU:88      0
Name: 76, dtype: object

>  <hydroph_interaction:GLU:88>  (77) 
hydroph_interaction:GLU:88    0.0
hydroph_interaction:GLU:88      0
Name: 76, dtype: object

>  <halogenbond:GLU:88>  (77) 
halogenbond:GLU:88    NaN
halogenbond:GLU:88     -1
Name: 76, dtype: object

>  <saltbridge:GLU:88>  (77) 
saltbridge:GLU:88    NaN
saltbridge:GLU:88     -1
Name: 76, dtype: object

>  <hydroph_interaction:TYR:89>  (77) 
hydroph_interaction:TYR:89    0.0
hydroph_interaction:TYR:89      0
Name: 76, dtype: object

>  <pistack:TYR:89>  (77) 
pistack:TYR:89    NaN
pistack:TYR:89     -1
Name: 76, dtype: object

>  <hbond:TYR:89>  (77) 
hbond:TYR:89    NaN
hbond:TYR:89     -1
Name: 76, dtype: object

>  <halogenbond:TYR:89>  (77) 
halogenbond:TYR:89    NaN
halogenbond:TYR:89     -1
Name: 76, dtype: object

>  <hydroph_interaction:TYR:90>  (77) 
hydroph_interaction:TYR:90    2.0
hydroph_interaction:TYR:90      2
Name: 76, dtype: object

>  <hbond:TYR:90>  (77) 
hbond:TYR:90    NaN
hbond:TYR:90     -1
Name: 76, dtype: object

>  <pistack:TYR:90>  (77) 
pistack:TYR:90    NaN
pistack:TYR:90     -1
Name: 76, dtype: object

>  <halogenbond:TYR:90>  (77) 
halogenbond:TYR:90    NaN
halogenbond:TYR:90     -1
Name: 76, dtype: object

>  <pication:TYR:90>  (77) 
pication:TYR:90    NaN
pication:TYR:90     -1
Name: 76, dtype: object

>  <hbond:PRO:91>  (77) 
hbond:PRO:91    NaN
hbond:PRO:91     -1
Name: 76, dtype: object

>  <hydroph_interaction:PRO:91>  (77) 
hydroph_interaction:PRO:91    NaN
hydroph_interaction:PRO:91     -1
Name: 76, dtype: object

>  <halogenbond:PRO:91>  (77) 
halogenbond:PRO:91    NaN
halogenbond:PRO:91     -1
Name: 76, dtype: object

>  <hbond:ALA:92>  (77) 
hbond:ALA:92    NaN
hbond:ALA:92     -1
Name: 76, dtype: object

>  <hydroph_interaction:ALA:92>  (77) 
hydroph_interaction:ALA:92    NaN
hydroph_interaction:ALA:92     -1
Name: 76, dtype: object

>  <saltbridge:ARG:93>  (77) 
saltbridge:ARG:93    NaN
saltbridge:ARG:93     -1
Name: 76, dtype: object

>  <hbond:ARG:93>  (77) 
hbond:ARG:93    NaN
hbond:ARG:93     -1
Name: 76, dtype: object

>  <hydroph_interaction:ARG:93>  (77) 
hydroph_interaction:ARG:93    NaN
hydroph_interaction:ARG:93     -1
Name: 76, dtype: object

>  <halogenbond:ARG:93>  (77) 
halogenbond:ARG:93    NaN
halogenbond:ARG:93     -1
Name: 76, dtype: object

>  <pication:ARG:93>  (77) 
pication:ARG:93    NaN
pication:ARG:93     -1
Name: 76, dtype: object

>  <hydroph_interaction:TYR:94>  (77) 
hydroph_interaction:TYR:94    NaN
hydroph_interaction:TYR:94     -1
Name: 76, dtype: object

>  <pistack:TYR:94>  (77) 
pistack:TYR:94    NaN
pistack:TYR:94     -1
Name: 76, dtype: object

>  <hbond:TYR:94>  (77) 
hbond:TYR:94    NaN
hbond:TYR:94     -1
Name: 76, dtype: object

>  <hbond:GLN:95>  (77) 
hbond:GLN:95    NaN
hbond:GLN:95     -1
Name: 76, dtype: object

>  <hydroph_interaction:GLN:95>  (77) 
hydroph_interaction:GLN:95    NaN
hydroph_interaction:GLN:95     -1
Name: 76, dtype: object

>  <halogenbond:GLN:95>  (77) 
halogenbond:GLN:95    NaN
halogenbond:GLN:95     -1
Name: 76, dtype: object

>  <hbond:SER:96>  (77) 
hbond:SER:96    NaN
hbond:SER:96     -1
Name: 76, dtype: object

>  <halogenbond:HIS:97>  (77) 
halogenbond:HIS:97    NaN
halogenbond:HIS:97     -1
Name: 76, dtype: object

>  <hydroph_interaction:LEU:98>  (77) 
hydroph_interaction:LEU:98    0.0
hydroph_interaction:LEU:98      0
Name: 76, dtype: object

>  <hbond:LEU:98>  (77) 
hbond:LEU:98    NaN
hbond:LEU:98     -1
Name: 76, dtype: object

>  <halogenbond:LEU:98>  (77) 
halogenbond:LEU:98    NaN
halogenbond:LEU:98     -1
Name: 76, dtype: object

>  <hbond:MET:99>  (77) 
hbond:MET:99    NaN
hbond:MET:99     -1
Name: 76, dtype: object

>  <hydroph_interaction:MET:99>  (77) 
hydroph_interaction:MET:99    NaN
hydroph_interaction:MET:99     -1
Name: 76, dtype: object

>  <halogenbond:MET:99>  (77) 
halogenbond:MET:99    NaN
halogenbond:MET:99     -1
Name: 76, dtype: object

>  <hydroph_interaction:LEU:100>  (77) 
hydroph_interaction:LEU:100    NaN
hydroph_interaction:LEU:100     -1
Name: 76, dtype: object

>  <hbond:LEU:100>  (77) 
hbond:LEU:100    NaN
hbond:LEU:100     -1
Name: 76, dtype: object

>  <hbond:ALA:101>  (77) 
hbond:ALA:101    NaN
hbond:ALA:101     -1
Name: 76, dtype: object

>  <hydroph_interaction:ALA:101>  (77) 
hydroph_interaction:ALA:101    NaN
hydroph_interaction:ALA:101     -1
Name: 76, dtype: object

>  <hydroph_interaction:VAL:102>  (77) 
hydroph_interaction:VAL:102    NaN
hydroph_interaction:VAL:102     -1
Name: 76, dtype: object

>  <hbond:VAL:102>  (77) 
hbond:VAL:102    NaN
hbond:VAL:102     -1
Name: 76, dtype: object

>  <hbond:GLY:103>  (77) 
hbond:GLY:103    NaN
hbond:GLY:103     -1
Name: 76, dtype: object

>  <halogenbond:GLY:103>  (77) 
halogenbond:GLY:103    NaN
halogenbond:GLY:103     -1
Name: 76, dtype: object

>  <hbond:HIS:104>  (77) 
hbond:HIS:104    NaN
hbond:HIS:104     -1
Name: 76, dtype: object

>  <saltbridge:HIS:104>  (77) 
saltbridge:HIS:104    NaN
saltbridge:HIS:104     -1
Name: 76, dtype: object

>  <pication:HIS:104>  (77) 
pication:HIS:104    NaN
pication:HIS:104     -1
Name: 76, dtype: object

>  <halogenbond:HIS:104>  (77) 
halogenbond:HIS:104    NaN
halogenbond:HIS:104     -1
Name: 76, dtype: object

>  <hydroph_interaction:HIS:104>  (77) 
hydroph_interaction:HIS:104    0.0
hydroph_interaction:HIS:104      0
Name: 76, dtype: object

>  <pistack:HIS:104>  (77) 
pistack:HIS:104    NaN
pistack:HIS:104     -1
Name: 76, dtype: object

>  <halogenbond:SER:105>  (77) 
halogenbond:SER:105    0.0
halogenbond:SER:105      0
Name: 76, dtype: object

>  <hbond:SER:105>  (77) 
hbond:SER:105    0.0
hbond:SER:105      0
Name: 76, dtype: object

>  <hbond:GLU:106>  (77) 
hbond:GLU:106    0.0
hbond:GLU:106      0
Name: 76, dtype: object

>  <hydroph_interaction:GLU:106>  (77) 
hydroph_interaction:GLU:106    0.0
hydroph_interaction:GLU:106      0
Name: 76, dtype: object

>  <saltbridge:GLU:106>  (77) 
saltbridge:GLU:106    NaN
saltbridge:GLU:106     -1
Name: 76, dtype: object

>  <halogenbond:GLU:106>  (77) 
halogenbond:GLU:106    NaN
halogenbond:GLU:106     -1
Name: 76, dtype: object

>  <hydroph_interaction:PRO:107>  (77) 
hydroph_interaction:PRO:107    0
hydroph_interaction:PRO:107    0
Name: 76, dtype: object

>  <hbond:PRO:107>  (77) 
hbond:PRO:107    0.0
hbond:PRO:107      0
Name: 76, dtype: object

>  <halogenbond:PRO:107>  (77) 
halogenbond:PRO:107    0.0
halogenbond:PRO:107      0
Name: 76, dtype: object

>  <hbond:GLY:108>  (77) 
hbond:GLY:108    NaN
hbond:GLY:108     -1
Name: 76, dtype: object

>  <halogenbond:GLY:108>  (77) 
halogenbond:GLY:108    NaN
halogenbond:GLY:108     -1
Name: 76, dtype: object

>  <hbond:ASP:109>  (77) 
hbond:ASP:109    0.0
hbond:ASP:109      0
Name: 76, dtype: object

>  <hydroph_interaction:ASP:109>  (77) 
hydroph_interaction:ASP:109    0.0
hydroph_interaction:ASP:109      0
Name: 76, dtype: object

>  <saltbridge:ASP:109>  (77) 
saltbridge:ASP:109    NaN
saltbridge:ASP:109     -1
Name: 76, dtype: object

>  <halogenbond:CYS:110>  (77) 
halogenbond:CYS:110    0.0
halogenbond:CYS:110      0
Name: 76, dtype: object

>  <hbond:CYS:110>  (77) 
hbond:CYS:110    0.0
hbond:CYS:110      0
Name: 76, dtype: object

>  <hbond:GLY:111>  (77) 
hbond:GLY:111    NaN
hbond:GLY:111     -1
Name: 76, dtype: object

>  <hbond:GLY:112>  (77) 
hbond:GLY:112    NaN
hbond:GLY:112     -1
Name: 76, dtype: object

>  <hbond:ILE:113>  (77) 
hbond:ILE:113    NaN
hbond:ILE:113     -1
Name: 76, dtype: object

>  <hydroph_interaction:LEU:114>  (77) 
hydroph_interaction:LEU:114    NaN
hydroph_interaction:LEU:114     -1
Name: 76, dtype: object

>  <hbond:LEU:114>  (77) 
hbond:LEU:114    NaN
hbond:LEU:114     -1
Name: 76, dtype: object

>  <hydroph_interaction:ILE:123>  (77) 
hydroph_interaction:ILE:123    NaN
hydroph_interaction:ILE:123     -1
Name: 76, dtype: object

>  <hbond:ILE:123>  (77) 
hbond:ILE:123    NaN
hbond:ILE:123     -1
Name: 76, dtype: object

>  <hydroph_interaction:VAL:124>  (77) 
hydroph_interaction:VAL:124    1.0
hydroph_interaction:VAL:124      1
Name: 76, dtype: object

>  <hbond:VAL:124>  (77) 
hbond:VAL:124    NaN
hbond:VAL:124     -1
Name: 76, dtype: object

>  <halogenbond:VAL:124>  (77) 
halogenbond:VAL:124    NaN
halogenbond:VAL:124     -1
Name: 76, dtype: object

>  <hbond:SER:125>  (77) 
hbond:SER:125    0
hbond:SER:125    0
Name: 76, dtype: object

>  <halogenbond:SER:125>  (77) 
halogenbond:SER:125    0.0
halogenbond:SER:125      0
Name: 76, dtype: object

>  <hydroph_interaction:THR:126>  (77) 
hydroph_interaction:THR:126    1.0
hydroph_interaction:THR:126      1
Name: 76, dtype: object

>  <hbond:THR:126>  (77) 
hbond:THR:126    0.0
hbond:THR:126      0
Name: 76, dtype: object

>  <halogenbond:THR:126>  (77) 
halogenbond:THR:126    NaN
halogenbond:THR:126     -1
Name: 76, dtype: object

>  <hbond:GLY:127>  (77) 
hbond:GLY:127    1
hbond:GLY:127    1
Name: 76, dtype: object

>  <halogenbond:GLY:127>  (77) 
halogenbond:GLY:127    0.0
halogenbond:GLY:127      0
Name: 76, dtype: object

>  <hydroph_interaction:GLY:127>  (77) 
hydroph_interaction:GLY:127    NaN
hydroph_interaction:GLY:127     -1
Name: 76, dtype: object

>  <hbond:GLY:128>  (77) 
hbond:GLY:128    NaN
hbond:GLY:128     -1
Name: 76, dtype: object

>  <halogenbond:GLY:128>  (77) 
halogenbond:GLY:128    NaN
halogenbond:GLY:128     -1
Name: 76, dtype: object

>  <hydroph_interaction:GLY:128>  (77) 
hydroph_interaction:GLY:128    NaN
hydroph_interaction:GLY:128     -1
Name: 76, dtype: object

>  <hbond:ASN:129>  (77) 
hbond:ASN:129    NaN
hbond:ASN:129     -1
Name: 76, dtype: object

>  <hydroph_interaction:ASN:129>  (77) 
hydroph_interaction:ASN:129    NaN
hydroph_interaction:ASN:129     -1
Name: 76, dtype: object

>  <halogenbond:ASN:129>  (77) 
halogenbond:ASN:129    NaN
halogenbond:ASN:129     -1
Name: 76, dtype: object

>  <hbond:GLY:130>  (77) 
hbond:GLY:130    NaN
hbond:GLY:130     -1
Name: 76, dtype: object

>  <hbond:LEU:131>  (77) 
hbond:LEU:131    NaN
hbond:LEU:131     -1
Name: 76, dtype: object

>  <hydroph_interaction:LEU:131>  (77) 
hydroph_interaction:LEU:131    NaN
hydroph_interaction:LEU:131     -1
Name: 76, dtype: object

>  <halogenbond:LEU:131>  (77) 
halogenbond:LEU:131    NaN
halogenbond:LEU:131     -1
Name: 76, dtype: object

>  <hydroph_interaction:VAL:132>  (77) 
hydroph_interaction:VAL:132    0.0
hydroph_interaction:VAL:132      0
Name: 76, dtype: object

>  <hbond:VAL:132>  (77) 
hbond:VAL:132    NaN
hbond:VAL:132     -1
Name: 76, dtype: object

>  <hbond:GLY:133>  (77) 
hbond:GLY:133    0.0
hbond:GLY:133      0
Name: 76, dtype: object

>  <halogenbond:GLY:133>  (77) 
halogenbond:GLY:133    0.0
halogenbond:GLY:133      0
Name: 76, dtype: object

>  <hydroph_interaction:PHE:134>  (77) 
hydroph_interaction:PHE:134    0.0
hydroph_interaction:PHE:134      0
Name: 76, dtype: object

>  <hbond:PHE:134>  (77) 
hbond:PHE:134    NaN
hbond:PHE:134     -1
Name: 76, dtype: object

>  <pistack:PHE:134>  (77) 
pistack:PHE:134    NaN
pistack:PHE:134     -1
Name: 76, dtype: object

>  <pication:PHE:134>  (77) 
pication:PHE:134    NaN
pication:PHE:134     -1
Name: 76, dtype: object

>  <halogenbond:PHE:134>  (77) 
halogenbond:PHE:134    NaN
halogenbond:PHE:134     -1
Name: 76, dtype: object

>  <hydroph_interaction:ALA:135>  (77) 
hydroph_interaction:ALA:135    NaN
hydroph_interaction:ALA:135     -1
Name: 76, dtype: object

>  <hbond:ALA:135>  (77) 
hbond:ALA:135    NaN
hbond:ALA:135     -1
Name: 76, dtype: object

$$$$
PV_006183689828
     RDKit          3D

 28 29  0  0  0  0  0  0  0  0999 V2000
    9.7500    9.1410   22.8240 C   0  0  0  0  0  0  0  0  0  0  0  0
    9.6100   10.4920   23.2850 N   0  0  0  0  0  0  0  0  0  0  0  0
   10.4930   11.4230   22.7850 N   0  0  0  0  0  0  0  0  0  0  0  0
   10.1500   12.5740   23.3650 C   0  0  0  0  0  0  0  0  0  0  0  0
   10.9460   13.8410   23.0590 C   0  0  0  0  0  0  0  0  0  0  0  0
   11.0360   14.1460   21.6450 N   0  0  0  0  0  0  0  0  0  0  0  0
   11.9490   14.9510   21.0950 C   0  0  0  0  0  0  0  0  0  0  0  0
   12.6340   15.8830   21.6130 N   0  0  0  0  0  0  0  0  0  0  0  0
   12.0870   14.6370   19.8030 N   0  0  0  0  0  0  0  0  0  0  0  0
    8.9990   12.3430   24.2420 C   0  0  0  0  0  0  0  0  0  0  0  0
    8.3020   13.2710   25.0300 C   0  0  0  0  0  0  0  0  0  0  0  0
    7.1740   12.7470   25.8370 C   0  0  0  0  0  0  0  0  0  0  0  0
    6.8540   11.3140   25.7740 C   0  0  0  0  0  0  0  0  0  0  0  0
    7.6280   10.4900   24.9430 C   0  0  0  0  0  0  0  0  0  0  0  0
    8.6920   11.0020   24.1760 C   0  0  0  0  0  0  0  0  0  0  0  0
    8.7660    8.6900   22.7470 H   0  0  0  0  0  0  0  0  0  0  0  0
   10.2130    9.1470   21.8330 H   0  0  0  0  0  0  0  0  0  0  0  0
   10.3720    8.5420   23.4860 H   0  0  0  0  0  0  0  0  0  0  0  0
   11.9730   13.8940   23.4160 H   0  0  0  0  0  0  0  0  0  0  0  0
   10.4640   14.6700   23.5740 H   0  0  0  0  0  0  0  0  0  0  0  0
   10.9930   13.2690   21.1080 H   0  0  0  0  0  0  0  0  0  0  0  0
   13.2320   16.2920   20.8970 H   0  0  0  0  0  0  0  0  0  0  0  0
   11.9990   13.6250   19.6960 H   0  0  0  0  0  0  0  0  0  0  0  0
   11.3430   15.0890   19.2840 H   0  0  0  0  0  0  0  0  0  0  0  0
    8.6370   14.3150   24.9990 H   0  0  0  0  0  0  0  0  0  0  0  0
    6.5890   13.4210   26.4730 H   0  0  0  0  0  0  0  0  0  0  0  0
    6.0350   10.8970   26.3570 H   0  0  0  0  0  0  0  0  0  0  0  0
    7.3980    9.4420   24.8910 H   0  0  0  0  0  0  0  0  0  0  0  0
  1  2  1  0
  2  3  1  0
  3  4  2  0
  4  5  1  0
  5  6  1  0
  6  7  1  0
  7  8  2  3
  7  9  1  0
  4 10  1  0
 10 11  2  0
 11 12  1  0
 12 13  2  0
 13 14  1  0
 14 15  2  0
 15  2  1  0
 15 10  1  0
  1 16  1  0
  1 17  1  0
  1 18  1  0
  5 19  1  0
  5 20  1  0
  6 21  1  0
  8 22  1  0
  9 23  1  0
  9 24  1  0
 11 25  1  0
 12 26  1  0
 13 27  1  0
 14 28  1  0
A    1
 C1 
A    2
 N1 
A    3
 N2 
A    4
 C2 
A    5
 C3 
A    6
 N3 
A    7
 C4 
A    8
 N4 
A    9
 N5 
A   10
 C5 
A   11
 C6 
A   12
 C7 
A   13
 C8 
A   14
 C9 
A   15
 C10
A   16
 H1 
A   17
 H2 
A   18
 H3 
A   19
 H4 
A   20
 H5 
A   21
 H6 
A   22
 H7 
A   23
 H8 
A   24
 H9 
A   25
 H10
A   26
 H11
A   27
 H12
A   28
 H13
M  END
>  <ref_pdb>  (78) 
x0310_0A

>  <ref_mols>  (78) 
x0554_0A,x0451_0A

>  <original SMILES>  (78) 
Cn1nc(CNC(=N)N)c2ccccc21

>  <rationale>  (78) 
info halogenbond:C110+G127+D39+A86+S125+E85+Q95+E106+T126+H104+Y64+C65+S87+N129+F83+R93+L131+I82+G128+P91+N19+H21+V84+G133+Y90+Y89+H97+L81+F134+L98+R20+G103+S66+S67+S7+G108+R38+V124+M99+S36; hbond:S87+S125+E88+C110+E85+G108+G103+G128+G130+L131+N129+N19+H104+R68+V124+R93+P91+F83+S67+S7+S66+G112+G133+V132+R20+Y89+S77+A135+Y63+A92+A101+M99+F134+L100+I82+Y64+S36+L98+V84+L81+Y94+S80+R38+S37+V102+G8+I123+G111+I113+L114+C65+L22+S96; hydroph_interaction:P107+L22+E85+D109+N129+D39+N19+L40+I123+A135+Q95+I82+L100+L98+L131+F83+R93+V132+Y63+F134+H104+R20+A86+V74+P91+A101+F76+M99+L114+A92+Y94+R68+Y72+Y64+V18+V102+W28+G127+G128+L81; pication:H21+H104+R93+Y63+F134+Y90+R68+F83+R20; pistack:H21+Y89+Y90+H104+F134+Y63+F83+Y94; saltbridge:D39+R93+H104+E106+D109+E85+E88+R68+R20; 

>  <intxn_cluster>  (78) 
-1

>  <intxn_cluster_rank>  (78) 
-1

>  <N_interactions>  (78) 
6

>  <∆∆G>  (78) 
-7.915888

>  <$/mg>  (78) 
163.0

>  <comRMSD>  (78) 
0.561408

>  <N_rotatable_bonds>  (78) 
3

>  <deep_P1_sidechain>  (78) 
nan

>  <farthest_distance_to_substrate>  (78) 
2.658167

>  <hbond:SER:7>  (78) 
hbond:SER:7    NaN
hbond:SER:7     -1
Name: 77, dtype: object

>  <halogenbond:SER:7>  (78) 
halogenbond:SER:7    NaN
halogenbond:SER:7     -1
Name: 77, dtype: object

>  <hbond:GLY:8>  (78) 
hbond:GLY:8    NaN
hbond:GLY:8     -1
Name: 77, dtype: object

>  <hydroph_interaction:VAL:18>  (78) 
hydroph_interaction:VAL:18    NaN
hydroph_interaction:VAL:18     -1
Name: 77, dtype: object

>  <hbond:ASN:19>  (78) 
hbond:ASN:19    NaN
hbond:ASN:19     -1
Name: 77, dtype: object

>  <hydroph_interaction:ASN:19>  (78) 
hydroph_interaction:ASN:19    NaN
hydroph_interaction:ASN:19     -1
Name: 77, dtype: object

>  <halogenbond:ASN:19>  (78) 
halogenbond:ASN:19    NaN
halogenbond:ASN:19     -1
Name: 77, dtype: object

>  <hbond:ARG:20>  (78) 
hbond:ARG:20    NaN
hbond:ARG:20     -1
Name: 77, dtype: object

>  <hydroph_interaction:ARG:20>  (78) 
hydroph_interaction:ARG:20    NaN
hydroph_interaction:ARG:20     -1
Name: 77, dtype: object

>  <saltbridge:ARG:20>  (78) 
saltbridge:ARG:20    NaN
saltbridge:ARG:20     -1
Name: 77, dtype: object

>  <halogenbond:ARG:20>  (78) 
halogenbond:ARG:20    NaN
halogenbond:ARG:20     -1
Name: 77, dtype: object

>  <pication:ARG:20>  (78) 
pication:ARG:20    NaN
pication:ARG:20     -1
Name: 77, dtype: object

>  <hbond:HIS:21>  (78) 
hbond:HIS:21    0.0
hbond:HIS:21      0
Name: 77, dtype: object

>  <hydroph_interaction:HIS:21>  (78) 
hydroph_interaction:HIS:21    0.0
hydroph_interaction:HIS:21      0
Name: 77, dtype: object

>  <pistack:HIS:21>  (78) 
pistack:HIS:21    NaN
pistack:HIS:21     -1
Name: 77, dtype: object

>  <pication:HIS:21>  (78) 
pication:HIS:21    1.0
pication:HIS:21      1
Name: 77, dtype: object

>  <saltbridge:HIS:21>  (78) 
saltbridge:HIS:21    0.0
saltbridge:HIS:21      0
Name: 77, dtype: object

>  <halogenbond:HIS:21>  (78) 
halogenbond:HIS:21    NaN
halogenbond:HIS:21     -1
Name: 77, dtype: object

>  <hydroph_interaction:LEU:22>  (78) 
hydroph_interaction:LEU:22    NaN
hydroph_interaction:LEU:22     -1
Name: 77, dtype: object

>  <hbond:LEU:22>  (78) 
hbond:LEU:22    NaN
hbond:LEU:22     -1
Name: 77, dtype: object

>  <hydroph_interaction:TRP:28>  (78) 
hydroph_interaction:TRP:28    NaN
hydroph_interaction:TRP:28     -1
Name: 77, dtype: object

>  <hbond:SER:36>  (78) 
hbond:SER:36    NaN
hbond:SER:36     -1
Name: 77, dtype: object

>  <halogenbond:SER:36>  (78) 
halogenbond:SER:36    NaN
halogenbond:SER:36     -1
Name: 77, dtype: object

>  <hbond:SER:37>  (78) 
hbond:SER:37    NaN
hbond:SER:37     -1
Name: 77, dtype: object

>  <hbond:ARG:38>  (78) 
hbond:ARG:38    NaN
hbond:ARG:38     -1
Name: 77, dtype: object

>  <halogenbond:ARG:38>  (78) 
halogenbond:ARG:38    NaN
halogenbond:ARG:38     -1
Name: 77, dtype: object

>  <saltbridge:ASP:39>  (78) 
saltbridge:ASP:39    1.0
saltbridge:ASP:39      1
Name: 77, dtype: object

>  <halogenbond:ASP:39>  (78) 
halogenbond:ASP:39    NaN
halogenbond:ASP:39     -1
Name: 77, dtype: object

>  <hbond:ASP:39>  (78) 
hbond:ASP:39    0.0
hbond:ASP:39      0
Name: 77, dtype: object

>  <hydroph_interaction:ASP:39>  (78) 
hydroph_interaction:ASP:39    NaN
hydroph_interaction:ASP:39     -1
Name: 77, dtype: object

>  <hydroph_interaction:LEU:40>  (78) 
hydroph_interaction:LEU:40    NaN
hydroph_interaction:LEU:40     -1
Name: 77, dtype: object

>  <hydroph_interaction:TYR:63>  (78) 
hydroph_interaction:TYR:63    NaN
hydroph_interaction:TYR:63     -1
Name: 77, dtype: object

>  <hbond:TYR:63>  (78) 
hbond:TYR:63    NaN
hbond:TYR:63     -1
Name: 77, dtype: object

>  <pistack:TYR:63>  (78) 
pistack:TYR:63    NaN
pistack:TYR:63     -1
Name: 77, dtype: object

>  <pication:TYR:63>  (78) 
pication:TYR:63    NaN
pication:TYR:63     -1
Name: 77, dtype: object

>  <halogenbond:TYR:64>  (78) 
halogenbond:TYR:64    NaN
halogenbond:TYR:64     -1
Name: 77, dtype: object

>  <hbond:TYR:64>  (78) 
hbond:TYR:64    NaN
hbond:TYR:64     -1
Name: 77, dtype: object

>  <hydroph_interaction:TYR:64>  (78) 
hydroph_interaction:TYR:64    NaN
hydroph_interaction:TYR:64     -1
Name: 77, dtype: object

>  <halogenbond:CYS:65>  (78) 
halogenbond:CYS:65    NaN
halogenbond:CYS:65     -1
Name: 77, dtype: object

>  <hbond:CYS:65>  (78) 
hbond:CYS:65    NaN
hbond:CYS:65     -1
Name: 77, dtype: object

>  <hbond:SER:66>  (78) 
hbond:SER:66    NaN
hbond:SER:66     -1
Name: 77, dtype: object

>  <halogenbond:SER:66>  (78) 
halogenbond:SER:66    NaN
halogenbond:SER:66     -1
Name: 77, dtype: object

>  <hbond:SER:67>  (78) 
hbond:SER:67    NaN
hbond:SER:67     -1
Name: 77, dtype: object

>  <halogenbond:SER:67>  (78) 
halogenbond:SER:67    NaN
halogenbond:SER:67     -1
Name: 77, dtype: object

>  <hbond:ARG:68>  (78) 
hbond:ARG:68    NaN
hbond:ARG:68     -1
Name: 77, dtype: object

>  <saltbridge:ARG:68>  (78) 
saltbridge:ARG:68    NaN
saltbridge:ARG:68     -1
Name: 77, dtype: object

>  <hydroph_interaction:ARG:68>  (78) 
hydroph_interaction:ARG:68    NaN
hydroph_interaction:ARG:68     -1
Name: 77, dtype: object

>  <pication:ARG:68>  (78) 
pication:ARG:68    NaN
pication:ARG:68     -1
Name: 77, dtype: object

>  <hydroph_interaction:TYR:72>  (78) 
hydroph_interaction:TYR:72    NaN
hydroph_interaction:TYR:72     -1
Name: 77, dtype: object

>  <hydroph_interaction:VAL:74>  (78) 
hydroph_interaction:VAL:74    NaN
hydroph_interaction:VAL:74     -1
Name: 77, dtype: object

>  <hydroph_interaction:PHE:76>  (78) 
hydroph_interaction:PHE:76    NaN
hydroph_interaction:PHE:76     -1
Name: 77, dtype: object

>  <hbond:SER:77>  (78) 
hbond:SER:77    NaN
hbond:SER:77     -1
Name: 77, dtype: object

>  <hbond:SER:80>  (78) 
hbond:SER:80    NaN
hbond:SER:80     -1
Name: 77, dtype: object

>  <hbond:LEU:81>  (78) 
hbond:LEU:81    NaN
hbond:LEU:81     -1
Name: 77, dtype: object

>  <halogenbond:LEU:81>  (78) 
halogenbond:LEU:81    NaN
halogenbond:LEU:81     -1
Name: 77, dtype: object

>  <hydroph_interaction:LEU:81>  (78) 
hydroph_interaction:LEU:81    NaN
hydroph_interaction:LEU:81     -1
Name: 77, dtype: object

>  <hydroph_interaction:ILE:82>  (78) 
hydroph_interaction:ILE:82    NaN
hydroph_interaction:ILE:82     -1
Name: 77, dtype: object

>  <halogenbond:ILE:82>  (78) 
halogenbond:ILE:82    NaN
halogenbond:ILE:82     -1
Name: 77, dtype: object

>  <hbond:ILE:82>  (78) 
hbond:ILE:82    NaN
hbond:ILE:82     -1
Name: 77, dtype: object

>  <hbond:PHE:83>  (78) 
hbond:PHE:83    NaN
hbond:PHE:83     -1
Name: 77, dtype: object

>  <hydroph_interaction:PHE:83>  (78) 
hydroph_interaction:PHE:83    NaN
hydroph_interaction:PHE:83     -1
Name: 77, dtype: object

>  <halogenbond:PHE:83>  (78) 
halogenbond:PHE:83    NaN
halogenbond:PHE:83     -1
Name: 77, dtype: object

>  <pistack:PHE:83>  (78) 
pistack:PHE:83    NaN
pistack:PHE:83     -1
Name: 77, dtype: object

>  <pication:PHE:83>  (78) 
pication:PHE:83    NaN
pication:PHE:83     -1
Name: 77, dtype: object

>  <hydroph_interaction:VAL:84>  (78) 
hydroph_interaction:VAL:84    0.0
hydroph_interaction:VAL:84      0
Name: 77, dtype: object

>  <halogenbond:VAL:84>  (78) 
halogenbond:VAL:84    NaN
halogenbond:VAL:84     -1
Name: 77, dtype: object

>  <hbond:VAL:84>  (78) 
hbond:VAL:84    NaN
hbond:VAL:84     -1
Name: 77, dtype: object

>  <hydroph_interaction:GLU:85>  (78) 
hydroph_interaction:GLU:85    NaN
hydroph_interaction:GLU:85     -1
Name: 77, dtype: object

>  <hbond:GLU:85>  (78) 
hbond:GLU:85    NaN
hbond:GLU:85     -1
Name: 77, dtype: object

>  <halogenbond:GLU:85>  (78) 
halogenbond:GLU:85    NaN
halogenbond:GLU:85     -1
Name: 77, dtype: object

>  <saltbridge:GLU:85>  (78) 
saltbridge:GLU:85    NaN
saltbridge:GLU:85     -1
Name: 77, dtype: object

>  <halogenbond:ALA:86>  (78) 
halogenbond:ALA:86    NaN
halogenbond:ALA:86     -1
Name: 77, dtype: object

>  <hbond:ALA:86>  (78) 
hbond:ALA:86    0.0
hbond:ALA:86      0
Name: 77, dtype: object

>  <hydroph_interaction:ALA:86>  (78) 
hydroph_interaction:ALA:86    NaN
hydroph_interaction:ALA:86     -1
Name: 77, dtype: object

>  <hbond:SER:87>  (78) 
hbond:SER:87    1
hbond:SER:87    1
Name: 77, dtype: object

>  <halogenbond:SER:87>  (78) 
halogenbond:SER:87    NaN
halogenbond:SER:87     -1
Name: 77, dtype: object

>  <hbond:GLU:88>  (78) 
hbond:GLU:88    1.0
hbond:GLU:88      1
Name: 77, dtype: object

>  <hydroph_interaction:GLU:88>  (78) 
hydroph_interaction:GLU:88    0.0
hydroph_interaction:GLU:88      0
Name: 77, dtype: object

>  <halogenbond:GLU:88>  (78) 
halogenbond:GLU:88    0.0
halogenbond:GLU:88      0
Name: 77, dtype: object

>  <saltbridge:GLU:88>  (78) 
saltbridge:GLU:88    NaN
saltbridge:GLU:88     -1
Name: 77, dtype: object

>  <hydroph_interaction:TYR:89>  (78) 
hydroph_interaction:TYR:89    0.0
hydroph_interaction:TYR:89      0
Name: 77, dtype: object

>  <pistack:TYR:89>  (78) 
pistack:TYR:89    NaN
pistack:TYR:89     -1
Name: 77, dtype: object

>  <hbond:TYR:89>  (78) 
hbond:TYR:89    NaN
hbond:TYR:89     -1
Name: 77, dtype: object

>  <halogenbond:TYR:89>  (78) 
halogenbond:TYR:89    NaN
halogenbond:TYR:89     -1
Name: 77, dtype: object

>  <hydroph_interaction:TYR:90>  (78) 
hydroph_interaction:TYR:90    0.0
hydroph_interaction:TYR:90      0
Name: 77, dtype: object

>  <hbond:TYR:90>  (78) 
hbond:TYR:90    0.0
hbond:TYR:90      0
Name: 77, dtype: object

>  <pistack:TYR:90>  (78) 
pistack:TYR:90    NaN
pistack:TYR:90     -1
Name: 77, dtype: object

>  <halogenbond:TYR:90>  (78) 
halogenbond:TYR:90    NaN
halogenbond:TYR:90     -1
Name: 77, dtype: object

>  <pication:TYR:90>  (78) 
pication:TYR:90    NaN
pication:TYR:90     -1
Name: 77, dtype: object

>  <hbond:PRO:91>  (78) 
hbond:PRO:91    NaN
hbond:PRO:91     -1
Name: 77, dtype: object

>  <hydroph_interaction:PRO:91>  (78) 
hydroph_interaction:PRO:91    NaN
hydroph_interaction:PRO:91     -1
Name: 77, dtype: object

>  <halogenbond:PRO:91>  (78) 
halogenbond:PRO:91    NaN
halogenbond:PRO:91     -1
Name: 77, dtype: object

>  <hbond:ALA:92>  (78) 
hbond:ALA:92    NaN
hbond:ALA:92     -1
Name: 77, dtype: object

>  <hydroph_interaction:ALA:92>  (78) 
hydroph_interaction:ALA:92    NaN
hydroph_interaction:ALA:92     -1
Name: 77, dtype: object

>  <saltbridge:ARG:93>  (78) 
saltbridge:ARG:93    NaN
saltbridge:ARG:93     -1
Name: 77, dtype: object

>  <hbond:ARG:93>  (78) 
hbond:ARG:93    NaN
hbond:ARG:93     -1
Name: 77, dtype: object

>  <hydroph_interaction:ARG:93>  (78) 
hydroph_interaction:ARG:93    NaN
hydroph_interaction:ARG:93     -1
Name: 77, dtype: object

>  <halogenbond:ARG:93>  (78) 
halogenbond:ARG:93    NaN
halogenbond:ARG:93     -1
Name: 77, dtype: object

>  <pication:ARG:93>  (78) 
pication:ARG:93    NaN
pication:ARG:93     -1
Name: 77, dtype: object

>  <hydroph_interaction:TYR:94>  (78) 
hydroph_interaction:TYR:94    NaN
hydroph_interaction:TYR:94     -1
Name: 77, dtype: object

>  <pistack:TYR:94>  (78) 
pistack:TYR:94    NaN
pistack:TYR:94     -1
Name: 77, dtype: object

>  <hbond:TYR:94>  (78) 
hbond:TYR:94    NaN
hbond:TYR:94     -1
Name: 77, dtype: object

>  <hbond:GLN:95>  (78) 
hbond:GLN:95    0.0
hbond:GLN:95      0
Name: 77, dtype: object

>  <hydroph_interaction:GLN:95>  (78) 
hydroph_interaction:GLN:95    NaN
hydroph_interaction:GLN:95     -1
Name: 77, dtype: object

>  <halogenbond:GLN:95>  (78) 
halogenbond:GLN:95    NaN
halogenbond:GLN:95     -1
Name: 77, dtype: object

>  <hbond:SER:96>  (78) 
hbond:SER:96    NaN
hbond:SER:96     -1
Name: 77, dtype: object

>  <halogenbond:HIS:97>  (78) 
halogenbond:HIS:97    NaN
halogenbond:HIS:97     -1
Name: 77, dtype: object

>  <hydroph_interaction:LEU:98>  (78) 
hydroph_interaction:LEU:98    NaN
hydroph_interaction:LEU:98     -1
Name: 77, dtype: object

>  <hbond:LEU:98>  (78) 
hbond:LEU:98    NaN
hbond:LEU:98     -1
Name: 77, dtype: object

>  <halogenbond:LEU:98>  (78) 
halogenbond:LEU:98    NaN
halogenbond:LEU:98     -1
Name: 77, dtype: object

>  <hbond:MET:99>  (78) 
hbond:MET:99    NaN
hbond:MET:99     -1
Name: 77, dtype: object

>  <hydroph_interaction:MET:99>  (78) 
hydroph_interaction:MET:99    NaN
hydroph_interaction:MET:99     -1
Name: 77, dtype: object

>  <halogenbond:MET:99>  (78) 
halogenbond:MET:99    NaN
halogenbond:MET:99     -1
Name: 77, dtype: object

>  <hydroph_interaction:LEU:100>  (78) 
hydroph_interaction:LEU:100    NaN
hydroph_interaction:LEU:100     -1
Name: 77, dtype: object

>  <hbond:LEU:100>  (78) 
hbond:LEU:100    NaN
hbond:LEU:100     -1
Name: 77, dtype: object

>  <hbond:ALA:101>  (78) 
hbond:ALA:101    NaN
hbond:ALA:101     -1
Name: 77, dtype: object

>  <hydroph_interaction:ALA:101>  (78) 
hydroph_interaction:ALA:101    NaN
hydroph_interaction:ALA:101     -1
Name: 77, dtype: object

>  <hydroph_interaction:VAL:102>  (78) 
hydroph_interaction:VAL:102    NaN
hydroph_interaction:VAL:102     -1
Name: 77, dtype: object

>  <hbond:VAL:102>  (78) 
hbond:VAL:102    NaN
hbond:VAL:102     -1
Name: 77, dtype: object

>  <hbond:GLY:103>  (78) 
hbond:GLY:103    NaN
hbond:GLY:103     -1
Name: 77, dtype: object

>  <halogenbond:GLY:103>  (78) 
halogenbond:GLY:103    NaN
halogenbond:GLY:103     -1
Name: 77, dtype: object

>  <hbond:HIS:104>  (78) 
hbond:HIS:104    NaN
hbond:HIS:104     -1
Name: 77, dtype: object

>  <saltbridge:HIS:104>  (78) 
saltbridge:HIS:104    NaN
saltbridge:HIS:104     -1
Name: 77, dtype: object

>  <pication:HIS:104>  (78) 
pication:HIS:104    NaN
pication:HIS:104     -1
Name: 77, dtype: object

>  <halogenbond:HIS:104>  (78) 
halogenbond:HIS:104    NaN
halogenbond:HIS:104     -1
Name: 77, dtype: object

>  <hydroph_interaction:HIS:104>  (78) 
hydroph_interaction:HIS:104    NaN
hydroph_interaction:HIS:104     -1
Name: 77, dtype: object

>  <pistack:HIS:104>  (78) 
pistack:HIS:104    NaN
pistack:HIS:104     -1
Name: 77, dtype: object

>  <halogenbond:SER:105>  (78) 
halogenbond:SER:105    0.0
halogenbond:SER:105      0
Name: 77, dtype: object

>  <hbond:SER:105>  (78) 
hbond:SER:105    0.0
hbond:SER:105      0
Name: 77, dtype: object

>  <hbond:GLU:106>  (78) 
hbond:GLU:106    0.0
hbond:GLU:106      0
Name: 77, dtype: object

>  <hydroph_interaction:GLU:106>  (78) 
hydroph_interaction:GLU:106    0.0
hydroph_interaction:GLU:106      0
Name: 77, dtype: object

>  <saltbridge:GLU:106>  (78) 
saltbridge:GLU:106    NaN
saltbridge:GLU:106     -1
Name: 77, dtype: object

>  <halogenbond:GLU:106>  (78) 
halogenbond:GLU:106    NaN
halogenbond:GLU:106     -1
Name: 77, dtype: object

>  <hydroph_interaction:PRO:107>  (78) 
hydroph_interaction:PRO:107    1
hydroph_interaction:PRO:107    1
Name: 77, dtype: object

>  <hbond:PRO:107>  (78) 
hbond:PRO:107    0.0
hbond:PRO:107      0
Name: 77, dtype: object

>  <halogenbond:PRO:107>  (78) 
halogenbond:PRO:107    0.0
halogenbond:PRO:107      0
Name: 77, dtype: object

>  <hbond:GLY:108>  (78) 
hbond:GLY:108    NaN
hbond:GLY:108     -1
Name: 77, dtype: object

>  <halogenbond:GLY:108>  (78) 
halogenbond:GLY:108    NaN
halogenbond:GLY:108     -1
Name: 77, dtype: object

>  <hbond:ASP:109>  (78) 
hbond:ASP:109    0.0
hbond:ASP:109      0
Name: 77, dtype: object

>  <hydroph_interaction:ASP:109>  (78) 
hydroph_interaction:ASP:109    NaN
hydroph_interaction:ASP:109     -1
Name: 77, dtype: object

>  <saltbridge:ASP:109>  (78) 
saltbridge:ASP:109    NaN
saltbridge:ASP:109     -1
Name: 77, dtype: object

>  <halogenbond:CYS:110>  (78) 
halogenbond:CYS:110    NaN
halogenbond:CYS:110     -1
Name: 77, dtype: object

>  <hbond:CYS:110>  (78) 
hbond:CYS:110    NaN
hbond:CYS:110     -1
Name: 77, dtype: object

>  <hbond:GLY:111>  (78) 
hbond:GLY:111    NaN
hbond:GLY:111     -1
Name: 77, dtype: object

>  <hbond:GLY:112>  (78) 
hbond:GLY:112    NaN
hbond:GLY:112     -1
Name: 77, dtype: object

>  <hbond:ILE:113>  (78) 
hbond:ILE:113    NaN
hbond:ILE:113     -1
Name: 77, dtype: object

>  <hydroph_interaction:LEU:114>  (78) 
hydroph_interaction:LEU:114    NaN
hydroph_interaction:LEU:114     -1
Name: 77, dtype: object

>  <hbond:LEU:114>  (78) 
hbond:LEU:114    NaN
hbond:LEU:114     -1
Name: 77, dtype: object

>  <hydroph_interaction:ILE:123>  (78) 
hydroph_interaction:ILE:123    NaN
hydroph_interaction:ILE:123     -1
Name: 77, dtype: object

>  <hbond:ILE:123>  (78) 
hbond:ILE:123    NaN
hbond:ILE:123     -1
Name: 77, dtype: object

>  <hydroph_interaction:VAL:124>  (78) 
hydroph_interaction:VAL:124    0.0
hydroph_interaction:VAL:124      0
Name: 77, dtype: object

>  <hbond:VAL:124>  (78) 
hbond:VAL:124    NaN
hbond:VAL:124     -1
Name: 77, dtype: object

>  <halogenbond:VAL:124>  (78) 
halogenbond:VAL:124    NaN
halogenbond:VAL:124     -1
Name: 77, dtype: object

>  <hbond:SER:125>  (78) 
hbond:SER:125    1
hbond:SER:125    1
Name: 77, dtype: object

>  <halogenbond:SER:125>  (78) 
halogenbond:SER:125    NaN
halogenbond:SER:125     -1
Name: 77, dtype: object

>  <hydroph_interaction:THR:126>  (78) 
hydroph_interaction:THR:126    0.0
hydroph_interaction:THR:126      0
Name: 77, dtype: object

>  <hbond:THR:126>  (78) 
hbond:THR:126    0.0
hbond:THR:126      0
Name: 77, dtype: object

>  <halogenbond:THR:126>  (78) 
halogenbond:THR:126    NaN
halogenbond:THR:126     -1
Name: 77, dtype: object

>  <hbond:GLY:127>  (78) 
hbond:GLY:127    0
hbond:GLY:127    0
Name: 77, dtype: object

>  <halogenbond:GLY:127>  (78) 
halogenbond:GLY:127    NaN
halogenbond:GLY:127     -1
Name: 77, dtype: object

>  <hydroph_interaction:GLY:127>  (78) 
hydroph_interaction:GLY:127    NaN
hydroph_interaction:GLY:127     -1
Name: 77, dtype: object

>  <hbond:GLY:128>  (78) 
hbond:GLY:128    NaN
hbond:GLY:128     -1
Name: 77, dtype: object

>  <halogenbond:GLY:128>  (78) 
halogenbond:GLY:128    NaN
halogenbond:GLY:128     -1
Name: 77, dtype: object

>  <hydroph_interaction:GLY:128>  (78) 
hydroph_interaction:GLY:128    NaN
hydroph_interaction:GLY:128     -1
Name: 77, dtype: object

>  <hbond:ASN:129>  (78) 
hbond:ASN:129    NaN
hbond:ASN:129     -1
Name: 77, dtype: object

>  <hydroph_interaction:ASN:129>  (78) 
hydroph_interaction:ASN:129    NaN
hydroph_interaction:ASN:129     -1
Name: 77, dtype: object

>  <halogenbond:ASN:129>  (78) 
halogenbond:ASN:129    NaN
halogenbond:ASN:129     -1
Name: 77, dtype: object

>  <hbond:GLY:130>  (78) 
hbond:GLY:130    NaN
hbond:GLY:130     -1
Name: 77, dtype: object

>  <hbond:LEU:131>  (78) 
hbond:LEU:131    NaN
hbond:LEU:131     -1
Name: 77, dtype: object

>  <hydroph_interaction:LEU:131>  (78) 
hydroph_interaction:LEU:131    NaN
hydroph_interaction:LEU:131     -1
Name: 77, dtype: object

>  <halogenbond:LEU:131>  (78) 
halogenbond:LEU:131    NaN
halogenbond:LEU:131     -1
Name: 77, dtype: object

>  <hydroph_interaction:VAL:132>  (78) 
hydroph_interaction:VAL:132    NaN
hydroph_interaction:VAL:132     -1
Name: 77, dtype: object

>  <hbond:VAL:132>  (78) 
hbond:VAL:132    NaN
hbond:VAL:132     -1
Name: 77, dtype: object

>  <hbond:GLY:133>  (78) 
hbond:GLY:133    NaN
hbond:GLY:133     -1
Name: 77, dtype: object

>  <halogenbond:GLY:133>  (78) 
halogenbond:GLY:133    NaN
halogenbond:GLY:133     -1
Name: 77, dtype: object

>  <hydroph_interaction:PHE:134>  (78) 
hydroph_interaction:PHE:134    NaN
hydroph_interaction:PHE:134     -1
Name: 77, dtype: object

>  <hbond:PHE:134>  (78) 
hbond:PHE:134    NaN
hbond:PHE:134     -1
Name: 77, dtype: object

>  <pistack:PHE:134>  (78) 
pistack:PHE:134    NaN
pistack:PHE:134     -1
Name: 77, dtype: object

>  <pication:PHE:134>  (78) 
pication:PHE:134    NaN
pication:PHE:134     -1
Name: 77, dtype: object

>  <halogenbond:PHE:134>  (78) 
halogenbond:PHE:134    NaN
halogenbond:PHE:134     -1
Name: 77, dtype: object

>  <hydroph_interaction:ALA:135>  (78) 
hydroph_interaction:ALA:135    NaN
hydroph_interaction:ALA:135     -1
Name: 77, dtype: object

>  <hbond:ALA:135>  (78) 
hbond:ALA:135    NaN
hbond:ALA:135     -1
Name: 77, dtype: object

$$$$
PV_002829057922
     RDKit          3D

 31 33  0  0  0  0  0  0  0  0999 V2000
   13.5450   16.1290   20.6560 C   0  0  0  0  0  0  0  0  0  0  0  0
   12.2590   16.1560   21.3900 C   0  0  0  0  0  0  0  0  0  0  0  0
   12.2770   15.3850   22.4700 C   0  0  0  0  0  0  0  0  0  0  0  0
   11.2440   14.5450   22.0450 C   0  0  0  0  0  0  0  0  0  0  0  0
    9.9790   14.6210   22.7020 O   0  0  0  0  0  0  0  0  0  0  0  0
    9.9810   14.3000   23.9940 C   0  0  0  0  0  0  0  0  0  0  0  0
   10.2920   14.9490   24.9820 O   0  0  0  0  0  0  0  0  0  0  0  0
    9.5330   12.9640   24.0150 C   0  0  0  0  0  0  0  0  0  0  0  0
   10.3450   12.0850   23.2360 C   0  0  0  0  0  0  0  0  0  0  0  0
    9.9720   10.8070   23.2420 C   0  0  0  0  0  0  0  0  0  0  0  0
    8.7980   10.1510   23.9780 C   0  0  0  0  0  0  0  0  0  0  0  0
    8.0610   11.0700   24.6880 C   0  0  0  0  0  0  0  0  0  0  0  0
    8.4320   12.5370   24.7050 C   0  0  0  0  0  0  0  0  0  0  0  0
    7.4450   13.6240   25.5980 Cl  0  0  0  0  0  0  0  0  0  0  0  0
    8.7340    8.8690   23.7790 O   0  0  0  0  0  0  0  0  0  0  0  0
    9.8720    8.7010   22.8750 C   0  0  0  0  0  0  0  0  0  0  0  0
   10.6290    9.8640   22.5620 O   0  0  0  0  0  0  0  0  0  0  0  0
   11.2410   15.4730   20.7410 C   0  0  0  0  0  0  0  0  0  0  0  0
   13.8350   17.1240   20.3290 H   0  0  0  0  0  0  0  0  0  0  0  0
   14.3150   15.7850   21.3320 H   0  0  0  0  0  0  0  0  0  0  0  0
   13.5010   15.4210   19.8230 H   0  0  0  0  0  0  0  0  0  0  0  0
   11.9740   17.1910   21.6280 H   0  0  0  0  0  0  0  0  0  0  0  0
   12.0860   15.9200   23.4040 H   0  0  0  0  0  0  0  0  0  0  0  0
   13.2270   14.8490   22.5990 H   0  0  0  0  0  0  0  0  0  0  0  0
   11.5570   13.5160   21.8180 H   0  0  0  0  0  0  0  0  0  0  0  0
   11.2070   12.4250   22.6800 H   0  0  0  0  0  0  0  0  0  0  0  0
    7.1920   10.7360   25.2460 H   0  0  0  0  0  0  0  0  0  0  0  0
    9.4890    8.2940   21.9320 H   0  0  0  0  0  0  0  0  0  0  0  0
   10.5600    7.9760   23.3110 H   0  0  0  0  0  0  0  0  0  0  0  0
   11.5390   14.9540   19.8210 H   0  0  0  0  0  0  0  0  0  0  0  0
   10.3260   16.0420   20.5560 H   0  0  0  0  0  0  0  0  0  0  0  0
  1  2  1  0
  2  3  1  0
  3  4  1  0
  4  5  1  0
  5  6  1  0
  6  7  2  0
  6  8  1  0
  8  9  2  0
  9 10  1  0
 10 11  2  0
 11 12  1  0
 12 13  2  0
 13 14  1  0
 11 15  1  0
 15 16  1  0
 16 17  1  0
  4 18  1  0
 18  2  1  0
 13  8  1  0
 17 10  1  0
  1 19  1  0
  1 20  1  0
  1 21  1  0
  2 22  1  0
  3 23  1  0
  3 24  1  0
  4 25  1  0
  9 26  1  0
 12 27  1  0
 16 28  1  0
 16 29  1  0
 18 30  1  0
 18 31  1  0
A    1
 C1 
A    2
 C2 
A    3
 C3 
A    4
 C4 
A    5
 O1 
A    6
 C5 
A    7
 O2 
A    8
 C6 
A    9
 C7 
A   10
 C8 
A   11
 C9 
A   12
 C10
A   13
 C11
A   14
CL1 
A   15
 O3 
A   16
 C12
A   17
 O4 
A   18
 C13
A   19
 H1 
A   20
 H2 
A   21
 H3 
A   22
 H4 
A   23
 H5 
A   24
 H6 
A   25
 H7 
A   26
 H8 
A   27
 H9 
A   28
 H10
A   29
 H11
A   30
 H12
A   31
 H13
M  END
>  <ref_pdb>  (79) 
x0310_0A

>  <ref_mols>  (79) 
x0310_0A,x0528_0A,x0556_0A

>  <original SMILES>  (79) 
CC1CC(OC(=O)c2cc3c(cc2Cl)OCO3)C1

>  <rationale>  (79) 
info halogenbond:G127+D39+A86+E85+Q95+E106+E88+T126+P107+H104+Y64+C65+S87+N129+F83+R93+L131+I82+G128+P91+N19+H21+V84+G133+Y90+Y89+H97+L81+F134+L98+R20+G103+S66+S67+S7+G108+R38+V124+M99+S36; hbond:E88+P107+Q95+D39+A86+C110+D109+E85+G108+G103+G130+L131+N19+R68+V124+R93+P91+F83+S67+S7+S66+G112+G133+V132+R20+Y89+S77+A135+Y63+A92+A101+M99+F134+L100+I82+Y64+S36+L98+V84+L81+Y94+S80+R38+S37+V102+G8+I123+G111+I113+L114+C65+L22+S96; hydroph_interaction:V84+Y90+Y89+T126+H21+P107+L22+E85+E88+D109+N129+D39+N19+L40+I123+A135+Q95+I82+L100+L98+L131+F83+R93+V132+Y63+F134+H104+R20+A86+V74+P91+A101+F76+M99+L114+A92+Y94+R68+Y72+Y64+V18+V102+W28+G127+G128+L81; pication:H104+R93+Y63+F134+Y90+R68+F83+R20; pistack:H21+Y89+Y90+H104+F134+Y63+F83+Y94; saltbridge:R93+H104+E106+D109+E85+E88+R68+R20; 

>  <intxn_cluster>  (79) 
-1

>  <intxn_cluster_rank>  (79) 
-1

>  <N_interactions>  (79) 
5

>  <∆∆G>  (79) 
-7.434015

>  <$/mg>  (79) 
0.0

>  <comRMSD>  (79) 
0.968074

>  <N_rotatable_bonds>  (79) 
3

>  <deep_P1_sidechain>  (79) 
nan

>  <farthest_distance_to_substrate>  (79) 
2.647321

>  <hbond:SER:7>  (79) 
hbond:SER:7    NaN
hbond:SER:7     -1
Name: 78, dtype: object

>  <halogenbond:SER:7>  (79) 
halogenbond:SER:7    NaN
halogenbond:SER:7     -1
Name: 78, dtype: object

>  <hbond:GLY:8>  (79) 
hbond:GLY:8    NaN
hbond:GLY:8     -1
Name: 78, dtype: object

>  <hydroph_interaction:VAL:18>  (79) 
hydroph_interaction:VAL:18    NaN
hydroph_interaction:VAL:18     -1
Name: 78, dtype: object

>  <hbond:ASN:19>  (79) 
hbond:ASN:19    NaN
hbond:ASN:19     -1
Name: 78, dtype: object

>  <hydroph_interaction:ASN:19>  (79) 
hydroph_interaction:ASN:19    NaN
hydroph_interaction:ASN:19     -1
Name: 78, dtype: object

>  <halogenbond:ASN:19>  (79) 
halogenbond:ASN:19    NaN
halogenbond:ASN:19     -1
Name: 78, dtype: object

>  <hbond:ARG:20>  (79) 
hbond:ARG:20    NaN
hbond:ARG:20     -1
Name: 78, dtype: object

>  <hydroph_interaction:ARG:20>  (79) 
hydroph_interaction:ARG:20    NaN
hydroph_interaction:ARG:20     -1
Name: 78, dtype: object

>  <saltbridge:ARG:20>  (79) 
saltbridge:ARG:20    NaN
saltbridge:ARG:20     -1
Name: 78, dtype: object

>  <halogenbond:ARG:20>  (79) 
halogenbond:ARG:20    NaN
halogenbond:ARG:20     -1
Name: 78, dtype: object

>  <pication:ARG:20>  (79) 
pication:ARG:20    NaN
pication:ARG:20     -1
Name: 78, dtype: object

>  <hbond:HIS:21>  (79) 
hbond:HIS:21    0.0
hbond:HIS:21      0
Name: 78, dtype: object

>  <hydroph_interaction:HIS:21>  (79) 
hydroph_interaction:HIS:21    1.0
hydroph_interaction:HIS:21      1
Name: 78, dtype: object

>  <pistack:HIS:21>  (79) 
pistack:HIS:21    NaN
pistack:HIS:21     -1
Name: 78, dtype: object

>  <pication:HIS:21>  (79) 
pication:HIS:21    0.0
pication:HIS:21      0
Name: 78, dtype: object

>  <saltbridge:HIS:21>  (79) 
saltbridge:HIS:21    0.0
saltbridge:HIS:21      0
Name: 78, dtype: object

>  <halogenbond:HIS:21>  (79) 
halogenbond:HIS:21    NaN
halogenbond:HIS:21     -1
Name: 78, dtype: object

>  <hydroph_interaction:LEU:22>  (79) 
hydroph_interaction:LEU:22    NaN
hydroph_interaction:LEU:22     -1
Name: 78, dtype: object

>  <hbond:LEU:22>  (79) 
hbond:LEU:22    NaN
hbond:LEU:22     -1
Name: 78, dtype: object

>  <hydroph_interaction:TRP:28>  (79) 
hydroph_interaction:TRP:28    NaN
hydroph_interaction:TRP:28     -1
Name: 78, dtype: object

>  <hbond:SER:36>  (79) 
hbond:SER:36    NaN
hbond:SER:36     -1
Name: 78, dtype: object

>  <halogenbond:SER:36>  (79) 
halogenbond:SER:36    NaN
halogenbond:SER:36     -1
Name: 78, dtype: object

>  <hbond:SER:37>  (79) 
hbond:SER:37    NaN
hbond:SER:37     -1
Name: 78, dtype: object

>  <hbond:ARG:38>  (79) 
hbond:ARG:38    NaN
hbond:ARG:38     -1
Name: 78, dtype: object

>  <halogenbond:ARG:38>  (79) 
halogenbond:ARG:38    NaN
halogenbond:ARG:38     -1
Name: 78, dtype: object

>  <saltbridge:ASP:39>  (79) 
saltbridge:ASP:39    0.0
saltbridge:ASP:39      0
Name: 78, dtype: object

>  <halogenbond:ASP:39>  (79) 
halogenbond:ASP:39    NaN
halogenbond:ASP:39     -1
Name: 78, dtype: object

>  <hbond:ASP:39>  (79) 
hbond:ASP:39    NaN
hbond:ASP:39     -1
Name: 78, dtype: object

>  <hydroph_interaction:ASP:39>  (79) 
hydroph_interaction:ASP:39    NaN
hydroph_interaction:ASP:39     -1
Name: 78, dtype: object

>  <hydroph_interaction:LEU:40>  (79) 
hydroph_interaction:LEU:40    NaN
hydroph_interaction:LEU:40     -1
Name: 78, dtype: object

>  <hydroph_interaction:TYR:63>  (79) 
hydroph_interaction:TYR:63    NaN
hydroph_interaction:TYR:63     -1
Name: 78, dtype: object

>  <hbond:TYR:63>  (79) 
hbond:TYR:63    NaN
hbond:TYR:63     -1
Name: 78, dtype: object

>  <pistack:TYR:63>  (79) 
pistack:TYR:63    NaN
pistack:TYR:63     -1
Name: 78, dtype: object

>  <pication:TYR:63>  (79) 
pication:TYR:63    NaN
pication:TYR:63     -1
Name: 78, dtype: object

>  <halogenbond:TYR:64>  (79) 
halogenbond:TYR:64    NaN
halogenbond:TYR:64     -1
Name: 78, dtype: object

>  <hbond:TYR:64>  (79) 
hbond:TYR:64    NaN
hbond:TYR:64     -1
Name: 78, dtype: object

>  <hydroph_interaction:TYR:64>  (79) 
hydroph_interaction:TYR:64    NaN
hydroph_interaction:TYR:64     -1
Name: 78, dtype: object

>  <halogenbond:CYS:65>  (79) 
halogenbond:CYS:65    NaN
halogenbond:CYS:65     -1
Name: 78, dtype: object

>  <hbond:CYS:65>  (79) 
hbond:CYS:65    NaN
hbond:CYS:65     -1
Name: 78, dtype: object

>  <hbond:SER:66>  (79) 
hbond:SER:66    NaN
hbond:SER:66     -1
Name: 78, dtype: object

>  <halogenbond:SER:66>  (79) 
halogenbond:SER:66    NaN
halogenbond:SER:66     -1
Name: 78, dtype: object

>  <hbond:SER:67>  (79) 
hbond:SER:67    NaN
hbond:SER:67     -1
Name: 78, dtype: object

>  <halogenbond:SER:67>  (79) 
halogenbond:SER:67    NaN
halogenbond:SER:67     -1
Name: 78, dtype: object

>  <hbond:ARG:68>  (79) 
hbond:ARG:68    NaN
hbond:ARG:68     -1
Name: 78, dtype: object

>  <saltbridge:ARG:68>  (79) 
saltbridge:ARG:68    NaN
saltbridge:ARG:68     -1
Name: 78, dtype: object

>  <hydroph_interaction:ARG:68>  (79) 
hydroph_interaction:ARG:68    NaN
hydroph_interaction:ARG:68     -1
Name: 78, dtype: object

>  <pication:ARG:68>  (79) 
pication:ARG:68    NaN
pication:ARG:68     -1
Name: 78, dtype: object

>  <hydroph_interaction:TYR:72>  (79) 
hydroph_interaction:TYR:72    NaN
hydroph_interaction:TYR:72     -1
Name: 78, dtype: object

>  <hydroph_interaction:VAL:74>  (79) 
hydroph_interaction:VAL:74    NaN
hydroph_interaction:VAL:74     -1
Name: 78, dtype: object

>  <hydroph_interaction:PHE:76>  (79) 
hydroph_interaction:PHE:76    NaN
hydroph_interaction:PHE:76     -1
Name: 78, dtype: object

>  <hbond:SER:77>  (79) 
hbond:SER:77    NaN
hbond:SER:77     -1
Name: 78, dtype: object

>  <hbond:SER:80>  (79) 
hbond:SER:80    NaN
hbond:SER:80     -1
Name: 78, dtype: object

>  <hbond:LEU:81>  (79) 
hbond:LEU:81    NaN
hbond:LEU:81     -1
Name: 78, dtype: object

>  <halogenbond:LEU:81>  (79) 
halogenbond:LEU:81    NaN
halogenbond:LEU:81     -1
Name: 78, dtype: object

>  <hydroph_interaction:LEU:81>  (79) 
hydroph_interaction:LEU:81    NaN
hydroph_interaction:LEU:81     -1
Name: 78, dtype: object

>  <hydroph_interaction:ILE:82>  (79) 
hydroph_interaction:ILE:82    NaN
hydroph_interaction:ILE:82     -1
Name: 78, dtype: object

>  <halogenbond:ILE:82>  (79) 
halogenbond:ILE:82    NaN
halogenbond:ILE:82     -1
Name: 78, dtype: object

>  <hbond:ILE:82>  (79) 
hbond:ILE:82    NaN
hbond:ILE:82     -1
Name: 78, dtype: object

>  <hbond:PHE:83>  (79) 
hbond:PHE:83    NaN
hbond:PHE:83     -1
Name: 78, dtype: object

>  <hydroph_interaction:PHE:83>  (79) 
hydroph_interaction:PHE:83    NaN
hydroph_interaction:PHE:83     -1
Name: 78, dtype: object

>  <halogenbond:PHE:83>  (79) 
halogenbond:PHE:83    NaN
halogenbond:PHE:83     -1
Name: 78, dtype: object

>  <pistack:PHE:83>  (79) 
pistack:PHE:83    NaN
pistack:PHE:83     -1
Name: 78, dtype: object

>  <pication:PHE:83>  (79) 
pication:PHE:83    NaN
pication:PHE:83     -1
Name: 78, dtype: object

>  <hydroph_interaction:VAL:84>  (79) 
hydroph_interaction:VAL:84    NaN
hydroph_interaction:VAL:84     -1
Name: 78, dtype: object

>  <halogenbond:VAL:84>  (79) 
halogenbond:VAL:84    NaN
halogenbond:VAL:84     -1
Name: 78, dtype: object

>  <hbond:VAL:84>  (79) 
hbond:VAL:84    NaN
hbond:VAL:84     -1
Name: 78, dtype: object

>  <hydroph_interaction:GLU:85>  (79) 
hydroph_interaction:GLU:85    NaN
hydroph_interaction:GLU:85     -1
Name: 78, dtype: object

>  <hbond:GLU:85>  (79) 
hbond:GLU:85    NaN
hbond:GLU:85     -1
Name: 78, dtype: object

>  <halogenbond:GLU:85>  (79) 
halogenbond:GLU:85    NaN
halogenbond:GLU:85     -1
Name: 78, dtype: object

>  <saltbridge:GLU:85>  (79) 
saltbridge:GLU:85    NaN
saltbridge:GLU:85     -1
Name: 78, dtype: object

>  <halogenbond:ALA:86>  (79) 
halogenbond:ALA:86    NaN
halogenbond:ALA:86     -1
Name: 78, dtype: object

>  <hbond:ALA:86>  (79) 
hbond:ALA:86    NaN
hbond:ALA:86     -1
Name: 78, dtype: object

>  <hydroph_interaction:ALA:86>  (79) 
hydroph_interaction:ALA:86    NaN
hydroph_interaction:ALA:86     -1
Name: 78, dtype: object

>  <hbond:SER:87>  (79) 
hbond:SER:87    0
hbond:SER:87    0
Name: 78, dtype: object

>  <halogenbond:SER:87>  (79) 
halogenbond:SER:87    NaN
halogenbond:SER:87     -1
Name: 78, dtype: object

>  <hbond:GLU:88>  (79) 
hbond:GLU:88    1.0
hbond:GLU:88      1
Name: 78, dtype: object

>  <hydroph_interaction:GLU:88>  (79) 
hydroph_interaction:GLU:88    NaN
hydroph_interaction:GLU:88     -1
Name: 78, dtype: object

>  <halogenbond:GLU:88>  (79) 
halogenbond:GLU:88    NaN
halogenbond:GLU:88     -1
Name: 78, dtype: object

>  <saltbridge:GLU:88>  (79) 
saltbridge:GLU:88    NaN
saltbridge:GLU:88     -1
Name: 78, dtype: object

>  <hydroph_interaction:TYR:89>  (79) 
hydroph_interaction:TYR:89    1.0
hydroph_interaction:TYR:89      1
Name: 78, dtype: object

>  <pistack:TYR:89>  (79) 
pistack:TYR:89    NaN
pistack:TYR:89     -1
Name: 78, dtype: object

>  <hbond:TYR:89>  (79) 
hbond:TYR:89    NaN
hbond:TYR:89     -1
Name: 78, dtype: object

>  <halogenbond:TYR:89>  (79) 
halogenbond:TYR:89    NaN
halogenbond:TYR:89     -1
Name: 78, dtype: object

>  <hydroph_interaction:TYR:90>  (79) 
hydroph_interaction:TYR:90    1.0
hydroph_interaction:TYR:90      1
Name: 78, dtype: object

>  <hbond:TYR:90>  (79) 
hbond:TYR:90    0.0
hbond:TYR:90      0
Name: 78, dtype: object

>  <pistack:TYR:90>  (79) 
pistack:TYR:90    NaN
pistack:TYR:90     -1
Name: 78, dtype: object

>  <halogenbond:TYR:90>  (79) 
halogenbond:TYR:90    NaN
halogenbond:TYR:90     -1
Name: 78, dtype: object

>  <pication:TYR:90>  (79) 
pication:TYR:90    NaN
pication:TYR:90     -1
Name: 78, dtype: object

>  <hbond:PRO:91>  (79) 
hbond:PRO:91    NaN
hbond:PRO:91     -1
Name: 78, dtype: object

>  <hydroph_interaction:PRO:91>  (79) 
hydroph_interaction:PRO:91    NaN
hydroph_interaction:PRO:91     -1
Name: 78, dtype: object

>  <halogenbond:PRO:91>  (79) 
halogenbond:PRO:91    NaN
halogenbond:PRO:91     -1
Name: 78, dtype: object

>  <hbond:ALA:92>  (79) 
hbond:ALA:92    NaN
hbond:ALA:92     -1
Name: 78, dtype: object

>  <hydroph_interaction:ALA:92>  (79) 
hydroph_interaction:ALA:92    NaN
hydroph_interaction:ALA:92     -1
Name: 78, dtype: object

>  <saltbridge:ARG:93>  (79) 
saltbridge:ARG:93    NaN
saltbridge:ARG:93     -1
Name: 78, dtype: object

>  <hbond:ARG:93>  (79) 
hbond:ARG:93    NaN
hbond:ARG:93     -1
Name: 78, dtype: object

>  <hydroph_interaction:ARG:93>  (79) 
hydroph_interaction:ARG:93    NaN
hydroph_interaction:ARG:93     -1
Name: 78, dtype: object

>  <halogenbond:ARG:93>  (79) 
halogenbond:ARG:93    NaN
halogenbond:ARG:93     -1
Name: 78, dtype: object

>  <pication:ARG:93>  (79) 
pication:ARG:93    NaN
pication:ARG:93     -1
Name: 78, dtype: object

>  <hydroph_interaction:TYR:94>  (79) 
hydroph_interaction:TYR:94    NaN
hydroph_interaction:TYR:94     -1
Name: 78, dtype: object

>  <pistack:TYR:94>  (79) 
pistack:TYR:94    NaN
pistack:TYR:94     -1
Name: 78, dtype: object

>  <hbond:TYR:94>  (79) 
hbond:TYR:94    NaN
hbond:TYR:94     -1
Name: 78, dtype: object

>  <hbond:GLN:95>  (79) 
hbond:GLN:95    NaN
hbond:GLN:95     -1
Name: 78, dtype: object

>  <hydroph_interaction:GLN:95>  (79) 
hydroph_interaction:GLN:95    NaN
hydroph_interaction:GLN:95     -1
Name: 78, dtype: object

>  <halogenbond:GLN:95>  (79) 
halogenbond:GLN:95    NaN
halogenbond:GLN:95     -1
Name: 78, dtype: object

>  <hbond:SER:96>  (79) 
hbond:SER:96    NaN
hbond:SER:96     -1
Name: 78, dtype: object

>  <halogenbond:HIS:97>  (79) 
halogenbond:HIS:97    NaN
halogenbond:HIS:97     -1
Name: 78, dtype: object

>  <hydroph_interaction:LEU:98>  (79) 
hydroph_interaction:LEU:98    NaN
hydroph_interaction:LEU:98     -1
Name: 78, dtype: object

>  <hbond:LEU:98>  (79) 
hbond:LEU:98    NaN
hbond:LEU:98     -1
Name: 78, dtype: object

>  <halogenbond:LEU:98>  (79) 
halogenbond:LEU:98    NaN
halogenbond:LEU:98     -1
Name: 78, dtype: object

>  <hbond:MET:99>  (79) 
hbond:MET:99    NaN
hbond:MET:99     -1
Name: 78, dtype: object

>  <hydroph_interaction:MET:99>  (79) 
hydroph_interaction:MET:99    NaN
hydroph_interaction:MET:99     -1
Name: 78, dtype: object

>  <halogenbond:MET:99>  (79) 
halogenbond:MET:99    NaN
halogenbond:MET:99     -1
Name: 78, dtype: object

>  <hydroph_interaction:LEU:100>  (79) 
hydroph_interaction:LEU:100    NaN
hydroph_interaction:LEU:100     -1
Name: 78, dtype: object

>  <hbond:LEU:100>  (79) 
hbond:LEU:100    NaN
hbond:LEU:100     -1
Name: 78, dtype: object

>  <hbond:ALA:101>  (79) 
hbond:ALA:101    NaN
hbond:ALA:101     -1
Name: 78, dtype: object

>  <hydroph_interaction:ALA:101>  (79) 
hydroph_interaction:ALA:101    NaN
hydroph_interaction:ALA:101     -1
Name: 78, dtype: object

>  <hydroph_interaction:VAL:102>  (79) 
hydroph_interaction:VAL:102    NaN
hydroph_interaction:VAL:102     -1
Name: 78, dtype: object

>  <hbond:VAL:102>  (79) 
hbond:VAL:102    NaN
hbond:VAL:102     -1
Name: 78, dtype: object

>  <hbond:GLY:103>  (79) 
hbond:GLY:103    NaN
hbond:GLY:103     -1
Name: 78, dtype: object

>  <halogenbond:GLY:103>  (79) 
halogenbond:GLY:103    NaN
halogenbond:GLY:103     -1
Name: 78, dtype: object

>  <hbond:HIS:104>  (79) 
hbond:HIS:104    0.0
hbond:HIS:104      0
Name: 78, dtype: object

>  <saltbridge:HIS:104>  (79) 
saltbridge:HIS:104    NaN
saltbridge:HIS:104     -1
Name: 78, dtype: object

>  <pication:HIS:104>  (79) 
pication:HIS:104    NaN
pication:HIS:104     -1
Name: 78, dtype: object

>  <halogenbond:HIS:104>  (79) 
halogenbond:HIS:104    NaN
halogenbond:HIS:104     -1
Name: 78, dtype: object

>  <hydroph_interaction:HIS:104>  (79) 
hydroph_interaction:HIS:104    NaN
hydroph_interaction:HIS:104     -1
Name: 78, dtype: object

>  <pistack:HIS:104>  (79) 
pistack:HIS:104    NaN
pistack:HIS:104     -1
Name: 78, dtype: object

>  <halogenbond:SER:105>  (79) 
halogenbond:SER:105    0.0
halogenbond:SER:105      0
Name: 78, dtype: object

>  <hbond:SER:105>  (79) 
hbond:SER:105    0.0
hbond:SER:105      0
Name: 78, dtype: object

>  <hbond:GLU:106>  (79) 
hbond:GLU:106    0.0
hbond:GLU:106      0
Name: 78, dtype: object

>  <hydroph_interaction:GLU:106>  (79) 
hydroph_interaction:GLU:106    0.0
hydroph_interaction:GLU:106      0
Name: 78, dtype: object

>  <saltbridge:GLU:106>  (79) 
saltbridge:GLU:106    NaN
saltbridge:GLU:106     -1
Name: 78, dtype: object

>  <halogenbond:GLU:106>  (79) 
halogenbond:GLU:106    NaN
halogenbond:GLU:106     -1
Name: 78, dtype: object

>  <hydroph_interaction:PRO:107>  (79) 
hydroph_interaction:PRO:107    1
hydroph_interaction:PRO:107    1
Name: 78, dtype: object

>  <hbond:PRO:107>  (79) 
hbond:PRO:107    NaN
hbond:PRO:107     -1
Name: 78, dtype: object

>  <halogenbond:PRO:107>  (79) 
halogenbond:PRO:107    NaN
halogenbond:PRO:107     -1
Name: 78, dtype: object

>  <hbond:GLY:108>  (79) 
hbond:GLY:108    NaN
hbond:GLY:108     -1
Name: 78, dtype: object

>  <halogenbond:GLY:108>  (79) 
halogenbond:GLY:108    NaN
halogenbond:GLY:108     -1
Name: 78, dtype: object

>  <hbond:ASP:109>  (79) 
hbond:ASP:109    NaN
hbond:ASP:109     -1
Name: 78, dtype: object

>  <hydroph_interaction:ASP:109>  (79) 
hydroph_interaction:ASP:109    NaN
hydroph_interaction:ASP:109     -1
Name: 78, dtype: object

>  <saltbridge:ASP:109>  (79) 
saltbridge:ASP:109    NaN
saltbridge:ASP:109     -1
Name: 78, dtype: object

>  <halogenbond:CYS:110>  (79) 
halogenbond:CYS:110    0.0
halogenbond:CYS:110      0
Name: 78, dtype: object

>  <hbond:CYS:110>  (79) 
hbond:CYS:110    NaN
hbond:CYS:110     -1
Name: 78, dtype: object

>  <hbond:GLY:111>  (79) 
hbond:GLY:111    NaN
hbond:GLY:111     -1
Name: 78, dtype: object

>  <hbond:GLY:112>  (79) 
hbond:GLY:112    NaN
hbond:GLY:112     -1
Name: 78, dtype: object

>  <hbond:ILE:113>  (79) 
hbond:ILE:113    NaN
hbond:ILE:113     -1
Name: 78, dtype: object

>  <hydroph_interaction:LEU:114>  (79) 
hydroph_interaction:LEU:114    NaN
hydroph_interaction:LEU:114     -1
Name: 78, dtype: object

>  <hbond:LEU:114>  (79) 
hbond:LEU:114    NaN
hbond:LEU:114     -1
Name: 78, dtype: object

>  <hydroph_interaction:ILE:123>  (79) 
hydroph_interaction:ILE:123    NaN
hydroph_interaction:ILE:123     -1
Name: 78, dtype: object

>  <hbond:ILE:123>  (79) 
hbond:ILE:123    NaN
hbond:ILE:123     -1
Name: 78, dtype: object

>  <hydroph_interaction:VAL:124>  (79) 
hydroph_interaction:VAL:124    0.0
hydroph_interaction:VAL:124      0
Name: 78, dtype: object

>  <hbond:VAL:124>  (79) 
hbond:VAL:124    NaN
hbond:VAL:124     -1
Name: 78, dtype: object

>  <halogenbond:VAL:124>  (79) 
halogenbond:VAL:124    NaN
halogenbond:VAL:124     -1
Name: 78, dtype: object

>  <hbond:SER:125>  (79) 
hbond:SER:125    0
hbond:SER:125    0
Name: 78, dtype: object

>  <halogenbond:SER:125>  (79) 
halogenbond:SER:125    0.0
halogenbond:SER:125      0
Name: 78, dtype: object

>  <hydroph_interaction:THR:126>  (79) 
hydroph_interaction:THR:126    NaN
hydroph_interaction:THR:126     -1
Name: 78, dtype: object

>  <hbond:THR:126>  (79) 
hbond:THR:126    0.0
hbond:THR:126      0
Name: 78, dtype: object

>  <halogenbond:THR:126>  (79) 
halogenbond:THR:126    NaN
halogenbond:THR:126     -1
Name: 78, dtype: object

>  <hbond:GLY:127>  (79) 
hbond:GLY:127    0
hbond:GLY:127    0
Name: 78, dtype: object

>  <halogenbond:GLY:127>  (79) 
halogenbond:GLY:127    NaN
halogenbond:GLY:127     -1
Name: 78, dtype: object

>  <hydroph_interaction:GLY:127>  (79) 
hydroph_interaction:GLY:127    NaN
hydroph_interaction:GLY:127     -1
Name: 78, dtype: object

>  <hbond:GLY:128>  (79) 
hbond:GLY:128    0.0
hbond:GLY:128      0
Name: 78, dtype: object

>  <halogenbond:GLY:128>  (79) 
halogenbond:GLY:128    NaN
halogenbond:GLY:128     -1
Name: 78, dtype: object

>  <hydroph_interaction:GLY:128>  (79) 
hydroph_interaction:GLY:128    NaN
hydroph_interaction:GLY:128     -1
Name: 78, dtype: object

>  <hbond:ASN:129>  (79) 
hbond:ASN:129    0.0
hbond:ASN:129      0
Name: 78, dtype: object

>  <hydroph_interaction:ASN:129>  (79) 
hydroph_interaction:ASN:129    NaN
hydroph_interaction:ASN:129     -1
Name: 78, dtype: object

>  <halogenbond:ASN:129>  (79) 
halogenbond:ASN:129    NaN
halogenbond:ASN:129     -1
Name: 78, dtype: object

>  <hbond:GLY:130>  (79) 
hbond:GLY:130    NaN
hbond:GLY:130     -1
Name: 78, dtype: object

>  <hbond:LEU:131>  (79) 
hbond:LEU:131    NaN
hbond:LEU:131     -1
Name: 78, dtype: object

>  <hydroph_interaction:LEU:131>  (79) 
hydroph_interaction:LEU:131    NaN
hydroph_interaction:LEU:131     -1
Name: 78, dtype: object

>  <halogenbond:LEU:131>  (79) 
halogenbond:LEU:131    NaN
halogenbond:LEU:131     -1
Name: 78, dtype: object

>  <hydroph_interaction:VAL:132>  (79) 
hydroph_interaction:VAL:132    NaN
hydroph_interaction:VAL:132     -1
Name: 78, dtype: object

>  <hbond:VAL:132>  (79) 
hbond:VAL:132    NaN
hbond:VAL:132     -1
Name: 78, dtype: object

>  <hbond:GLY:133>  (79) 
hbond:GLY:133    NaN
hbond:GLY:133     -1
Name: 78, dtype: object

>  <halogenbond:GLY:133>  (79) 
halogenbond:GLY:133    NaN
halogenbond:GLY:133     -1
Name: 78, dtype: object

>  <hydroph_interaction:PHE:134>  (79) 
hydroph_interaction:PHE:134    NaN
hydroph_interaction:PHE:134     -1
Name: 78, dtype: object

>  <hbond:PHE:134>  (79) 
hbond:PHE:134    NaN
hbond:PHE:134     -1
Name: 78, dtype: object

>  <pistack:PHE:134>  (79) 
pistack:PHE:134    NaN
pistack:PHE:134     -1
Name: 78, dtype: object

>  <pication:PHE:134>  (79) 
pication:PHE:134    NaN
pication:PHE:134     -1
Name: 78, dtype: object

>  <halogenbond:PHE:134>  (79) 
halogenbond:PHE:134    NaN
halogenbond:PHE:134     -1
Name: 78, dtype: object

>  <hydroph_interaction:ALA:135>  (79) 
hydroph_interaction:ALA:135    NaN
hydroph_interaction:ALA:135     -1
Name: 78, dtype: object

>  <hbond:ALA:135>  (79) 
hbond:ALA:135    NaN
hbond:ALA:135     -1
Name: 78, dtype: object

$$$$
PV_002149752150
     RDKit          3D

 32 32  0  0  0  0  0  0  0  0999 V2000
   10.0680   15.5210   19.7720 C   0  0  0  0  0  0  0  0  0  0  0  0
   10.7060   14.8860   21.0150 C   0  0  0  0  0  0  0  0  0  0  0  0
    9.6870   14.3660   21.9220 N   0  0  0  0  0  0  0  0  0  0  0  0
    9.9690   14.0020   23.2000 C   0  0  0  0  0  0  0  0  0  0  0  0
   11.4570   14.1750   23.5970 C   0  0  0  0  0  0  0  0  0  0  0  0
    9.5100   12.5910   23.4760 C   0  0  0  0  0  0  0  0  0  0  0  0
    8.4690   12.3890   24.3690 C   0  0  0  0  0  0  0  0  0  0  0  0
    8.0270   11.1170   24.6580 C   0  0  0  0  0  0  0  0  0  0  0  0
    6.9690   10.9420   25.5590 C   0  0  0  0  0  0  0  0  0  0  0  0
    8.6400   10.0290   24.0430 C   0  0  0  0  0  0  0  0  0  0  0  0
    9.6710   10.2070   23.1460 C   0  0  0  0  0  0  0  0  0  0  0  0
   10.2930    9.0270   22.4950 C   0  0  0  0  0  0  0  0  0  0  0  0
   10.1090   11.4930   22.8630 C   0  0  0  0  0  0  0  0  0  0  0  0
   10.0250   16.6110   19.8650 H   0  0  0  0  0  0  0  0  0  0  0  0
    9.0440   15.1690   19.6520 H   0  0  0  0  0  0  0  0  0  0  0  0
   10.6240   15.2960   18.8540 H   0  0  0  0  0  0  0  0  0  0  0  0
   11.2630   15.6740   21.5290 H   0  0  0  0  0  0  0  0  0  0  0  0
   11.4350   14.1250   20.7210 H   0  0  0  0  0  0  0  0  0  0  0  0
    8.9650   15.0850   22.0030 H   0  0  0  0  0  0  0  0  0  0  0  0
    9.3650   14.6250   23.8610 H   0  0  0  0  0  0  0  0  0  0  0  0
   12.0890   13.3940   23.1560 H   0  0  0  0  0  0  0  0  0  0  0  0
   11.5870   14.1350   24.6840 H   0  0  0  0  0  0  0  0  0  0  0  0
   11.8440   15.1410   23.2540 H   0  0  0  0  0  0  0  0  0  0  0  0
    7.9980   13.2480   24.8440 H   0  0  0  0  0  0  0  0  0  0  0  0
    6.5360    9.9650   25.3410 H   0  0  0  0  0  0  0  0  0  0  0  0
    7.2050   10.9240   26.6140 H   0  0  0  0  0  0  0  0  0  0  0  0
    6.1550   11.6540   25.4910 H   0  0  0  0  0  0  0  0  0  0  0  0
    8.2950    9.0300   24.2700 H   0  0  0  0  0  0  0  0  0  0  0  0
    9.6200    8.2740   22.1050 H   0  0  0  0  0  0  0  0  0  0  0  0
   11.0000    8.4840   23.1150 H   0  0  0  0  0  0  0  0  0  0  0  0
   10.8510    9.4050   21.6380 H   0  0  0  0  0  0  0  0  0  0  0  0
   10.9200   11.6420   22.1650 H   0  0  0  0  0  0  0  0  0  0  0  0
  1  2  1  0
  2  3  1  0
  3  4  1  0
  4  5  1  0
  4  6  1  0
  6  7  2  0
  7  8  1  0
  8  9  1  0
  8 10  2  0
 10 11  1  0
 11 12  1  0
 11 13  2  0
 13  6  1  0
  1 14  1  0
  1 15  1  0
  1 16  1  0
  2 17  1  0
  2 18  1  0
  3 19  1  0
  4 20  1  0
  5 21  1  0
  5 22  1  0
  5 23  1  0
  7 24  1  0
  9 25  1  0
  9 26  1  0
  9 27  1  0
 10 28  1  0
 12 29  1  0
 12 30  1  0
 12 31  1  0
 13 32  1  0
A    1
 C1 
A    2
 C2 
A    3
 N1 
A    4
 C3 
A    5
 C4 
A    6
 C5 
A    7
 C6 
A    8
 C7 
A    9
 C8 
A   10
 C9 
A   11
 C10
A   12
 C11
A   13
 C12
A   14
 H1 
A   15
 H2 
A   16
 H3 
A   17
 H4 
A   18
 H5 
A   19
 H6 
A   20
 H7 
A   21
 H8 
A   22
 H9 
A   23
 H10
A   24
 H11
A   25
 H12
A   26
 H13
A   27
 H14
A   28
 H15
A   29
 H16
A   30
 H17
A   31
 H18
A   32
 H19
M  END
>  <ref_pdb>  (80) 
x0310_0A

>  <ref_mols>  (80) 
x0451_0A,x0739_0A

>  <original SMILES>  (80) 
CCNC(C)c1cc(C)cc(C)c1

>  <rationale>  (80) 
info halogenbond:C110+G127+D39+S125+E85+Q95+E106+E88+T126+P107+H104+Y64+C65+S87+N129+F83+R93+L131+I82+G128+P91+N19+H21+V84+G133+Y90+Y89+H97+L81+F134+L98+R20+G103+S66+S67+S7+G108+R38+V124+M99+S36; hbond:S87+S125+Q95+A86+E85+G108+G103+G128+G130+L131+N129+N19+H104+R68+V124+R93+P91+F83+S67+S7+S66+G112+V132+R20+Y89+S77+A135+Y63+A92+A101+M99+F134+L100+I82+Y64+S36+L98+V84+L81+Y94+S80+R38+S37+V102+G8+I123+G111+I113+L114+C65+L22+S96; hydroph_interaction:V124+Y90+T126+H21+P107+L22+E106+N129+D39+N19+L40+I123+A135+Q95+I82+L100+L98+L131+F83+R93+V132+Y63+F134+H104+R20+A86+V74+P91+A101+F76+M99+L114+A92+Y94+R68+Y72+Y64+V18+V102+W28+G127+G128+L81; pication:H104+R93+Y63+F134+Y90+R68+F83+R20; pistack:H21+Y89+Y90+H104+F134+Y63+F83+Y94; saltbridge:D39+R93+H104+E106+D109+E85+E88+R68+R20; 

>  <intxn_cluster>  (80) 
-1

>  <intxn_cluster_rank>  (80) 
-1

>  <N_interactions>  (80) 
6

>  <∆∆G>  (80) 
-12.819818

>  <$/mg>  (80) 
163.0

>  <comRMSD>  (80) 
0.956177

>  <N_rotatable_bonds>  (80) 
7

>  <deep_P1_sidechain>  (80) 
nan

>  <farthest_distance_to_substrate>  (80) 
2.517293

>  <hbond:SER:7>  (80) 
hbond:SER:7    NaN
hbond:SER:7     -1
Name: 79, dtype: object

>  <halogenbond:SER:7>  (80) 
halogenbond:SER:7    NaN
halogenbond:SER:7     -1
Name: 79, dtype: object

>  <hbond:GLY:8>  (80) 
hbond:GLY:8    NaN
hbond:GLY:8     -1
Name: 79, dtype: object

>  <hydroph_interaction:VAL:18>  (80) 
hydroph_interaction:VAL:18    NaN
hydroph_interaction:VAL:18     -1
Name: 79, dtype: object

>  <hbond:ASN:19>  (80) 
hbond:ASN:19    NaN
hbond:ASN:19     -1
Name: 79, dtype: object

>  <hydroph_interaction:ASN:19>  (80) 
hydroph_interaction:ASN:19    NaN
hydroph_interaction:ASN:19     -1
Name: 79, dtype: object

>  <halogenbond:ASN:19>  (80) 
halogenbond:ASN:19    NaN
halogenbond:ASN:19     -1
Name: 79, dtype: object

>  <hbond:ARG:20>  (80) 
hbond:ARG:20    NaN
hbond:ARG:20     -1
Name: 79, dtype: object

>  <hydroph_interaction:ARG:20>  (80) 
hydroph_interaction:ARG:20    NaN
hydroph_interaction:ARG:20     -1
Name: 79, dtype: object

>  <saltbridge:ARG:20>  (80) 
saltbridge:ARG:20    NaN
saltbridge:ARG:20     -1
Name: 79, dtype: object

>  <halogenbond:ARG:20>  (80) 
halogenbond:ARG:20    NaN
halogenbond:ARG:20     -1
Name: 79, dtype: object

>  <pication:ARG:20>  (80) 
pication:ARG:20    NaN
pication:ARG:20     -1
Name: 79, dtype: object

>  <hbond:HIS:21>  (80) 
hbond:HIS:21    0.0
hbond:HIS:21      0
Name: 79, dtype: object

>  <hydroph_interaction:HIS:21>  (80) 
hydroph_interaction:HIS:21    NaN
hydroph_interaction:HIS:21     -1
Name: 79, dtype: object

>  <pistack:HIS:21>  (80) 
pistack:HIS:21    NaN
pistack:HIS:21     -1
Name: 79, dtype: object

>  <pication:HIS:21>  (80) 
pication:HIS:21    0.0
pication:HIS:21      0
Name: 79, dtype: object

>  <saltbridge:HIS:21>  (80) 
saltbridge:HIS:21    0.0
saltbridge:HIS:21      0
Name: 79, dtype: object

>  <halogenbond:HIS:21>  (80) 
halogenbond:HIS:21    NaN
halogenbond:HIS:21     -1
Name: 79, dtype: object

>  <hydroph_interaction:LEU:22>  (80) 
hydroph_interaction:LEU:22    NaN
hydroph_interaction:LEU:22     -1
Name: 79, dtype: object

>  <hbond:LEU:22>  (80) 
hbond:LEU:22    NaN
hbond:LEU:22     -1
Name: 79, dtype: object

>  <hydroph_interaction:TRP:28>  (80) 
hydroph_interaction:TRP:28    NaN
hydroph_interaction:TRP:28     -1
Name: 79, dtype: object

>  <hbond:SER:36>  (80) 
hbond:SER:36    NaN
hbond:SER:36     -1
Name: 79, dtype: object

>  <halogenbond:SER:36>  (80) 
halogenbond:SER:36    NaN
halogenbond:SER:36     -1
Name: 79, dtype: object

>  <hbond:SER:37>  (80) 
hbond:SER:37    NaN
hbond:SER:37     -1
Name: 79, dtype: object

>  <hbond:ARG:38>  (80) 
hbond:ARG:38    NaN
hbond:ARG:38     -1
Name: 79, dtype: object

>  <halogenbond:ARG:38>  (80) 
halogenbond:ARG:38    NaN
halogenbond:ARG:38     -1
Name: 79, dtype: object

>  <saltbridge:ASP:39>  (80) 
saltbridge:ASP:39    NaN
saltbridge:ASP:39     -1
Name: 79, dtype: object

>  <halogenbond:ASP:39>  (80) 
halogenbond:ASP:39    NaN
halogenbond:ASP:39     -1
Name: 79, dtype: object

>  <hbond:ASP:39>  (80) 
hbond:ASP:39    0.0
hbond:ASP:39      0
Name: 79, dtype: object

>  <hydroph_interaction:ASP:39>  (80) 
hydroph_interaction:ASP:39    NaN
hydroph_interaction:ASP:39     -1
Name: 79, dtype: object

>  <hydroph_interaction:LEU:40>  (80) 
hydroph_interaction:LEU:40    NaN
hydroph_interaction:LEU:40     -1
Name: 79, dtype: object

>  <hydroph_interaction:TYR:63>  (80) 
hydroph_interaction:TYR:63    NaN
hydroph_interaction:TYR:63     -1
Name: 79, dtype: object

>  <hbond:TYR:63>  (80) 
hbond:TYR:63    NaN
hbond:TYR:63     -1
Name: 79, dtype: object

>  <pistack:TYR:63>  (80) 
pistack:TYR:63    NaN
pistack:TYR:63     -1
Name: 79, dtype: object

>  <pication:TYR:63>  (80) 
pication:TYR:63    NaN
pication:TYR:63     -1
Name: 79, dtype: object

>  <halogenbond:TYR:64>  (80) 
halogenbond:TYR:64    NaN
halogenbond:TYR:64     -1
Name: 79, dtype: object

>  <hbond:TYR:64>  (80) 
hbond:TYR:64    NaN
hbond:TYR:64     -1
Name: 79, dtype: object

>  <hydroph_interaction:TYR:64>  (80) 
hydroph_interaction:TYR:64    NaN
hydroph_interaction:TYR:64     -1
Name: 79, dtype: object

>  <halogenbond:CYS:65>  (80) 
halogenbond:CYS:65    NaN
halogenbond:CYS:65     -1
Name: 79, dtype: object

>  <hbond:CYS:65>  (80) 
hbond:CYS:65    NaN
hbond:CYS:65     -1
Name: 79, dtype: object

>  <hbond:SER:66>  (80) 
hbond:SER:66    NaN
hbond:SER:66     -1
Name: 79, dtype: object

>  <halogenbond:SER:66>  (80) 
halogenbond:SER:66    NaN
halogenbond:SER:66     -1
Name: 79, dtype: object

>  <hbond:SER:67>  (80) 
hbond:SER:67    NaN
hbond:SER:67     -1
Name: 79, dtype: object

>  <halogenbond:SER:67>  (80) 
halogenbond:SER:67    NaN
halogenbond:SER:67     -1
Name: 79, dtype: object

>  <hbond:ARG:68>  (80) 
hbond:ARG:68    NaN
hbond:ARG:68     -1
Name: 79, dtype: object

>  <saltbridge:ARG:68>  (80) 
saltbridge:ARG:68    NaN
saltbridge:ARG:68     -1
Name: 79, dtype: object

>  <hydroph_interaction:ARG:68>  (80) 
hydroph_interaction:ARG:68    NaN
hydroph_interaction:ARG:68     -1
Name: 79, dtype: object

>  <pication:ARG:68>  (80) 
pication:ARG:68    NaN
pication:ARG:68     -1
Name: 79, dtype: object

>  <hydroph_interaction:TYR:72>  (80) 
hydroph_interaction:TYR:72    NaN
hydroph_interaction:TYR:72     -1
Name: 79, dtype: object

>  <hydroph_interaction:VAL:74>  (80) 
hydroph_interaction:VAL:74    NaN
hydroph_interaction:VAL:74     -1
Name: 79, dtype: object

>  <hydroph_interaction:PHE:76>  (80) 
hydroph_interaction:PHE:76    NaN
hydroph_interaction:PHE:76     -1
Name: 79, dtype: object

>  <hbond:SER:77>  (80) 
hbond:SER:77    NaN
hbond:SER:77     -1
Name: 79, dtype: object

>  <hbond:SER:80>  (80) 
hbond:SER:80    NaN
hbond:SER:80     -1
Name: 79, dtype: object

>  <hbond:LEU:81>  (80) 
hbond:LEU:81    NaN
hbond:LEU:81     -1
Name: 79, dtype: object

>  <halogenbond:LEU:81>  (80) 
halogenbond:LEU:81    NaN
halogenbond:LEU:81     -1
Name: 79, dtype: object

>  <hydroph_interaction:LEU:81>  (80) 
hydroph_interaction:LEU:81    NaN
hydroph_interaction:LEU:81     -1
Name: 79, dtype: object

>  <hydroph_interaction:ILE:82>  (80) 
hydroph_interaction:ILE:82    NaN
hydroph_interaction:ILE:82     -1
Name: 79, dtype: object

>  <halogenbond:ILE:82>  (80) 
halogenbond:ILE:82    NaN
halogenbond:ILE:82     -1
Name: 79, dtype: object

>  <hbond:ILE:82>  (80) 
hbond:ILE:82    NaN
hbond:ILE:82     -1
Name: 79, dtype: object

>  <hbond:PHE:83>  (80) 
hbond:PHE:83    NaN
hbond:PHE:83     -1
Name: 79, dtype: object

>  <hydroph_interaction:PHE:83>  (80) 
hydroph_interaction:PHE:83    NaN
hydroph_interaction:PHE:83     -1
Name: 79, dtype: object

>  <halogenbond:PHE:83>  (80) 
halogenbond:PHE:83    NaN
halogenbond:PHE:83     -1
Name: 79, dtype: object

>  <pistack:PHE:83>  (80) 
pistack:PHE:83    NaN
pistack:PHE:83     -1
Name: 79, dtype: object

>  <pication:PHE:83>  (80) 
pication:PHE:83    NaN
pication:PHE:83     -1
Name: 79, dtype: object

>  <hydroph_interaction:VAL:84>  (80) 
hydroph_interaction:VAL:84    0.0
hydroph_interaction:VAL:84      0
Name: 79, dtype: object

>  <halogenbond:VAL:84>  (80) 
halogenbond:VAL:84    NaN
halogenbond:VAL:84     -1
Name: 79, dtype: object

>  <hbond:VAL:84>  (80) 
hbond:VAL:84    NaN
hbond:VAL:84     -1
Name: 79, dtype: object

>  <hydroph_interaction:GLU:85>  (80) 
hydroph_interaction:GLU:85    0.0
hydroph_interaction:GLU:85      0
Name: 79, dtype: object

>  <hbond:GLU:85>  (80) 
hbond:GLU:85    NaN
hbond:GLU:85     -1
Name: 79, dtype: object

>  <halogenbond:GLU:85>  (80) 
halogenbond:GLU:85    NaN
halogenbond:GLU:85     -1
Name: 79, dtype: object

>  <saltbridge:GLU:85>  (80) 
saltbridge:GLU:85    NaN
saltbridge:GLU:85     -1
Name: 79, dtype: object

>  <halogenbond:ALA:86>  (80) 
halogenbond:ALA:86    0.0
halogenbond:ALA:86      0
Name: 79, dtype: object

>  <hbond:ALA:86>  (80) 
hbond:ALA:86    NaN
hbond:ALA:86     -1
Name: 79, dtype: object

>  <hydroph_interaction:ALA:86>  (80) 
hydroph_interaction:ALA:86    NaN
hydroph_interaction:ALA:86     -1
Name: 79, dtype: object

>  <hbond:SER:87>  (80) 
hbond:SER:87    1
hbond:SER:87    1
Name: 79, dtype: object

>  <halogenbond:SER:87>  (80) 
halogenbond:SER:87    NaN
halogenbond:SER:87     -1
Name: 79, dtype: object

>  <hbond:GLU:88>  (80) 
hbond:GLU:88    0.0
hbond:GLU:88      0
Name: 79, dtype: object

>  <hydroph_interaction:GLU:88>  (80) 
hydroph_interaction:GLU:88    0.0
hydroph_interaction:GLU:88      0
Name: 79, dtype: object

>  <halogenbond:GLU:88>  (80) 
halogenbond:GLU:88    NaN
halogenbond:GLU:88     -1
Name: 79, dtype: object

>  <saltbridge:GLU:88>  (80) 
saltbridge:GLU:88    NaN
saltbridge:GLU:88     -1
Name: 79, dtype: object

>  <hydroph_interaction:TYR:89>  (80) 
hydroph_interaction:TYR:89    0.0
hydroph_interaction:TYR:89      0
Name: 79, dtype: object

>  <pistack:TYR:89>  (80) 
pistack:TYR:89    NaN
pistack:TYR:89     -1
Name: 79, dtype: object

>  <hbond:TYR:89>  (80) 
hbond:TYR:89    NaN
hbond:TYR:89     -1
Name: 79, dtype: object

>  <halogenbond:TYR:89>  (80) 
halogenbond:TYR:89    NaN
halogenbond:TYR:89     -1
Name: 79, dtype: object

>  <hydroph_interaction:TYR:90>  (80) 
hydroph_interaction:TYR:90    1.0
hydroph_interaction:TYR:90      1
Name: 79, dtype: object

>  <hbond:TYR:90>  (80) 
hbond:TYR:90    0.0
hbond:TYR:90      0
Name: 79, dtype: object

>  <pistack:TYR:90>  (80) 
pistack:TYR:90    NaN
pistack:TYR:90     -1
Name: 79, dtype: object

>  <halogenbond:TYR:90>  (80) 
halogenbond:TYR:90    NaN
halogenbond:TYR:90     -1
Name: 79, dtype: object

>  <pication:TYR:90>  (80) 
pication:TYR:90    NaN
pication:TYR:90     -1
Name: 79, dtype: object

>  <hbond:PRO:91>  (80) 
hbond:PRO:91    NaN
hbond:PRO:91     -1
Name: 79, dtype: object

>  <hydroph_interaction:PRO:91>  (80) 
hydroph_interaction:PRO:91    NaN
hydroph_interaction:PRO:91     -1
Name: 79, dtype: object

>  <halogenbond:PRO:91>  (80) 
halogenbond:PRO:91    NaN
halogenbond:PRO:91     -1
Name: 79, dtype: object

>  <hbond:ALA:92>  (80) 
hbond:ALA:92    NaN
hbond:ALA:92     -1
Name: 79, dtype: object

>  <hydroph_interaction:ALA:92>  (80) 
hydroph_interaction:ALA:92    NaN
hydroph_interaction:ALA:92     -1
Name: 79, dtype: object

>  <saltbridge:ARG:93>  (80) 
saltbridge:ARG:93    NaN
saltbridge:ARG:93     -1
Name: 79, dtype: object

>  <hbond:ARG:93>  (80) 
hbond:ARG:93    NaN
hbond:ARG:93     -1
Name: 79, dtype: object

>  <hydroph_interaction:ARG:93>  (80) 
hydroph_interaction:ARG:93    NaN
hydroph_interaction:ARG:93     -1
Name: 79, dtype: object

>  <halogenbond:ARG:93>  (80) 
halogenbond:ARG:93    NaN
halogenbond:ARG:93     -1
Name: 79, dtype: object

>  <pication:ARG:93>  (80) 
pication:ARG:93    NaN
pication:ARG:93     -1
Name: 79, dtype: object

>  <hydroph_interaction:TYR:94>  (80) 
hydroph_interaction:TYR:94    NaN
hydroph_interaction:TYR:94     -1
Name: 79, dtype: object

>  <pistack:TYR:94>  (80) 
pistack:TYR:94    NaN
pistack:TYR:94     -1
Name: 79, dtype: object

>  <hbond:TYR:94>  (80) 
hbond:TYR:94    NaN
hbond:TYR:94     -1
Name: 79, dtype: object

>  <hbond:GLN:95>  (80) 
hbond:GLN:95    NaN
hbond:GLN:95     -1
Name: 79, dtype: object

>  <hydroph_interaction:GLN:95>  (80) 
hydroph_interaction:GLN:95    NaN
hydroph_interaction:GLN:95     -1
Name: 79, dtype: object

>  <halogenbond:GLN:95>  (80) 
halogenbond:GLN:95    NaN
halogenbond:GLN:95     -1
Name: 79, dtype: object

>  <hbond:SER:96>  (80) 
hbond:SER:96    NaN
hbond:SER:96     -1
Name: 79, dtype: object

>  <halogenbond:HIS:97>  (80) 
halogenbond:HIS:97    NaN
halogenbond:HIS:97     -1
Name: 79, dtype: object

>  <hydroph_interaction:LEU:98>  (80) 
hydroph_interaction:LEU:98    NaN
hydroph_interaction:LEU:98     -1
Name: 79, dtype: object

>  <hbond:LEU:98>  (80) 
hbond:LEU:98    NaN
hbond:LEU:98     -1
Name: 79, dtype: object

>  <halogenbond:LEU:98>  (80) 
halogenbond:LEU:98    NaN
halogenbond:LEU:98     -1
Name: 79, dtype: object

>  <hbond:MET:99>  (80) 
hbond:MET:99    NaN
hbond:MET:99     -1
Name: 79, dtype: object

>  <hydroph_interaction:MET:99>  (80) 
hydroph_interaction:MET:99    NaN
hydroph_interaction:MET:99     -1
Name: 79, dtype: object

>  <halogenbond:MET:99>  (80) 
halogenbond:MET:99    NaN
halogenbond:MET:99     -1
Name: 79, dtype: object

>  <hydroph_interaction:LEU:100>  (80) 
hydroph_interaction:LEU:100    NaN
hydroph_interaction:LEU:100     -1
Name: 79, dtype: object

>  <hbond:LEU:100>  (80) 
hbond:LEU:100    NaN
hbond:LEU:100     -1
Name: 79, dtype: object

>  <hbond:ALA:101>  (80) 
hbond:ALA:101    NaN
hbond:ALA:101     -1
Name: 79, dtype: object

>  <hydroph_interaction:ALA:101>  (80) 
hydroph_interaction:ALA:101    NaN
hydroph_interaction:ALA:101     -1
Name: 79, dtype: object

>  <hydroph_interaction:VAL:102>  (80) 
hydroph_interaction:VAL:102    NaN
hydroph_interaction:VAL:102     -1
Name: 79, dtype: object

>  <hbond:VAL:102>  (80) 
hbond:VAL:102    NaN
hbond:VAL:102     -1
Name: 79, dtype: object

>  <hbond:GLY:103>  (80) 
hbond:GLY:103    NaN
hbond:GLY:103     -1
Name: 79, dtype: object

>  <halogenbond:GLY:103>  (80) 
halogenbond:GLY:103    NaN
halogenbond:GLY:103     -1
Name: 79, dtype: object

>  <hbond:HIS:104>  (80) 
hbond:HIS:104    NaN
hbond:HIS:104     -1
Name: 79, dtype: object

>  <saltbridge:HIS:104>  (80) 
saltbridge:HIS:104    NaN
saltbridge:HIS:104     -1
Name: 79, dtype: object

>  <pication:HIS:104>  (80) 
pication:HIS:104    NaN
pication:HIS:104     -1
Name: 79, dtype: object

>  <halogenbond:HIS:104>  (80) 
halogenbond:HIS:104    NaN
halogenbond:HIS:104     -1
Name: 79, dtype: object

>  <hydroph_interaction:HIS:104>  (80) 
hydroph_interaction:HIS:104    NaN
hydroph_interaction:HIS:104     -1
Name: 79, dtype: object

>  <pistack:HIS:104>  (80) 
pistack:HIS:104    NaN
pistack:HIS:104     -1
Name: 79, dtype: object

>  <halogenbond:SER:105>  (80) 
halogenbond:SER:105    0.0
halogenbond:SER:105      0
Name: 79, dtype: object

>  <hbond:SER:105>  (80) 
hbond:SER:105    0.0
hbond:SER:105      0
Name: 79, dtype: object

>  <hbond:GLU:106>  (80) 
hbond:GLU:106    0.0
hbond:GLU:106      0
Name: 79, dtype: object

>  <hydroph_interaction:GLU:106>  (80) 
hydroph_interaction:GLU:106    NaN
hydroph_interaction:GLU:106     -1
Name: 79, dtype: object

>  <saltbridge:GLU:106>  (80) 
saltbridge:GLU:106    NaN
saltbridge:GLU:106     -1
Name: 79, dtype: object

>  <halogenbond:GLU:106>  (80) 
halogenbond:GLU:106    NaN
halogenbond:GLU:106     -1
Name: 79, dtype: object

>  <hydroph_interaction:PRO:107>  (80) 
hydroph_interaction:PRO:107    1
hydroph_interaction:PRO:107    1
Name: 79, dtype: object

>  <hbond:PRO:107>  (80) 
hbond:PRO:107    0.0
hbond:PRO:107      0
Name: 79, dtype: object

>  <halogenbond:PRO:107>  (80) 
halogenbond:PRO:107    NaN
halogenbond:PRO:107     -1
Name: 79, dtype: object

>  <hbond:GLY:108>  (80) 
hbond:GLY:108    NaN
hbond:GLY:108     -1
Name: 79, dtype: object

>  <halogenbond:GLY:108>  (80) 
halogenbond:GLY:108    NaN
halogenbond:GLY:108     -1
Name: 79, dtype: object

>  <hbond:ASP:109>  (80) 
hbond:ASP:109    0.0
hbond:ASP:109      0
Name: 79, dtype: object

>  <hydroph_interaction:ASP:109>  (80) 
hydroph_interaction:ASP:109    0.0
hydroph_interaction:ASP:109      0
Name: 79, dtype: object

>  <saltbridge:ASP:109>  (80) 
saltbridge:ASP:109    NaN
saltbridge:ASP:109     -1
Name: 79, dtype: object

>  <halogenbond:CYS:110>  (80) 
halogenbond:CYS:110    NaN
halogenbond:CYS:110     -1
Name: 79, dtype: object

>  <hbond:CYS:110>  (80) 
hbond:CYS:110    0.0
hbond:CYS:110      0
Name: 79, dtype: object

>  <hbond:GLY:111>  (80) 
hbond:GLY:111    NaN
hbond:GLY:111     -1
Name: 79, dtype: object

>  <hbond:GLY:112>  (80) 
hbond:GLY:112    NaN
hbond:GLY:112     -1
Name: 79, dtype: object

>  <hbond:ILE:113>  (80) 
hbond:ILE:113    NaN
hbond:ILE:113     -1
Name: 79, dtype: object

>  <hydroph_interaction:LEU:114>  (80) 
hydroph_interaction:LEU:114    NaN
hydroph_interaction:LEU:114     -1
Name: 79, dtype: object

>  <hbond:LEU:114>  (80) 
hbond:LEU:114    NaN
hbond:LEU:114     -1
Name: 79, dtype: object

>  <hydroph_interaction:ILE:123>  (80) 
hydroph_interaction:ILE:123    NaN
hydroph_interaction:ILE:123     -1
Name: 79, dtype: object

>  <hbond:ILE:123>  (80) 
hbond:ILE:123    NaN
hbond:ILE:123     -1
Name: 79, dtype: object

>  <hydroph_interaction:VAL:124>  (80) 
hydroph_interaction:VAL:124    1.0
hydroph_interaction:VAL:124      1
Name: 79, dtype: object

>  <hbond:VAL:124>  (80) 
hbond:VAL:124    NaN
hbond:VAL:124     -1
Name: 79, dtype: object

>  <halogenbond:VAL:124>  (80) 
halogenbond:VAL:124    NaN
halogenbond:VAL:124     -1
Name: 79, dtype: object

>  <hbond:SER:125>  (80) 
hbond:SER:125    1
hbond:SER:125    1
Name: 79, dtype: object

>  <halogenbond:SER:125>  (80) 
halogenbond:SER:125    NaN
halogenbond:SER:125     -1
Name: 79, dtype: object

>  <hydroph_interaction:THR:126>  (80) 
hydroph_interaction:THR:126    1.0
hydroph_interaction:THR:126      1
Name: 79, dtype: object

>  <hbond:THR:126>  (80) 
hbond:THR:126    0.0
hbond:THR:126      0
Name: 79, dtype: object

>  <halogenbond:THR:126>  (80) 
halogenbond:THR:126    NaN
halogenbond:THR:126     -1
Name: 79, dtype: object

>  <hbond:GLY:127>  (80) 
hbond:GLY:127    0
hbond:GLY:127    0
Name: 79, dtype: object

>  <halogenbond:GLY:127>  (80) 
halogenbond:GLY:127    NaN
halogenbond:GLY:127     -1
Name: 79, dtype: object

>  <hydroph_interaction:GLY:127>  (80) 
hydroph_interaction:GLY:127    NaN
hydroph_interaction:GLY:127     -1
Name: 79, dtype: object

>  <hbond:GLY:128>  (80) 
hbond:GLY:128    NaN
hbond:GLY:128     -1
Name: 79, dtype: object

>  <halogenbond:GLY:128>  (80) 
halogenbond:GLY:128    NaN
halogenbond:GLY:128     -1
Name: 79, dtype: object

>  <hydroph_interaction:GLY:128>  (80) 
hydroph_interaction:GLY:128    NaN
hydroph_interaction:GLY:128     -1
Name: 79, dtype: object

>  <hbond:ASN:129>  (80) 
hbond:ASN:129    NaN
hbond:ASN:129     -1
Name: 79, dtype: object

>  <hydroph_interaction:ASN:129>  (80) 
hydroph_interaction:ASN:129    NaN
hydroph_interaction:ASN:129     -1
Name: 79, dtype: object

>  <halogenbond:ASN:129>  (80) 
halogenbond:ASN:129    NaN
halogenbond:ASN:129     -1
Name: 79, dtype: object

>  <hbond:GLY:130>  (80) 
hbond:GLY:130    NaN
hbond:GLY:130     -1
Name: 79, dtype: object

>  <hbond:LEU:131>  (80) 
hbond:LEU:131    NaN
hbond:LEU:131     -1
Name: 79, dtype: object

>  <hydroph_interaction:LEU:131>  (80) 
hydroph_interaction:LEU:131    NaN
hydroph_interaction:LEU:131     -1
Name: 79, dtype: object

>  <halogenbond:LEU:131>  (80) 
halogenbond:LEU:131    NaN
halogenbond:LEU:131     -1
Name: 79, dtype: object

>  <hydroph_interaction:VAL:132>  (80) 
hydroph_interaction:VAL:132    NaN
hydroph_interaction:VAL:132     -1
Name: 79, dtype: object

>  <hbond:VAL:132>  (80) 
hbond:VAL:132    NaN
hbond:VAL:132     -1
Name: 79, dtype: object

>  <hbond:GLY:133>  (80) 
hbond:GLY:133    0.0
hbond:GLY:133      0
Name: 79, dtype: object

>  <halogenbond:GLY:133>  (80) 
halogenbond:GLY:133    NaN
halogenbond:GLY:133     -1
Name: 79, dtype: object

>  <hydroph_interaction:PHE:134>  (80) 
hydroph_interaction:PHE:134    NaN
hydroph_interaction:PHE:134     -1
Name: 79, dtype: object

>  <hbond:PHE:134>  (80) 
hbond:PHE:134    NaN
hbond:PHE:134     -1
Name: 79, dtype: object

>  <pistack:PHE:134>  (80) 
pistack:PHE:134    NaN
pistack:PHE:134     -1
Name: 79, dtype: object

>  <pication:PHE:134>  (80) 
pication:PHE:134    NaN
pication:PHE:134     -1
Name: 79, dtype: object

>  <halogenbond:PHE:134>  (80) 
halogenbond:PHE:134    NaN
halogenbond:PHE:134     -1
Name: 79, dtype: object

>  <hydroph_interaction:ALA:135>  (80) 
hydroph_interaction:ALA:135    NaN
hydroph_interaction:ALA:135     -1
Name: 79, dtype: object

>  <hbond:ALA:135>  (80) 
hbond:ALA:135    NaN
hbond:ALA:135     -1
Name: 79, dtype: object

$$$$
Z1367108164
     RDKit          3D

 23 24  0  0  0  0  0  0  0  0999 V2000
   12.3820   14.6650   22.3470 C   0  0  0  0  0  0  0  0  0  0  0  0
   11.3060   14.1680   23.0640 N   0  0  0  0  0  0  0  0  0  0  0  0
   10.7740   13.0920   22.4090 C   0  0  0  0  0  0  0  0  0  0  0  0
    9.8990   12.1690   23.1730 C   0  0  0  0  0  0  0  0  0  0  0  0
   10.0540   10.8030   22.9600 C   0  0  0  0  0  0  0  0  0  0  0  0
    9.2790    9.8940   23.6320 C   0  0  0  0  0  0  0  0  0  0  0  0
    8.3190   10.3090   24.5380 C   0  0  0  0  0  0  0  0  0  0  0  0
    8.1490   11.6630   24.7590 C   0  0  0  0  0  0  0  0  0  0  0  0
    8.9350   12.5920   24.0840 C   0  0  0  0  0  0  0  0  0  0  0  0
    8.5240   13.8170   24.5270 N   0  0  0  0  0  0  0  0  0  0  0  0
    7.5270   13.7550   25.4330 N   0  0  0  0  0  0  0  0  0  0  0  0
    7.3030   12.4440   25.5700 C   0  0  0  0  0  0  0  0  0  0  0  0
   12.1940   15.6940   22.0260 H   0  0  0  0  0  0  0  0  0  0  0  0
   13.2910   14.6630   22.9570 H   0  0  0  0  0  0  0  0  0  0  0  0
   12.5340   14.0510   21.4530 H   0  0  0  0  0  0  0  0  0  0  0  0
   10.6900   14.9340   23.2880 H   0  0  0  0  0  0  0  0  0  0  0  0
   10.2110   13.4260   21.5350 H   0  0  0  0  0  0  0  0  0  0  0  0
   11.6030   12.5000   22.0340 H   0  0  0  0  0  0  0  0  0  0  0  0
   10.7840   10.4060   22.2620 H   0  0  0  0  0  0  0  0  0  0  0  0
    9.4270    8.8480   23.4460 H   0  0  0  0  0  0  0  0  0  0  0  0
    7.7110    9.5850   25.0630 H   0  0  0  0  0  0  0  0  0  0  0  0
    8.8860   14.7340   24.2480 H   0  0  0  0  0  0  0  0  0  0  0  0
    6.5270   12.1070   26.2620 H   0  0  0  0  0  0  0  0  0  0  0  0
  1  2  1  0
  2  3  1  0
  3  4  1  0
  4  5  2  0
  5  6  1  0
  6  7  2  0
  7  8  1  0
  8  9  2  0
  9 10  1  0
 10 11  1  0
 11 12  2  0
  9  4  1  0
 12  8  1  0
  1 13  1  0
  1 14  1  0
  1 15  1  0
  2 16  1  0
  3 17  1  0
  3 18  1  0
  5 19  1  0
  6 20  1  0
  7 21  1  0
 10 22  1  0
 12 23  1  0
A    1
 C1 
A    2
 N1 
A    3
 C2 
A    4
 C3 
A    5
 C4 
A    6
 C5 
A    7
 C6 
A    8
 C7 
A    9
 C8 
A   10
 N2 
A   11
 N3 
A   12
 C9 
A   13
 H1 
A   14
 H2 
A   15
 H3 
A   16
 H4 
A   17
 H5 
A   18
 H6 
A   19
 H7 
A   20
 H8 
A   21
 H9 
A   22
 H10
A   23
 H11
M  END
>  <ref_pdb>  (81) 
x0310_0A

>  <ref_mols>  (81) 
x0554_0A,x0739_0A

>  <original SMILES>  (81) 
CNCc1cccc2cn[nH]c12

>  <rationale>  (81) 
info halogenbond:C110+G127+D39+A86+S125+E85+Q95+E106+E88+T126+P107+H104+Y64+C65+S87+N129+F83+R93+L131+I82+G128+P91+N19+H21+V84+G133+Y90+Y89+H97+L81+F134+L98+R20+G103+S66+S67+S7+G108+R38+V124+M99+S36; hbond:S87+Y90+Q95+D39+A86+E85+G108+G103+G128+G130+L131+N129+N19+H104+R68+V124+R93+P91+F83+S67+S7+S66+G112+G133+V132+R20+Y89+S77+A135+Y63+A92+A101+M99+F134+L100+I82+Y64+S36+L98+V84+L81+Y94+S80+R38+S37+V102+G8+I123+G111+I113+L114+C65+L22+S96; hydroph_interaction:V84+T126+H21+P107+L22+E85+E106+N129+D39+N19+L40+I123+A135+Q95+I82+L100+L98+L131+F83+R93+V132+Y63+F134+H104+R20+A86+V74+P91+A101+F76+M99+L114+A92+Y94+R68+Y72+Y64+V18+V102+W28+G127+G128+L81; pication:H21+H104+R93+Y63+F134+Y90+R68+F83+R20; pistack:H21+Y89+Y90+H104+F134+Y63+F83+Y94; saltbridge:D39+R93+H104+E106+D109+E85+E88+R68+R20; 

>  <intxn_cluster>  (81) 
-1

>  <intxn_cluster_rank>  (81) 
-1

>  <N_interactions>  (81) 
3

>  <∆∆G>  (81) 
-7.886616

>  <$/mg>  (81) 
82.1

>  <comRMSD>  (81) 
0.825177

>  <N_rotatable_bonds>  (81) 
3

>  <deep_P1_sidechain>  (81) 
nan

>  <farthest_distance_to_substrate>  (81) 
2.464494

>  <hbond:SER:7>  (81) 
hbond:SER:7    NaN
hbond:SER:7     -1
Name: 80, dtype: object

>  <halogenbond:SER:7>  (81) 
halogenbond:SER:7    NaN
halogenbond:SER:7     -1
Name: 80, dtype: object

>  <hbond:GLY:8>  (81) 
hbond:GLY:8    NaN
hbond:GLY:8     -1
Name: 80, dtype: object

>  <hydroph_interaction:VAL:18>  (81) 
hydroph_interaction:VAL:18    NaN
hydroph_interaction:VAL:18     -1
Name: 80, dtype: object

>  <hbond:ASN:19>  (81) 
hbond:ASN:19    NaN
hbond:ASN:19     -1
Name: 80, dtype: object

>  <hydroph_interaction:ASN:19>  (81) 
hydroph_interaction:ASN:19    NaN
hydroph_interaction:ASN:19     -1
Name: 80, dtype: object

>  <halogenbond:ASN:19>  (81) 
halogenbond:ASN:19    NaN
halogenbond:ASN:19     -1
Name: 80, dtype: object

>  <hbond:ARG:20>  (81) 
hbond:ARG:20    NaN
hbond:ARG:20     -1
Name: 80, dtype: object

>  <hydroph_interaction:ARG:20>  (81) 
hydroph_interaction:ARG:20    NaN
hydroph_interaction:ARG:20     -1
Name: 80, dtype: object

>  <saltbridge:ARG:20>  (81) 
saltbridge:ARG:20    NaN
saltbridge:ARG:20     -1
Name: 80, dtype: object

>  <halogenbond:ARG:20>  (81) 
halogenbond:ARG:20    NaN
halogenbond:ARG:20     -1
Name: 80, dtype: object

>  <pication:ARG:20>  (81) 
pication:ARG:20    NaN
pication:ARG:20     -1
Name: 80, dtype: object

>  <hbond:HIS:21>  (81) 
hbond:HIS:21    0.0
hbond:HIS:21      0
Name: 80, dtype: object

>  <hydroph_interaction:HIS:21>  (81) 
hydroph_interaction:HIS:21    NaN
hydroph_interaction:HIS:21     -1
Name: 80, dtype: object

>  <pistack:HIS:21>  (81) 
pistack:HIS:21    NaN
pistack:HIS:21     -1
Name: 80, dtype: object

>  <pication:HIS:21>  (81) 
pication:HIS:21    NaN
pication:HIS:21     -1
Name: 80, dtype: object

>  <saltbridge:HIS:21>  (81) 
saltbridge:HIS:21    0.0
saltbridge:HIS:21      0
Name: 80, dtype: object

>  <halogenbond:HIS:21>  (81) 
halogenbond:HIS:21    NaN
halogenbond:HIS:21     -1
Name: 80, dtype: object

>  <hydroph_interaction:LEU:22>  (81) 
hydroph_interaction:LEU:22    NaN
hydroph_interaction:LEU:22     -1
Name: 80, dtype: object

>  <hbond:LEU:22>  (81) 
hbond:LEU:22    NaN
hbond:LEU:22     -1
Name: 80, dtype: object

>  <hydroph_interaction:TRP:28>  (81) 
hydroph_interaction:TRP:28    NaN
hydroph_interaction:TRP:28     -1
Name: 80, dtype: object

>  <hbond:SER:36>  (81) 
hbond:SER:36    NaN
hbond:SER:36     -1
Name: 80, dtype: object

>  <halogenbond:SER:36>  (81) 
halogenbond:SER:36    NaN
halogenbond:SER:36     -1
Name: 80, dtype: object

>  <hbond:SER:37>  (81) 
hbond:SER:37    NaN
hbond:SER:37     -1
Name: 80, dtype: object

>  <hbond:ARG:38>  (81) 
hbond:ARG:38    NaN
hbond:ARG:38     -1
Name: 80, dtype: object

>  <halogenbond:ARG:38>  (81) 
halogenbond:ARG:38    NaN
halogenbond:ARG:38     -1
Name: 80, dtype: object

>  <saltbridge:ASP:39>  (81) 
saltbridge:ASP:39    NaN
saltbridge:ASP:39     -1
Name: 80, dtype: object

>  <halogenbond:ASP:39>  (81) 
halogenbond:ASP:39    NaN
halogenbond:ASP:39     -1
Name: 80, dtype: object

>  <hbond:ASP:39>  (81) 
hbond:ASP:39    NaN
hbond:ASP:39     -1
Name: 80, dtype: object

>  <hydroph_interaction:ASP:39>  (81) 
hydroph_interaction:ASP:39    NaN
hydroph_interaction:ASP:39     -1
Name: 80, dtype: object

>  <hydroph_interaction:LEU:40>  (81) 
hydroph_interaction:LEU:40    NaN
hydroph_interaction:LEU:40     -1
Name: 80, dtype: object

>  <hydroph_interaction:TYR:63>  (81) 
hydroph_interaction:TYR:63    NaN
hydroph_interaction:TYR:63     -1
Name: 80, dtype: object

>  <hbond:TYR:63>  (81) 
hbond:TYR:63    NaN
hbond:TYR:63     -1
Name: 80, dtype: object

>  <pistack:TYR:63>  (81) 
pistack:TYR:63    NaN
pistack:TYR:63     -1
Name: 80, dtype: object

>  <pication:TYR:63>  (81) 
pication:TYR:63    NaN
pication:TYR:63     -1
Name: 80, dtype: object

>  <halogenbond:TYR:64>  (81) 
halogenbond:TYR:64    NaN
halogenbond:TYR:64     -1
Name: 80, dtype: object

>  <hbond:TYR:64>  (81) 
hbond:TYR:64    NaN
hbond:TYR:64     -1
Name: 80, dtype: object

>  <hydroph_interaction:TYR:64>  (81) 
hydroph_interaction:TYR:64    NaN
hydroph_interaction:TYR:64     -1
Name: 80, dtype: object

>  <halogenbond:CYS:65>  (81) 
halogenbond:CYS:65    NaN
halogenbond:CYS:65     -1
Name: 80, dtype: object

>  <hbond:CYS:65>  (81) 
hbond:CYS:65    NaN
hbond:CYS:65     -1
Name: 80, dtype: object

>  <hbond:SER:66>  (81) 
hbond:SER:66    NaN
hbond:SER:66     -1
Name: 80, dtype: object

>  <halogenbond:SER:66>  (81) 
halogenbond:SER:66    NaN
halogenbond:SER:66     -1
Name: 80, dtype: object

>  <hbond:SER:67>  (81) 
hbond:SER:67    NaN
hbond:SER:67     -1
Name: 80, dtype: object

>  <halogenbond:SER:67>  (81) 
halogenbond:SER:67    NaN
halogenbond:SER:67     -1
Name: 80, dtype: object

>  <hbond:ARG:68>  (81) 
hbond:ARG:68    NaN
hbond:ARG:68     -1
Name: 80, dtype: object

>  <saltbridge:ARG:68>  (81) 
saltbridge:ARG:68    NaN
saltbridge:ARG:68     -1
Name: 80, dtype: object

>  <hydroph_interaction:ARG:68>  (81) 
hydroph_interaction:ARG:68    NaN
hydroph_interaction:ARG:68     -1
Name: 80, dtype: object

>  <pication:ARG:68>  (81) 
pication:ARG:68    NaN
pication:ARG:68     -1
Name: 80, dtype: object

>  <hydroph_interaction:TYR:72>  (81) 
hydroph_interaction:TYR:72    NaN
hydroph_interaction:TYR:72     -1
Name: 80, dtype: object

>  <hydroph_interaction:VAL:74>  (81) 
hydroph_interaction:VAL:74    NaN
hydroph_interaction:VAL:74     -1
Name: 80, dtype: object

>  <hydroph_interaction:PHE:76>  (81) 
hydroph_interaction:PHE:76    NaN
hydroph_interaction:PHE:76     -1
Name: 80, dtype: object

>  <hbond:SER:77>  (81) 
hbond:SER:77    NaN
hbond:SER:77     -1
Name: 80, dtype: object

>  <hbond:SER:80>  (81) 
hbond:SER:80    NaN
hbond:SER:80     -1
Name: 80, dtype: object

>  <hbond:LEU:81>  (81) 
hbond:LEU:81    NaN
hbond:LEU:81     -1
Name: 80, dtype: object

>  <halogenbond:LEU:81>  (81) 
halogenbond:LEU:81    NaN
halogenbond:LEU:81     -1
Name: 80, dtype: object

>  <hydroph_interaction:LEU:81>  (81) 
hydroph_interaction:LEU:81    NaN
hydroph_interaction:LEU:81     -1
Name: 80, dtype: object

>  <hydroph_interaction:ILE:82>  (81) 
hydroph_interaction:ILE:82    NaN
hydroph_interaction:ILE:82     -1
Name: 80, dtype: object

>  <halogenbond:ILE:82>  (81) 
halogenbond:ILE:82    NaN
halogenbond:ILE:82     -1
Name: 80, dtype: object

>  <hbond:ILE:82>  (81) 
hbond:ILE:82    NaN
hbond:ILE:82     -1
Name: 80, dtype: object

>  <hbond:PHE:83>  (81) 
hbond:PHE:83    NaN
hbond:PHE:83     -1
Name: 80, dtype: object

>  <hydroph_interaction:PHE:83>  (81) 
hydroph_interaction:PHE:83    NaN
hydroph_interaction:PHE:83     -1
Name: 80, dtype: object

>  <halogenbond:PHE:83>  (81) 
halogenbond:PHE:83    NaN
halogenbond:PHE:83     -1
Name: 80, dtype: object

>  <pistack:PHE:83>  (81) 
pistack:PHE:83    NaN
pistack:PHE:83     -1
Name: 80, dtype: object

>  <pication:PHE:83>  (81) 
pication:PHE:83    NaN
pication:PHE:83     -1
Name: 80, dtype: object

>  <hydroph_interaction:VAL:84>  (81) 
hydroph_interaction:VAL:84    NaN
hydroph_interaction:VAL:84     -1
Name: 80, dtype: object

>  <halogenbond:VAL:84>  (81) 
halogenbond:VAL:84    NaN
halogenbond:VAL:84     -1
Name: 80, dtype: object

>  <hbond:VAL:84>  (81) 
hbond:VAL:84    NaN
hbond:VAL:84     -1
Name: 80, dtype: object

>  <hydroph_interaction:GLU:85>  (81) 
hydroph_interaction:GLU:85    NaN
hydroph_interaction:GLU:85     -1
Name: 80, dtype: object

>  <hbond:GLU:85>  (81) 
hbond:GLU:85    NaN
hbond:GLU:85     -1
Name: 80, dtype: object

>  <halogenbond:GLU:85>  (81) 
halogenbond:GLU:85    NaN
halogenbond:GLU:85     -1
Name: 80, dtype: object

>  <saltbridge:GLU:85>  (81) 
saltbridge:GLU:85    NaN
saltbridge:GLU:85     -1
Name: 80, dtype: object

>  <halogenbond:ALA:86>  (81) 
halogenbond:ALA:86    NaN
halogenbond:ALA:86     -1
Name: 80, dtype: object

>  <hbond:ALA:86>  (81) 
hbond:ALA:86    NaN
hbond:ALA:86     -1
Name: 80, dtype: object

>  <hydroph_interaction:ALA:86>  (81) 
hydroph_interaction:ALA:86    NaN
hydroph_interaction:ALA:86     -1
Name: 80, dtype: object

>  <hbond:SER:87>  (81) 
hbond:SER:87    2
hbond:SER:87    2
Name: 80, dtype: object

>  <halogenbond:SER:87>  (81) 
halogenbond:SER:87    NaN
halogenbond:SER:87     -1
Name: 80, dtype: object

>  <hbond:GLU:88>  (81) 
hbond:GLU:88    0.0
hbond:GLU:88      0
Name: 80, dtype: object

>  <hydroph_interaction:GLU:88>  (81) 
hydroph_interaction:GLU:88    0.0
hydroph_interaction:GLU:88      0
Name: 80, dtype: object

>  <halogenbond:GLU:88>  (81) 
halogenbond:GLU:88    NaN
halogenbond:GLU:88     -1
Name: 80, dtype: object

>  <saltbridge:GLU:88>  (81) 
saltbridge:GLU:88    NaN
saltbridge:GLU:88     -1
Name: 80, dtype: object

>  <hydroph_interaction:TYR:89>  (81) 
hydroph_interaction:TYR:89    0.0
hydroph_interaction:TYR:89      0
Name: 80, dtype: object

>  <pistack:TYR:89>  (81) 
pistack:TYR:89    NaN
pistack:TYR:89     -1
Name: 80, dtype: object

>  <hbond:TYR:89>  (81) 
hbond:TYR:89    NaN
hbond:TYR:89     -1
Name: 80, dtype: object

>  <halogenbond:TYR:89>  (81) 
halogenbond:TYR:89    NaN
halogenbond:TYR:89     -1
Name: 80, dtype: object

>  <hydroph_interaction:TYR:90>  (81) 
hydroph_interaction:TYR:90    0.0
hydroph_interaction:TYR:90      0
Name: 80, dtype: object

>  <hbond:TYR:90>  (81) 
hbond:TYR:90    NaN
hbond:TYR:90     -1
Name: 80, dtype: object

>  <pistack:TYR:90>  (81) 
pistack:TYR:90    NaN
pistack:TYR:90     -1
Name: 80, dtype: object

>  <halogenbond:TYR:90>  (81) 
halogenbond:TYR:90    NaN
halogenbond:TYR:90     -1
Name: 80, dtype: object

>  <pication:TYR:90>  (81) 
pication:TYR:90    NaN
pication:TYR:90     -1
Name: 80, dtype: object

>  <hbond:PRO:91>  (81) 
hbond:PRO:91    NaN
hbond:PRO:91     -1
Name: 80, dtype: object

>  <hydroph_interaction:PRO:91>  (81) 
hydroph_interaction:PRO:91    NaN
hydroph_interaction:PRO:91     -1
Name: 80, dtype: object

>  <halogenbond:PRO:91>  (81) 
halogenbond:PRO:91    NaN
halogenbond:PRO:91     -1
Name: 80, dtype: object

>  <hbond:ALA:92>  (81) 
hbond:ALA:92    NaN
hbond:ALA:92     -1
Name: 80, dtype: object

>  <hydroph_interaction:ALA:92>  (81) 
hydroph_interaction:ALA:92    NaN
hydroph_interaction:ALA:92     -1
Name: 80, dtype: object

>  <saltbridge:ARG:93>  (81) 
saltbridge:ARG:93    NaN
saltbridge:ARG:93     -1
Name: 80, dtype: object

>  <hbond:ARG:93>  (81) 
hbond:ARG:93    NaN
hbond:ARG:93     -1
Name: 80, dtype: object

>  <hydroph_interaction:ARG:93>  (81) 
hydroph_interaction:ARG:93    NaN
hydroph_interaction:ARG:93     -1
Name: 80, dtype: object

>  <halogenbond:ARG:93>  (81) 
halogenbond:ARG:93    NaN
halogenbond:ARG:93     -1
Name: 80, dtype: object

>  <pication:ARG:93>  (81) 
pication:ARG:93    NaN
pication:ARG:93     -1
Name: 80, dtype: object

>  <hydroph_interaction:TYR:94>  (81) 
hydroph_interaction:TYR:94    NaN
hydroph_interaction:TYR:94     -1
Name: 80, dtype: object

>  <pistack:TYR:94>  (81) 
pistack:TYR:94    NaN
pistack:TYR:94     -1
Name: 80, dtype: object

>  <hbond:TYR:94>  (81) 
hbond:TYR:94    NaN
hbond:TYR:94     -1
Name: 80, dtype: object

>  <hbond:GLN:95>  (81) 
hbond:GLN:95    NaN
hbond:GLN:95     -1
Name: 80, dtype: object

>  <hydroph_interaction:GLN:95>  (81) 
hydroph_interaction:GLN:95    NaN
hydroph_interaction:GLN:95     -1
Name: 80, dtype: object

>  <halogenbond:GLN:95>  (81) 
halogenbond:GLN:95    NaN
halogenbond:GLN:95     -1
Name: 80, dtype: object

>  <hbond:SER:96>  (81) 
hbond:SER:96    NaN
hbond:SER:96     -1
Name: 80, dtype: object

>  <halogenbond:HIS:97>  (81) 
halogenbond:HIS:97    NaN
halogenbond:HIS:97     -1
Name: 80, dtype: object

>  <hydroph_interaction:LEU:98>  (81) 
hydroph_interaction:LEU:98    NaN
hydroph_interaction:LEU:98     -1
Name: 80, dtype: object

>  <hbond:LEU:98>  (81) 
hbond:LEU:98    NaN
hbond:LEU:98     -1
Name: 80, dtype: object

>  <halogenbond:LEU:98>  (81) 
halogenbond:LEU:98    NaN
halogenbond:LEU:98     -1
Name: 80, dtype: object

>  <hbond:MET:99>  (81) 
hbond:MET:99    NaN
hbond:MET:99     -1
Name: 80, dtype: object

>  <hydroph_interaction:MET:99>  (81) 
hydroph_interaction:MET:99    NaN
hydroph_interaction:MET:99     -1
Name: 80, dtype: object

>  <halogenbond:MET:99>  (81) 
halogenbond:MET:99    NaN
halogenbond:MET:99     -1
Name: 80, dtype: object

>  <hydroph_interaction:LEU:100>  (81) 
hydroph_interaction:LEU:100    NaN
hydroph_interaction:LEU:100     -1
Name: 80, dtype: object

>  <hbond:LEU:100>  (81) 
hbond:LEU:100    NaN
hbond:LEU:100     -1
Name: 80, dtype: object

>  <hbond:ALA:101>  (81) 
hbond:ALA:101    NaN
hbond:ALA:101     -1
Name: 80, dtype: object

>  <hydroph_interaction:ALA:101>  (81) 
hydroph_interaction:ALA:101    NaN
hydroph_interaction:ALA:101     -1
Name: 80, dtype: object

>  <hydroph_interaction:VAL:102>  (81) 
hydroph_interaction:VAL:102    NaN
hydroph_interaction:VAL:102     -1
Name: 80, dtype: object

>  <hbond:VAL:102>  (81) 
hbond:VAL:102    NaN
hbond:VAL:102     -1
Name: 80, dtype: object

>  <hbond:GLY:103>  (81) 
hbond:GLY:103    NaN
hbond:GLY:103     -1
Name: 80, dtype: object

>  <halogenbond:GLY:103>  (81) 
halogenbond:GLY:103    NaN
halogenbond:GLY:103     -1
Name: 80, dtype: object

>  <hbond:HIS:104>  (81) 
hbond:HIS:104    NaN
hbond:HIS:104     -1
Name: 80, dtype: object

>  <saltbridge:HIS:104>  (81) 
saltbridge:HIS:104    NaN
saltbridge:HIS:104     -1
Name: 80, dtype: object

>  <pication:HIS:104>  (81) 
pication:HIS:104    NaN
pication:HIS:104     -1
Name: 80, dtype: object

>  <halogenbond:HIS:104>  (81) 
halogenbond:HIS:104    NaN
halogenbond:HIS:104     -1
Name: 80, dtype: object

>  <hydroph_interaction:HIS:104>  (81) 
hydroph_interaction:HIS:104    NaN
hydroph_interaction:HIS:104     -1
Name: 80, dtype: object

>  <pistack:HIS:104>  (81) 
pistack:HIS:104    NaN
pistack:HIS:104     -1
Name: 80, dtype: object

>  <halogenbond:SER:105>  (81) 
halogenbond:SER:105    0.0
halogenbond:SER:105      0
Name: 80, dtype: object

>  <hbond:SER:105>  (81) 
hbond:SER:105    0.0
hbond:SER:105      0
Name: 80, dtype: object

>  <hbond:GLU:106>  (81) 
hbond:GLU:106    0.0
hbond:GLU:106      0
Name: 80, dtype: object

>  <hydroph_interaction:GLU:106>  (81) 
hydroph_interaction:GLU:106    NaN
hydroph_interaction:GLU:106     -1
Name: 80, dtype: object

>  <saltbridge:GLU:106>  (81) 
saltbridge:GLU:106    NaN
saltbridge:GLU:106     -1
Name: 80, dtype: object

>  <halogenbond:GLU:106>  (81) 
halogenbond:GLU:106    NaN
halogenbond:GLU:106     -1
Name: 80, dtype: object

>  <hydroph_interaction:PRO:107>  (81) 
hydroph_interaction:PRO:107    1
hydroph_interaction:PRO:107    1
Name: 80, dtype: object

>  <hbond:PRO:107>  (81) 
hbond:PRO:107    0.0
hbond:PRO:107      0
Name: 80, dtype: object

>  <halogenbond:PRO:107>  (81) 
halogenbond:PRO:107    NaN
halogenbond:PRO:107     -1
Name: 80, dtype: object

>  <hbond:GLY:108>  (81) 
hbond:GLY:108    NaN
hbond:GLY:108     -1
Name: 80, dtype: object

>  <halogenbond:GLY:108>  (81) 
halogenbond:GLY:108    NaN
halogenbond:GLY:108     -1
Name: 80, dtype: object

>  <hbond:ASP:109>  (81) 
hbond:ASP:109    0.0
hbond:ASP:109      0
Name: 80, dtype: object

>  <hydroph_interaction:ASP:109>  (81) 
hydroph_interaction:ASP:109    0.0
hydroph_interaction:ASP:109      0
Name: 80, dtype: object

>  <saltbridge:ASP:109>  (81) 
saltbridge:ASP:109    NaN
saltbridge:ASP:109     -1
Name: 80, dtype: object

>  <halogenbond:CYS:110>  (81) 
halogenbond:CYS:110    NaN
halogenbond:CYS:110     -1
Name: 80, dtype: object

>  <hbond:CYS:110>  (81) 
hbond:CYS:110    0.0
hbond:CYS:110      0
Name: 80, dtype: object

>  <hbond:GLY:111>  (81) 
hbond:GLY:111    NaN
hbond:GLY:111     -1
Name: 80, dtype: object

>  <hbond:GLY:112>  (81) 
hbond:GLY:112    NaN
hbond:GLY:112     -1
Name: 80, dtype: object

>  <hbond:ILE:113>  (81) 
hbond:ILE:113    NaN
hbond:ILE:113     -1
Name: 80, dtype: object

>  <hydroph_interaction:LEU:114>  (81) 
hydroph_interaction:LEU:114    NaN
hydroph_interaction:LEU:114     -1
Name: 80, dtype: object

>  <hbond:LEU:114>  (81) 
hbond:LEU:114    NaN
hbond:LEU:114     -1
Name: 80, dtype: object

>  <hydroph_interaction:ILE:123>  (81) 
hydroph_interaction:ILE:123    NaN
hydroph_interaction:ILE:123     -1
Name: 80, dtype: object

>  <hbond:ILE:123>  (81) 
hbond:ILE:123    NaN
hbond:ILE:123     -1
Name: 80, dtype: object

>  <hydroph_interaction:VAL:124>  (81) 
hydroph_interaction:VAL:124    0.0
hydroph_interaction:VAL:124      0
Name: 80, dtype: object

>  <hbond:VAL:124>  (81) 
hbond:VAL:124    NaN
hbond:VAL:124     -1
Name: 80, dtype: object

>  <halogenbond:VAL:124>  (81) 
halogenbond:VAL:124    NaN
halogenbond:VAL:124     -1
Name: 80, dtype: object

>  <hbond:SER:125>  (81) 
hbond:SER:125    0
hbond:SER:125    0
Name: 80, dtype: object

>  <halogenbond:SER:125>  (81) 
halogenbond:SER:125    NaN
halogenbond:SER:125     -1
Name: 80, dtype: object

>  <hydroph_interaction:THR:126>  (81) 
hydroph_interaction:THR:126    NaN
hydroph_interaction:THR:126     -1
Name: 80, dtype: object

>  <hbond:THR:126>  (81) 
hbond:THR:126    0.0
hbond:THR:126      0
Name: 80, dtype: object

>  <halogenbond:THR:126>  (81) 
halogenbond:THR:126    NaN
halogenbond:THR:126     -1
Name: 80, dtype: object

>  <hbond:GLY:127>  (81) 
hbond:GLY:127    0
hbond:GLY:127    0
Name: 80, dtype: object

>  <halogenbond:GLY:127>  (81) 
halogenbond:GLY:127    NaN
halogenbond:GLY:127     -1
Name: 80, dtype: object

>  <hydroph_interaction:GLY:127>  (81) 
hydroph_interaction:GLY:127    NaN
hydroph_interaction:GLY:127     -1
Name: 80, dtype: object

>  <hbond:GLY:128>  (81) 
hbond:GLY:128    NaN
hbond:GLY:128     -1
Name: 80, dtype: object

>  <halogenbond:GLY:128>  (81) 
halogenbond:GLY:128    NaN
halogenbond:GLY:128     -1
Name: 80, dtype: object

>  <hydroph_interaction:GLY:128>  (81) 
hydroph_interaction:GLY:128    NaN
hydroph_interaction:GLY:128     -1
Name: 80, dtype: object

>  <hbond:ASN:129>  (81) 
hbond:ASN:129    NaN
hbond:ASN:129     -1
Name: 80, dtype: object

>  <hydroph_interaction:ASN:129>  (81) 
hydroph_interaction:ASN:129    NaN
hydroph_interaction:ASN:129     -1
Name: 80, dtype: object

>  <halogenbond:ASN:129>  (81) 
halogenbond:ASN:129    NaN
halogenbond:ASN:129     -1
Name: 80, dtype: object

>  <hbond:GLY:130>  (81) 
hbond:GLY:130    NaN
hbond:GLY:130     -1
Name: 80, dtype: object

>  <hbond:LEU:131>  (81) 
hbond:LEU:131    NaN
hbond:LEU:131     -1
Name: 80, dtype: object

>  <hydroph_interaction:LEU:131>  (81) 
hydroph_interaction:LEU:131    NaN
hydroph_interaction:LEU:131     -1
Name: 80, dtype: object

>  <halogenbond:LEU:131>  (81) 
halogenbond:LEU:131    NaN
halogenbond:LEU:131     -1
Name: 80, dtype: object

>  <hydroph_interaction:VAL:132>  (81) 
hydroph_interaction:VAL:132    NaN
hydroph_interaction:VAL:132     -1
Name: 80, dtype: object

>  <hbond:VAL:132>  (81) 
hbond:VAL:132    NaN
hbond:VAL:132     -1
Name: 80, dtype: object

>  <hbond:GLY:133>  (81) 
hbond:GLY:133    NaN
hbond:GLY:133     -1
Name: 80, dtype: object

>  <halogenbond:GLY:133>  (81) 
halogenbond:GLY:133    NaN
halogenbond:GLY:133     -1
Name: 80, dtype: object

>  <hydroph_interaction:PHE:134>  (81) 
hydroph_interaction:PHE:134    NaN
hydroph_interaction:PHE:134     -1
Name: 80, dtype: object

>  <hbond:PHE:134>  (81) 
hbond:PHE:134    NaN
hbond:PHE:134     -1
Name: 80, dtype: object

>  <pistack:PHE:134>  (81) 
pistack:PHE:134    NaN
pistack:PHE:134     -1
Name: 80, dtype: object

>  <pication:PHE:134>  (81) 
pication:PHE:134    NaN
pication:PHE:134     -1
Name: 80, dtype: object

>  <halogenbond:PHE:134>  (81) 
halogenbond:PHE:134    NaN
halogenbond:PHE:134     -1
Name: 80, dtype: object

>  <hydroph_interaction:ALA:135>  (81) 
hydroph_interaction:ALA:135    NaN
hydroph_interaction:ALA:135     -1
Name: 80, dtype: object

>  <hbond:ALA:135>  (81) 
hbond:ALA:135    NaN
hbond:ALA:135     -1
Name: 80, dtype: object

$$$$
PV_002894369647
     RDKit          3D

 30 31  0  0  0  0  0  0  0  0999 V2000
   12.2170   15.3450   22.0660 C   0  0  0  0  0  0  0  0  0  0  0  0
   11.4920   14.2370   22.8100 C   0  0  0  0  0  0  0  0  0  0  0  0
   11.9180   14.0830   24.1040 C   0  0  0  0  0  0  0  0  0  0  0  0
   10.5340   13.4590   22.3070 C   0  0  0  0  0  0  0  0  0  0  0  0
    9.8430   12.3630   23.0210 C   0  0  0  0  0  0  0  0  0  0  0  0
    8.8620   12.5450   23.9740 C   0  0  0  0  0  0  0  0  0  0  0  0
    8.3940   13.8750   24.3870 C   0  0  0  0  0  0  0  0  0  0  0  0
    7.4520   14.1130   25.2990 N   0  0  0  0  0  0  0  0  0  0  0  0
    6.9130   13.0090   25.8560 C   0  0  0  0  0  0  0  0  0  0  0  0
    7.2760   11.6940   25.5440 C   0  0  0  0  0  0  0  0  0  0  0  0
    8.2560   11.4490   24.5980 C   0  0  0  0  0  0  0  0  0  0  0  0
    8.6620   10.1580   24.2430 C   0  0  0  0  0  0  0  0  0  0  0  0
    9.6540    9.9940   23.2810 C   0  0  0  0  0  0  0  0  0  0  0  0
   10.1790    8.7060   22.8090 C   0  0  0  0  0  0  0  0  0  0  0  0
   10.2150   11.0870   22.6980 C   0  0  0  0  0  0  0  0  0  0  0  0
   12.3060   16.2310   22.7050 H   0  0  0  0  0  0  0  0  0  0  0  0
   13.2320   15.0370   21.8010 H   0  0  0  0  0  0  0  0  0  0  0  0
   11.6990   15.5920   21.1330 H   0  0  0  0  0  0  0  0  0  0  0  0
   12.3810   14.9330   24.5900 H   0  0  0  0  0  0  0  0  0  0  0  0
   11.0660   13.7940   24.7230 H   0  0  0  0  0  0  0  0  0  0  0  0
   12.6490   13.2680   24.1370 H   0  0  0  0  0  0  0  0  0  0  0  0
   10.2040   13.6020   21.2830 H   0  0  0  0  0  0  0  0  0  0  0  0
    8.8720   14.7180   23.8930 H   0  0  0  0  0  0  0  0  0  0  0  0
    6.1390   13.2050   26.6030 H   0  0  0  0  0  0  0  0  0  0  0  0
    6.7790   10.8740   26.0520 H   0  0  0  0  0  0  0  0  0  0  0  0
    8.2090    9.2920   24.7110 H   0  0  0  0  0  0  0  0  0  0  0  0
    9.5400    8.3090   22.0180 H   0  0  0  0  0  0  0  0  0  0  0  0
   11.1840    8.8530   22.4230 H   0  0  0  0  0  0  0  0  0  0  0  0
   10.2610    7.9910   23.6060 H   0  0  0  0  0  0  0  0  0  0  0  0
   10.9740   10.9370   21.9580 H   0  0  0  0  0  0  0  0  0  0  0  0
  1  2  1  0
  2  3  1  0
  2  4  2  3
  4  5  1  0
  5  6  2  0
  6  7  1  0
  7  8  2  0
  8  9  1  0
  9 10  2  0
 10 11  1  0
 11 12  2  0
 12 13  1  0
 13 14  1  0
 13 15  2  0
 15  5  1  0
 11  6  1  0
  1 16  1  0
  1 17  1  0
  1 18  1  0
  3 19  1  0
  3 20  1  0
  3 21  1  0
  4 22  1  0
  7 23  1  0
  9 24  1  0
 10 25  1  0
 12 26  1  0
 14 27  1  0
 14 28  1  0
 14 29  1  0
 15 30  1  0
A    1
 C1 
A    2
 C2 
A    3
 C3 
A    4
 C4 
A    5
 C5 
A    6
 C6 
A    7
 C7 
A    8
 N1 
A    9
 C8 
A   10
 C9 
A   11
 C10
A   12
 C11
A   13
 C12
A   14
 C13
A   15
 C14
A   16
 H1 
A   17
 H2 
A   18
 H3 
A   19
 H4 
A   20
 H5 
A   21
 H6 
A   22
 H7 
A   23
 H8 
A   24
 H9 
A   25
 H10
A   26
 H11
A   27
 H12
A   28
 H13
A   29
 H14
A   30
 H15
M  END
>  <ref_pdb>  (82) 
x0310_0A

>  <ref_mols>  (82) 
x0554_0A,x0739_0A

>  <original SMILES>  (82) 
CC(C)=Cc1cc(C)cc2ccncc12

>  <rationale>  (82) 
info halogenbond:C110+G127+D39+A86+S125+E85+Q95+E106+E88+T126+P107+H104+Y64+C65+S87+N129+F83+R93+L131+I82+G128+P91+N19+H21+V84+G133+Y90+Y89+H97+L81+F134+L98+R20+G103+S66+S67+S7+G108+R38+V124+M99+S36; hbond:Y90+Q95+D39+A86+E85+G108+G103+G128+G130+L131+N129+N19+H104+R68+V124+R93+P91+F83+S67+S7+S66+G112+G133+V132+R20+Y89+S77+A135+Y63+A92+A101+M99+F134+L100+I82+Y64+S36+L98+V84+L81+Y94+S80+R38+S37+V102+G8+I123+G111+I113+L114+C65+L22+S96; hydroph_interaction:V84+V124+T126+H21+P107+L22+E85+E106+N129+D39+N19+L40+I123+A135+Q95+I82+L100+L98+L131+F83+R93+V132+Y63+F134+H104+R20+A86+V74+P91+A101+F76+M99+L114+A92+Y94+R68+Y72+Y64+V18+V102+W28+G127+G128+L81; pication:H21+H104+R93+Y63+F134+Y90+R68+F83+R20; pistack:H21+Y89+Y90+H104+F134+Y63+F83+Y94; saltbridge:D39+R93+H104+E106+D109+E85+E88+R68+R20; 

>  <intxn_cluster>  (82) 
-1

>  <intxn_cluster_rank>  (82) 
-1

>  <N_interactions>  (82) 
2

>  <∆∆G>  (82) 
-12.313433

>  <$/mg>  (82) 
163.0

>  <comRMSD>  (82) 
0.853598

>  <N_rotatable_bonds>  (82) 
4

>  <deep_P1_sidechain>  (82) 
nan

>  <farthest_distance_to_substrate>  (82) 
2.389974

>  <hbond:SER:7>  (82) 
hbond:SER:7    NaN
hbond:SER:7     -1
Name: 81, dtype: object

>  <halogenbond:SER:7>  (82) 
halogenbond:SER:7    NaN
halogenbond:SER:7     -1
Name: 81, dtype: object

>  <hbond:GLY:8>  (82) 
hbond:GLY:8    NaN
hbond:GLY:8     -1
Name: 81, dtype: object

>  <hydroph_interaction:VAL:18>  (82) 
hydroph_interaction:VAL:18    NaN
hydroph_interaction:VAL:18     -1
Name: 81, dtype: object

>  <hbond:ASN:19>  (82) 
hbond:ASN:19    NaN
hbond:ASN:19     -1
Name: 81, dtype: object

>  <hydroph_interaction:ASN:19>  (82) 
hydroph_interaction:ASN:19    NaN
hydroph_interaction:ASN:19     -1
Name: 81, dtype: object

>  <halogenbond:ASN:19>  (82) 
halogenbond:ASN:19    NaN
halogenbond:ASN:19     -1
Name: 81, dtype: object

>  <hbond:ARG:20>  (82) 
hbond:ARG:20    NaN
hbond:ARG:20     -1
Name: 81, dtype: object

>  <hydroph_interaction:ARG:20>  (82) 
hydroph_interaction:ARG:20    NaN
hydroph_interaction:ARG:20     -1
Name: 81, dtype: object

>  <saltbridge:ARG:20>  (82) 
saltbridge:ARG:20    NaN
saltbridge:ARG:20     -1
Name: 81, dtype: object

>  <halogenbond:ARG:20>  (82) 
halogenbond:ARG:20    NaN
halogenbond:ARG:20     -1
Name: 81, dtype: object

>  <pication:ARG:20>  (82) 
pication:ARG:20    NaN
pication:ARG:20     -1
Name: 81, dtype: object

>  <hbond:HIS:21>  (82) 
hbond:HIS:21    0.0
hbond:HIS:21      0
Name: 81, dtype: object

>  <hydroph_interaction:HIS:21>  (82) 
hydroph_interaction:HIS:21    NaN
hydroph_interaction:HIS:21     -1
Name: 81, dtype: object

>  <pistack:HIS:21>  (82) 
pistack:HIS:21    NaN
pistack:HIS:21     -1
Name: 81, dtype: object

>  <pication:HIS:21>  (82) 
pication:HIS:21    NaN
pication:HIS:21     -1
Name: 81, dtype: object

>  <saltbridge:HIS:21>  (82) 
saltbridge:HIS:21    0.0
saltbridge:HIS:21      0
Name: 81, dtype: object

>  <halogenbond:HIS:21>  (82) 
halogenbond:HIS:21    NaN
halogenbond:HIS:21     -1
Name: 81, dtype: object

>  <hydroph_interaction:LEU:22>  (82) 
hydroph_interaction:LEU:22    NaN
hydroph_interaction:LEU:22     -1
Name: 81, dtype: object

>  <hbond:LEU:22>  (82) 
hbond:LEU:22    NaN
hbond:LEU:22     -1
Name: 81, dtype: object

>  <hydroph_interaction:TRP:28>  (82) 
hydroph_interaction:TRP:28    NaN
hydroph_interaction:TRP:28     -1
Name: 81, dtype: object

>  <hbond:SER:36>  (82) 
hbond:SER:36    NaN
hbond:SER:36     -1
Name: 81, dtype: object

>  <halogenbond:SER:36>  (82) 
halogenbond:SER:36    NaN
halogenbond:SER:36     -1
Name: 81, dtype: object

>  <hbond:SER:37>  (82) 
hbond:SER:37    NaN
hbond:SER:37     -1
Name: 81, dtype: object

>  <hbond:ARG:38>  (82) 
hbond:ARG:38    NaN
hbond:ARG:38     -1
Name: 81, dtype: object

>  <halogenbond:ARG:38>  (82) 
halogenbond:ARG:38    NaN
halogenbond:ARG:38     -1
Name: 81, dtype: object

>  <saltbridge:ASP:39>  (82) 
saltbridge:ASP:39    NaN
saltbridge:ASP:39     -1
Name: 81, dtype: object

>  <halogenbond:ASP:39>  (82) 
halogenbond:ASP:39    NaN
halogenbond:ASP:39     -1
Name: 81, dtype: object

>  <hbond:ASP:39>  (82) 
hbond:ASP:39    NaN
hbond:ASP:39     -1
Name: 81, dtype: object

>  <hydroph_interaction:ASP:39>  (82) 
hydroph_interaction:ASP:39    NaN
hydroph_interaction:ASP:39     -1
Name: 81, dtype: object

>  <hydroph_interaction:LEU:40>  (82) 
hydroph_interaction:LEU:40    NaN
hydroph_interaction:LEU:40     -1
Name: 81, dtype: object

>  <hydroph_interaction:TYR:63>  (82) 
hydroph_interaction:TYR:63    NaN
hydroph_interaction:TYR:63     -1
Name: 81, dtype: object

>  <hbond:TYR:63>  (82) 
hbond:TYR:63    NaN
hbond:TYR:63     -1
Name: 81, dtype: object

>  <pistack:TYR:63>  (82) 
pistack:TYR:63    NaN
pistack:TYR:63     -1
Name: 81, dtype: object

>  <pication:TYR:63>  (82) 
pication:TYR:63    NaN
pication:TYR:63     -1
Name: 81, dtype: object

>  <halogenbond:TYR:64>  (82) 
halogenbond:TYR:64    NaN
halogenbond:TYR:64     -1
Name: 81, dtype: object

>  <hbond:TYR:64>  (82) 
hbond:TYR:64    NaN
hbond:TYR:64     -1
Name: 81, dtype: object

>  <hydroph_interaction:TYR:64>  (82) 
hydroph_interaction:TYR:64    NaN
hydroph_interaction:TYR:64     -1
Name: 81, dtype: object

>  <halogenbond:CYS:65>  (82) 
halogenbond:CYS:65    NaN
halogenbond:CYS:65     -1
Name: 81, dtype: object

>  <hbond:CYS:65>  (82) 
hbond:CYS:65    NaN
hbond:CYS:65     -1
Name: 81, dtype: object

>  <hbond:SER:66>  (82) 
hbond:SER:66    NaN
hbond:SER:66     -1
Name: 81, dtype: object

>  <halogenbond:SER:66>  (82) 
halogenbond:SER:66    NaN
halogenbond:SER:66     -1
Name: 81, dtype: object

>  <hbond:SER:67>  (82) 
hbond:SER:67    NaN
hbond:SER:67     -1
Name: 81, dtype: object

>  <halogenbond:SER:67>  (82) 
halogenbond:SER:67    NaN
halogenbond:SER:67     -1
Name: 81, dtype: object

>  <hbond:ARG:68>  (82) 
hbond:ARG:68    NaN
hbond:ARG:68     -1
Name: 81, dtype: object

>  <saltbridge:ARG:68>  (82) 
saltbridge:ARG:68    NaN
saltbridge:ARG:68     -1
Name: 81, dtype: object

>  <hydroph_interaction:ARG:68>  (82) 
hydroph_interaction:ARG:68    NaN
hydroph_interaction:ARG:68     -1
Name: 81, dtype: object

>  <pication:ARG:68>  (82) 
pication:ARG:68    NaN
pication:ARG:68     -1
Name: 81, dtype: object

>  <hydroph_interaction:TYR:72>  (82) 
hydroph_interaction:TYR:72    NaN
hydroph_interaction:TYR:72     -1
Name: 81, dtype: object

>  <hydroph_interaction:VAL:74>  (82) 
hydroph_interaction:VAL:74    NaN
hydroph_interaction:VAL:74     -1
Name: 81, dtype: object

>  <hydroph_interaction:PHE:76>  (82) 
hydroph_interaction:PHE:76    NaN
hydroph_interaction:PHE:76     -1
Name: 81, dtype: object

>  <hbond:SER:77>  (82) 
hbond:SER:77    NaN
hbond:SER:77     -1
Name: 81, dtype: object

>  <hbond:SER:80>  (82) 
hbond:SER:80    NaN
hbond:SER:80     -1
Name: 81, dtype: object

>  <hbond:LEU:81>  (82) 
hbond:LEU:81    NaN
hbond:LEU:81     -1
Name: 81, dtype: object

>  <halogenbond:LEU:81>  (82) 
halogenbond:LEU:81    NaN
halogenbond:LEU:81     -1
Name: 81, dtype: object

>  <hydroph_interaction:LEU:81>  (82) 
hydroph_interaction:LEU:81    NaN
hydroph_interaction:LEU:81     -1
Name: 81, dtype: object

>  <hydroph_interaction:ILE:82>  (82) 
hydroph_interaction:ILE:82    NaN
hydroph_interaction:ILE:82     -1
Name: 81, dtype: object

>  <halogenbond:ILE:82>  (82) 
halogenbond:ILE:82    NaN
halogenbond:ILE:82     -1
Name: 81, dtype: object

>  <hbond:ILE:82>  (82) 
hbond:ILE:82    NaN
hbond:ILE:82     -1
Name: 81, dtype: object

>  <hbond:PHE:83>  (82) 
hbond:PHE:83    NaN
hbond:PHE:83     -1
Name: 81, dtype: object

>  <hydroph_interaction:PHE:83>  (82) 
hydroph_interaction:PHE:83    NaN
hydroph_interaction:PHE:83     -1
Name: 81, dtype: object

>  <halogenbond:PHE:83>  (82) 
halogenbond:PHE:83    NaN
halogenbond:PHE:83     -1
Name: 81, dtype: object

>  <pistack:PHE:83>  (82) 
pistack:PHE:83    NaN
pistack:PHE:83     -1
Name: 81, dtype: object

>  <pication:PHE:83>  (82) 
pication:PHE:83    NaN
pication:PHE:83     -1
Name: 81, dtype: object

>  <hydroph_interaction:VAL:84>  (82) 
hydroph_interaction:VAL:84    NaN
hydroph_interaction:VAL:84     -1
Name: 81, dtype: object

>  <halogenbond:VAL:84>  (82) 
halogenbond:VAL:84    NaN
halogenbond:VAL:84     -1
Name: 81, dtype: object

>  <hbond:VAL:84>  (82) 
hbond:VAL:84    NaN
hbond:VAL:84     -1
Name: 81, dtype: object

>  <hydroph_interaction:GLU:85>  (82) 
hydroph_interaction:GLU:85    NaN
hydroph_interaction:GLU:85     -1
Name: 81, dtype: object

>  <hbond:GLU:85>  (82) 
hbond:GLU:85    NaN
hbond:GLU:85     -1
Name: 81, dtype: object

>  <halogenbond:GLU:85>  (82) 
halogenbond:GLU:85    NaN
halogenbond:GLU:85     -1
Name: 81, dtype: object

>  <saltbridge:GLU:85>  (82) 
saltbridge:GLU:85    NaN
saltbridge:GLU:85     -1
Name: 81, dtype: object

>  <halogenbond:ALA:86>  (82) 
halogenbond:ALA:86    NaN
halogenbond:ALA:86     -1
Name: 81, dtype: object

>  <hbond:ALA:86>  (82) 
hbond:ALA:86    NaN
hbond:ALA:86     -1
Name: 81, dtype: object

>  <hydroph_interaction:ALA:86>  (82) 
hydroph_interaction:ALA:86    NaN
hydroph_interaction:ALA:86     -1
Name: 81, dtype: object

>  <hbond:SER:87>  (82) 
hbond:SER:87    0
hbond:SER:87    0
Name: 81, dtype: object

>  <halogenbond:SER:87>  (82) 
halogenbond:SER:87    NaN
halogenbond:SER:87     -1
Name: 81, dtype: object

>  <hbond:GLU:88>  (82) 
hbond:GLU:88    0.0
hbond:GLU:88      0
Name: 81, dtype: object

>  <hydroph_interaction:GLU:88>  (82) 
hydroph_interaction:GLU:88    0.0
hydroph_interaction:GLU:88      0
Name: 81, dtype: object

>  <halogenbond:GLU:88>  (82) 
halogenbond:GLU:88    NaN
halogenbond:GLU:88     -1
Name: 81, dtype: object

>  <saltbridge:GLU:88>  (82) 
saltbridge:GLU:88    NaN
saltbridge:GLU:88     -1
Name: 81, dtype: object

>  <hydroph_interaction:TYR:89>  (82) 
hydroph_interaction:TYR:89    0.0
hydroph_interaction:TYR:89      0
Name: 81, dtype: object

>  <pistack:TYR:89>  (82) 
pistack:TYR:89    NaN
pistack:TYR:89     -1
Name: 81, dtype: object

>  <hbond:TYR:89>  (82) 
hbond:TYR:89    NaN
hbond:TYR:89     -1
Name: 81, dtype: object

>  <halogenbond:TYR:89>  (82) 
halogenbond:TYR:89    NaN
halogenbond:TYR:89     -1
Name: 81, dtype: object

>  <hydroph_interaction:TYR:90>  (82) 
hydroph_interaction:TYR:90    0.0
hydroph_interaction:TYR:90      0
Name: 81, dtype: object

>  <hbond:TYR:90>  (82) 
hbond:TYR:90    NaN
hbond:TYR:90     -1
Name: 81, dtype: object

>  <pistack:TYR:90>  (82) 
pistack:TYR:90    NaN
pistack:TYR:90     -1
Name: 81, dtype: object

>  <halogenbond:TYR:90>  (82) 
halogenbond:TYR:90    NaN
halogenbond:TYR:90     -1
Name: 81, dtype: object

>  <pication:TYR:90>  (82) 
pication:TYR:90    NaN
pication:TYR:90     -1
Name: 81, dtype: object

>  <hbond:PRO:91>  (82) 
hbond:PRO:91    NaN
hbond:PRO:91     -1
Name: 81, dtype: object

>  <hydroph_interaction:PRO:91>  (82) 
hydroph_interaction:PRO:91    NaN
hydroph_interaction:PRO:91     -1
Name: 81, dtype: object

>  <halogenbond:PRO:91>  (82) 
halogenbond:PRO:91    NaN
halogenbond:PRO:91     -1
Name: 81, dtype: object

>  <hbond:ALA:92>  (82) 
hbond:ALA:92    NaN
hbond:ALA:92     -1
Name: 81, dtype: object

>  <hydroph_interaction:ALA:92>  (82) 
hydroph_interaction:ALA:92    NaN
hydroph_interaction:ALA:92     -1
Name: 81, dtype: object

>  <saltbridge:ARG:93>  (82) 
saltbridge:ARG:93    NaN
saltbridge:ARG:93     -1
Name: 81, dtype: object

>  <hbond:ARG:93>  (82) 
hbond:ARG:93    NaN
hbond:ARG:93     -1
Name: 81, dtype: object

>  <hydroph_interaction:ARG:93>  (82) 
hydroph_interaction:ARG:93    NaN
hydroph_interaction:ARG:93     -1
Name: 81, dtype: object

>  <halogenbond:ARG:93>  (82) 
halogenbond:ARG:93    NaN
halogenbond:ARG:93     -1
Name: 81, dtype: object

>  <pication:ARG:93>  (82) 
pication:ARG:93    NaN
pication:ARG:93     -1
Name: 81, dtype: object

>  <hydroph_interaction:TYR:94>  (82) 
hydroph_interaction:TYR:94    NaN
hydroph_interaction:TYR:94     -1
Name: 81, dtype: object

>  <pistack:TYR:94>  (82) 
pistack:TYR:94    NaN
pistack:TYR:94     -1
Name: 81, dtype: object

>  <hbond:TYR:94>  (82) 
hbond:TYR:94    NaN
hbond:TYR:94     -1
Name: 81, dtype: object

>  <hbond:GLN:95>  (82) 
hbond:GLN:95    NaN
hbond:GLN:95     -1
Name: 81, dtype: object

>  <hydroph_interaction:GLN:95>  (82) 
hydroph_interaction:GLN:95    NaN
hydroph_interaction:GLN:95     -1
Name: 81, dtype: object

>  <halogenbond:GLN:95>  (82) 
halogenbond:GLN:95    NaN
halogenbond:GLN:95     -1
Name: 81, dtype: object

>  <hbond:SER:96>  (82) 
hbond:SER:96    NaN
hbond:SER:96     -1
Name: 81, dtype: object

>  <halogenbond:HIS:97>  (82) 
halogenbond:HIS:97    NaN
halogenbond:HIS:97     -1
Name: 81, dtype: object

>  <hydroph_interaction:LEU:98>  (82) 
hydroph_interaction:LEU:98    NaN
hydroph_interaction:LEU:98     -1
Name: 81, dtype: object

>  <hbond:LEU:98>  (82) 
hbond:LEU:98    NaN
hbond:LEU:98     -1
Name: 81, dtype: object

>  <halogenbond:LEU:98>  (82) 
halogenbond:LEU:98    NaN
halogenbond:LEU:98     -1
Name: 81, dtype: object

>  <hbond:MET:99>  (82) 
hbond:MET:99    NaN
hbond:MET:99     -1
Name: 81, dtype: object

>  <hydroph_interaction:MET:99>  (82) 
hydroph_interaction:MET:99    NaN
hydroph_interaction:MET:99     -1
Name: 81, dtype: object

>  <halogenbond:MET:99>  (82) 
halogenbond:MET:99    NaN
halogenbond:MET:99     -1
Name: 81, dtype: object

>  <hydroph_interaction:LEU:100>  (82) 
hydroph_interaction:LEU:100    NaN
hydroph_interaction:LEU:100     -1
Name: 81, dtype: object

>  <hbond:LEU:100>  (82) 
hbond:LEU:100    NaN
hbond:LEU:100     -1
Name: 81, dtype: object

>  <hbond:ALA:101>  (82) 
hbond:ALA:101    NaN
hbond:ALA:101     -1
Name: 81, dtype: object

>  <hydroph_interaction:ALA:101>  (82) 
hydroph_interaction:ALA:101    NaN
hydroph_interaction:ALA:101     -1
Name: 81, dtype: object

>  <hydroph_interaction:VAL:102>  (82) 
hydroph_interaction:VAL:102    NaN
hydroph_interaction:VAL:102     -1
Name: 81, dtype: object

>  <hbond:VAL:102>  (82) 
hbond:VAL:102    NaN
hbond:VAL:102     -1
Name: 81, dtype: object

>  <hbond:GLY:103>  (82) 
hbond:GLY:103    NaN
hbond:GLY:103     -1
Name: 81, dtype: object

>  <halogenbond:GLY:103>  (82) 
halogenbond:GLY:103    NaN
halogenbond:GLY:103     -1
Name: 81, dtype: object

>  <hbond:HIS:104>  (82) 
hbond:HIS:104    NaN
hbond:HIS:104     -1
Name: 81, dtype: object

>  <saltbridge:HIS:104>  (82) 
saltbridge:HIS:104    NaN
saltbridge:HIS:104     -1
Name: 81, dtype: object

>  <pication:HIS:104>  (82) 
pication:HIS:104    NaN
pication:HIS:104     -1
Name: 81, dtype: object

>  <halogenbond:HIS:104>  (82) 
halogenbond:HIS:104    NaN
halogenbond:HIS:104     -1
Name: 81, dtype: object

>  <hydroph_interaction:HIS:104>  (82) 
hydroph_interaction:HIS:104    NaN
hydroph_interaction:HIS:104     -1
Name: 81, dtype: object

>  <pistack:HIS:104>  (82) 
pistack:HIS:104    NaN
pistack:HIS:104     -1
Name: 81, dtype: object

>  <halogenbond:SER:105>  (82) 
halogenbond:SER:105    0.0
halogenbond:SER:105      0
Name: 81, dtype: object

>  <hbond:SER:105>  (82) 
hbond:SER:105    0.0
hbond:SER:105      0
Name: 81, dtype: object

>  <hbond:GLU:106>  (82) 
hbond:GLU:106    0.0
hbond:GLU:106      0
Name: 81, dtype: object

>  <hydroph_interaction:GLU:106>  (82) 
hydroph_interaction:GLU:106    NaN
hydroph_interaction:GLU:106     -1
Name: 81, dtype: object

>  <saltbridge:GLU:106>  (82) 
saltbridge:GLU:106    NaN
saltbridge:GLU:106     -1
Name: 81, dtype: object

>  <halogenbond:GLU:106>  (82) 
halogenbond:GLU:106    NaN
halogenbond:GLU:106     -1
Name: 81, dtype: object

>  <hydroph_interaction:PRO:107>  (82) 
hydroph_interaction:PRO:107    1
hydroph_interaction:PRO:107    1
Name: 81, dtype: object

>  <hbond:PRO:107>  (82) 
hbond:PRO:107    0.0
hbond:PRO:107      0
Name: 81, dtype: object

>  <halogenbond:PRO:107>  (82) 
halogenbond:PRO:107    NaN
halogenbond:PRO:107     -1
Name: 81, dtype: object

>  <hbond:GLY:108>  (82) 
hbond:GLY:108    NaN
hbond:GLY:108     -1
Name: 81, dtype: object

>  <halogenbond:GLY:108>  (82) 
halogenbond:GLY:108    NaN
halogenbond:GLY:108     -1
Name: 81, dtype: object

>  <hbond:ASP:109>  (82) 
hbond:ASP:109    0.0
hbond:ASP:109      0
Name: 81, dtype: object

>  <hydroph_interaction:ASP:109>  (82) 
hydroph_interaction:ASP:109    0.0
hydroph_interaction:ASP:109      0
Name: 81, dtype: object

>  <saltbridge:ASP:109>  (82) 
saltbridge:ASP:109    NaN
saltbridge:ASP:109     -1
Name: 81, dtype: object

>  <halogenbond:CYS:110>  (82) 
halogenbond:CYS:110    NaN
halogenbond:CYS:110     -1
Name: 81, dtype: object

>  <hbond:CYS:110>  (82) 
hbond:CYS:110    0.0
hbond:CYS:110      0
Name: 81, dtype: object

>  <hbond:GLY:111>  (82) 
hbond:GLY:111    NaN
hbond:GLY:111     -1
Name: 81, dtype: object

>  <hbond:GLY:112>  (82) 
hbond:GLY:112    NaN
hbond:GLY:112     -1
Name: 81, dtype: object

>  <hbond:ILE:113>  (82) 
hbond:ILE:113    NaN
hbond:ILE:113     -1
Name: 81, dtype: object

>  <hydroph_interaction:LEU:114>  (82) 
hydroph_interaction:LEU:114    NaN
hydroph_interaction:LEU:114     -1
Name: 81, dtype: object

>  <hbond:LEU:114>  (82) 
hbond:LEU:114    NaN
hbond:LEU:114     -1
Name: 81, dtype: object

>  <hydroph_interaction:ILE:123>  (82) 
hydroph_interaction:ILE:123    NaN
hydroph_interaction:ILE:123     -1
Name: 81, dtype: object

>  <hbond:ILE:123>  (82) 
hbond:ILE:123    NaN
hbond:ILE:123     -1
Name: 81, dtype: object

>  <hydroph_interaction:VAL:124>  (82) 
hydroph_interaction:VAL:124    1.0
hydroph_interaction:VAL:124      1
Name: 81, dtype: object

>  <hbond:VAL:124>  (82) 
hbond:VAL:124    NaN
hbond:VAL:124     -1
Name: 81, dtype: object

>  <halogenbond:VAL:124>  (82) 
halogenbond:VAL:124    NaN
halogenbond:VAL:124     -1
Name: 81, dtype: object

>  <hbond:SER:125>  (82) 
hbond:SER:125    0
hbond:SER:125    0
Name: 81, dtype: object

>  <halogenbond:SER:125>  (82) 
halogenbond:SER:125    NaN
halogenbond:SER:125     -1
Name: 81, dtype: object

>  <hydroph_interaction:THR:126>  (82) 
hydroph_interaction:THR:126    NaN
hydroph_interaction:THR:126     -1
Name: 81, dtype: object

>  <hbond:THR:126>  (82) 
hbond:THR:126    0.0
hbond:THR:126      0
Name: 81, dtype: object

>  <halogenbond:THR:126>  (82) 
halogenbond:THR:126    NaN
halogenbond:THR:126     -1
Name: 81, dtype: object

>  <hbond:GLY:127>  (82) 
hbond:GLY:127    0
hbond:GLY:127    0
Name: 81, dtype: object

>  <halogenbond:GLY:127>  (82) 
halogenbond:GLY:127    NaN
halogenbond:GLY:127     -1
Name: 81, dtype: object

>  <hydroph_interaction:GLY:127>  (82) 
hydroph_interaction:GLY:127    NaN
hydroph_interaction:GLY:127     -1
Name: 81, dtype: object

>  <hbond:GLY:128>  (82) 
hbond:GLY:128    NaN
hbond:GLY:128     -1
Name: 81, dtype: object

>  <halogenbond:GLY:128>  (82) 
halogenbond:GLY:128    NaN
halogenbond:GLY:128     -1
Name: 81, dtype: object

>  <hydroph_interaction:GLY:128>  (82) 
hydroph_interaction:GLY:128    NaN
hydroph_interaction:GLY:128     -1
Name: 81, dtype: object

>  <hbond:ASN:129>  (82) 
hbond:ASN:129    NaN
hbond:ASN:129     -1
Name: 81, dtype: object

>  <hydroph_interaction:ASN:129>  (82) 
hydroph_interaction:ASN:129    NaN
hydroph_interaction:ASN:129     -1
Name: 81, dtype: object

>  <halogenbond:ASN:129>  (82) 
halogenbond:ASN:129    NaN
halogenbond:ASN:129     -1
Name: 81, dtype: object

>  <hbond:GLY:130>  (82) 
hbond:GLY:130    NaN
hbond:GLY:130     -1
Name: 81, dtype: object

>  <hbond:LEU:131>  (82) 
hbond:LEU:131    NaN
hbond:LEU:131     -1
Name: 81, dtype: object

>  <hydroph_interaction:LEU:131>  (82) 
hydroph_interaction:LEU:131    NaN
hydroph_interaction:LEU:131     -1
Name: 81, dtype: object

>  <halogenbond:LEU:131>  (82) 
halogenbond:LEU:131    NaN
halogenbond:LEU:131     -1
Name: 81, dtype: object

>  <hydroph_interaction:VAL:132>  (82) 
hydroph_interaction:VAL:132    NaN
hydroph_interaction:VAL:132     -1
Name: 81, dtype: object

>  <hbond:VAL:132>  (82) 
hbond:VAL:132    NaN
hbond:VAL:132     -1
Name: 81, dtype: object

>  <hbond:GLY:133>  (82) 
hbond:GLY:133    NaN
hbond:GLY:133     -1
Name: 81, dtype: object

>  <halogenbond:GLY:133>  (82) 
halogenbond:GLY:133    NaN
halogenbond:GLY:133     -1
Name: 81, dtype: object

>  <hydroph_interaction:PHE:134>  (82) 
hydroph_interaction:PHE:134    NaN
hydroph_interaction:PHE:134     -1
Name: 81, dtype: object

>  <hbond:PHE:134>  (82) 
hbond:PHE:134    NaN
hbond:PHE:134     -1
Name: 81, dtype: object

>  <pistack:PHE:134>  (82) 
pistack:PHE:134    NaN
pistack:PHE:134     -1
Name: 81, dtype: object

>  <pication:PHE:134>  (82) 
pication:PHE:134    NaN
pication:PHE:134     -1
Name: 81, dtype: object

>  <halogenbond:PHE:134>  (82) 
halogenbond:PHE:134    NaN
halogenbond:PHE:134     -1
Name: 81, dtype: object

>  <hydroph_interaction:ALA:135>  (82) 
hydroph_interaction:ALA:135    NaN
hydroph_interaction:ALA:135     -1
Name: 81, dtype: object

>  <hbond:ALA:135>  (82) 
hbond:ALA:135    NaN
hbond:ALA:135     -1
Name: 81, dtype: object

$$$$
Z1533151682
     RDKit          3D

 33 33  0  0  0  0  0  0  0  0999 V2000
   12.3280   14.2370   23.8710 C   0  0  0  0  0  0  0  0  0  0  0  0
   13.0840   14.6880   22.6430 C   0  0  0  0  0  0  0  0  0  0  0  0
   12.3780   15.8230   21.9250 C   0  0  0  0  0  0  0  0  0  0  0  0
   13.1490   16.3310   20.7270 C   0  0  0  0  0  0  0  0  0  0  0  0
   11.0220   15.4190   21.3960 C   0  0  0  0  0  0  0  0  0  0  0  0
   10.4070   16.1490   20.6250 O   0  0  0  0  0  0  0  0  0  0  0  0
   10.5240   14.0940   21.8990 C   0  0  0  0  0  0  0  0  0  0  0  0
    9.6590   14.2100   23.0210 O   0  0  0  0  0  0  0  0  0  0  0  0
    9.3030   12.9910   23.5000 C   0  0  0  0  0  0  0  0  0  0  0  0
    9.9450   11.6930   22.9840 C   0  0  0  0  0  0  0  0  0  0  0  0
    9.5540   10.4750   23.4750 C   0  0  0  0  0  0  0  0  0  0  0  0
   10.1240    9.1760   23.0290 C   0  0  0  0  0  0  0  0  0  0  0  0
    8.5580   10.4290   24.4590 C   0  0  0  0  0  0  0  0  0  0  0  0
    7.9260   11.7090   24.9770 C   0  0  0  0  0  0  0  0  0  0  0  0
    8.3200   12.9350   24.4840 C   0  0  0  0  0  0  0  0  0  0  0  0
    7.7430   14.0480   24.9630 F   0  0  0  0  0  0  0  0  0  0  0  0
   12.1840   13.1530   23.8530 H   0  0  0  0  0  0  0  0  0  0  0  0
   11.3460   14.7140   23.9300 H   0  0  0  0  0  0  0  0  0  0  0  0
   12.8820   14.4920   24.7790 H   0  0  0  0  0  0  0  0  0  0  0  0
   14.0740   15.0090   22.9600 H   0  0  0  0  0  0  0  0  0  0  0  0
   13.2160   13.8300   21.9750 H   0  0  0  0  0  0  0  0  0  0  0  0
   12.2360   16.6550   22.6270 H   0  0  0  0  0  0  0  0  0  0  0  0
   14.2180   16.1430   20.8260 H   0  0  0  0  0  0  0  0  0  0  0  0
   12.7800   15.7830   19.8540 H   0  0  0  0  0  0  0  0  0  0  0  0
   12.9940   17.4020   20.6100 H   0  0  0  0  0  0  0  0  0  0  0  0
    9.9700   13.6750   21.0640 H   0  0  0  0  0  0  0  0  0  0  0  0
   11.3930   13.4690   22.1360 H   0  0  0  0  0  0  0  0  0  0  0  0
   10.7280   11.6500   22.2170 H   0  0  0  0  0  0  0  0  0  0  0  0
   11.2100    9.1570   23.0860 H   0  0  0  0  0  0  0  0  0  0  0  0
    9.7530    8.3730   23.6510 H   0  0  0  0  0  0  0  0  0  0  0  0
    9.8520    8.9830   21.9860 H   0  0  0  0  0  0  0  0  0  0  0  0
    8.2300    9.4640   24.8610 H   0  0  0  0  0  0  0  0  0  0  0  0
    7.1570   11.5890   25.7480 H   0  0  0  0  0  0  0  0  0  0  0  0
  1  2  1  0
  2  3  1  0
  3  4  1  0
  3  5  1  0
  5  6  2  0
  5  7  1  0
  7  8  1  0
  8  9  1  0
  9 10  2  0
 10 11  1  0
 11 12  1  0
 11 13  2  0
 13 14  1  0
 14 15  2  0
 15 16  1  0
 15  9  1  0
  1 17  1  0
  1 18  1  0
  1 19  1  0
  2 20  1  0
  2 21  1  0
  3 22  1  0
  4 23  1  0
  4 24  1  0
  4 25  1  0
  7 26  1  0
  7 27  1  0
 10 28  1  0
 12 29  1  0
 12 30  1  0
 12 31  1  0
 13 32  1  0
 14 33  1  0
A    1
 C1 
A    2
 C2 
A    3
 C3 
A    4
 C4 
A    5
 C5 
A    6
 O1 
A    7
 C6 
A    8
 O2 
A    9
 C7 
A   10
 C8 
A   11
 C9 
A   12
 C10
A   13
 C11
A   14
 C12
A   15
 C13
A   16
 F1 
A   17
 H1 
A   18
 H2 
A   19
 H3 
A   20
 H4 
A   21
 H5 
A   22
 H6 
A   23
 H7 
A   24
 H8 
A   25
 H9 
A   26
 H10
A   27
 H11
A   28
 H12
A   29
 H13
A   30
 H14
A   31
 H15
A   32
 H16
A   33
 H17
M  END
>  <ref_pdb>  (83) 
x0310_0A

>  <ref_mols>  (83) 
x0416_0A,x0528_0A

>  <original SMILES>  (83) 
CCC(C)C(=O)COc1cc(C)ccc1F

>  <rationale>  (83) 
info halogenbond:C110+G127+A86+E85+Q95+E106+E88+T126+H104+Y64+C65+S87+N129+F83+R93+L131+I82+G128+P91+N19+H21+V84+G133+Y90+Y89+H97+L81+F134+L98+R20+G103+S66+S67+S7+G108+R38+V124+M99+S36; hbond:S87+Q95+D39+G108+G103+G128+G130+L131+N129+N19+H104+R68+V124+R93+P91+F83+S7+S66+G112+G133+V132+R20+Y89+S77+A135+Y63+A92+A101+M99+F134+L100+I82+Y64+S36+L98+V84+L81+Y94+S80+R38+S37+V102+G8+I123+G111+I113+L114+C65+L22+S96; hydroph_interaction:V124+Y90+Y89+P107+L22+E106+N129+N19+L40+I123+A135+I82+L100+L98+L131+F83+R93+F134+H104+A86+V74+P91+A101+F76+M99+L114+A92+Y94+R68+Y72+Y64+V18+V102+W28+G127+G128+L81; pication:H104+Y63+F134+Y90+R68+F83+R20; pistack:Y89+H104+F134+Y63+F83+Y94; saltbridge:R93+H104+E106+D109+E85+E88+R68+R20; 

>  <intxn_cluster>  (83) 
-1

>  <intxn_cluster_rank>  (83) 
-1

>  <N_interactions>  (83) 
6

>  <∆∆G>  (83) 
-12.830604

>  <$/mg>  (83) 
0.0

>  <comRMSD>  (83) 
0.630415

>  <N_rotatable_bonds>  (83) 
8

>  <deep_P1_sidechain>  (83) 
nan

>  <farthest_distance_to_substrate>  (83) 
2.213516

>  <hbond:SER:7>  (83) 
hbond:SER:7    NaN
hbond:SER:7     -1
Name: 82, dtype: object

>  <halogenbond:SER:7>  (83) 
halogenbond:SER:7    NaN
halogenbond:SER:7     -1
Name: 82, dtype: object

>  <hbond:GLY:8>  (83) 
hbond:GLY:8    NaN
hbond:GLY:8     -1
Name: 82, dtype: object

>  <hydroph_interaction:VAL:18>  (83) 
hydroph_interaction:VAL:18    NaN
hydroph_interaction:VAL:18     -1
Name: 82, dtype: object

>  <hbond:ASN:19>  (83) 
hbond:ASN:19    NaN
hbond:ASN:19     -1
Name: 82, dtype: object

>  <hydroph_interaction:ASN:19>  (83) 
hydroph_interaction:ASN:19    NaN
hydroph_interaction:ASN:19     -1
Name: 82, dtype: object

>  <halogenbond:ASN:19>  (83) 
halogenbond:ASN:19    NaN
halogenbond:ASN:19     -1
Name: 82, dtype: object

>  <hbond:ARG:20>  (83) 
hbond:ARG:20    NaN
hbond:ARG:20     -1
Name: 82, dtype: object

>  <hydroph_interaction:ARG:20>  (83) 
hydroph_interaction:ARG:20    0.0
hydroph_interaction:ARG:20      0
Name: 82, dtype: object

>  <saltbridge:ARG:20>  (83) 
saltbridge:ARG:20    NaN
saltbridge:ARG:20     -1
Name: 82, dtype: object

>  <halogenbond:ARG:20>  (83) 
halogenbond:ARG:20    NaN
halogenbond:ARG:20     -1
Name: 82, dtype: object

>  <pication:ARG:20>  (83) 
pication:ARG:20    NaN
pication:ARG:20     -1
Name: 82, dtype: object

>  <hbond:HIS:21>  (83) 
hbond:HIS:21    0.0
hbond:HIS:21      0
Name: 82, dtype: object

>  <hydroph_interaction:HIS:21>  (83) 
hydroph_interaction:HIS:21    0.0
hydroph_interaction:HIS:21      0
Name: 82, dtype: object

>  <pistack:HIS:21>  (83) 
pistack:HIS:21    0.0
pistack:HIS:21      0
Name: 82, dtype: object

>  <pication:HIS:21>  (83) 
pication:HIS:21    0.0
pication:HIS:21      0
Name: 82, dtype: object

>  <saltbridge:HIS:21>  (83) 
saltbridge:HIS:21    0.0
saltbridge:HIS:21      0
Name: 82, dtype: object

>  <halogenbond:HIS:21>  (83) 
halogenbond:HIS:21    NaN
halogenbond:HIS:21     -1
Name: 82, dtype: object

>  <hydroph_interaction:LEU:22>  (83) 
hydroph_interaction:LEU:22    NaN
hydroph_interaction:LEU:22     -1
Name: 82, dtype: object

>  <hbond:LEU:22>  (83) 
hbond:LEU:22    NaN
hbond:LEU:22     -1
Name: 82, dtype: object

>  <hydroph_interaction:TRP:28>  (83) 
hydroph_interaction:TRP:28    NaN
hydroph_interaction:TRP:28     -1
Name: 82, dtype: object

>  <hbond:SER:36>  (83) 
hbond:SER:36    NaN
hbond:SER:36     -1
Name: 82, dtype: object

>  <halogenbond:SER:36>  (83) 
halogenbond:SER:36    NaN
halogenbond:SER:36     -1
Name: 82, dtype: object

>  <hbond:SER:37>  (83) 
hbond:SER:37    NaN
hbond:SER:37     -1
Name: 82, dtype: object

>  <hbond:ARG:38>  (83) 
hbond:ARG:38    NaN
hbond:ARG:38     -1
Name: 82, dtype: object

>  <halogenbond:ARG:38>  (83) 
halogenbond:ARG:38    NaN
halogenbond:ARG:38     -1
Name: 82, dtype: object

>  <saltbridge:ASP:39>  (83) 
saltbridge:ASP:39    0.0
saltbridge:ASP:39      0
Name: 82, dtype: object

>  <halogenbond:ASP:39>  (83) 
halogenbond:ASP:39    0.0
halogenbond:ASP:39      0
Name: 82, dtype: object

>  <hbond:ASP:39>  (83) 
hbond:ASP:39    NaN
hbond:ASP:39     -1
Name: 82, dtype: object

>  <hydroph_interaction:ASP:39>  (83) 
hydroph_interaction:ASP:39    0.0
hydroph_interaction:ASP:39      0
Name: 82, dtype: object

>  <hydroph_interaction:LEU:40>  (83) 
hydroph_interaction:LEU:40    NaN
hydroph_interaction:LEU:40     -1
Name: 82, dtype: object

>  <hydroph_interaction:TYR:63>  (83) 
hydroph_interaction:TYR:63    0.0
hydroph_interaction:TYR:63      0
Name: 82, dtype: object

>  <hbond:TYR:63>  (83) 
hbond:TYR:63    NaN
hbond:TYR:63     -1
Name: 82, dtype: object

>  <pistack:TYR:63>  (83) 
pistack:TYR:63    NaN
pistack:TYR:63     -1
Name: 82, dtype: object

>  <pication:TYR:63>  (83) 
pication:TYR:63    NaN
pication:TYR:63     -1
Name: 82, dtype: object

>  <halogenbond:TYR:64>  (83) 
halogenbond:TYR:64    NaN
halogenbond:TYR:64     -1
Name: 82, dtype: object

>  <hbond:TYR:64>  (83) 
hbond:TYR:64    NaN
hbond:TYR:64     -1
Name: 82, dtype: object

>  <hydroph_interaction:TYR:64>  (83) 
hydroph_interaction:TYR:64    NaN
hydroph_interaction:TYR:64     -1
Name: 82, dtype: object

>  <halogenbond:CYS:65>  (83) 
halogenbond:CYS:65    NaN
halogenbond:CYS:65     -1
Name: 82, dtype: object

>  <hbond:CYS:65>  (83) 
hbond:CYS:65    NaN
hbond:CYS:65     -1
Name: 82, dtype: object

>  <hbond:SER:66>  (83) 
hbond:SER:66    NaN
hbond:SER:66     -1
Name: 82, dtype: object

>  <halogenbond:SER:66>  (83) 
halogenbond:SER:66    NaN
halogenbond:SER:66     -1
Name: 82, dtype: object

>  <hbond:SER:67>  (83) 
hbond:SER:67    0.0
hbond:SER:67      0
Name: 82, dtype: object

>  <halogenbond:SER:67>  (83) 
halogenbond:SER:67    NaN
halogenbond:SER:67     -1
Name: 82, dtype: object

>  <hbond:ARG:68>  (83) 
hbond:ARG:68    NaN
hbond:ARG:68     -1
Name: 82, dtype: object

>  <saltbridge:ARG:68>  (83) 
saltbridge:ARG:68    NaN
saltbridge:ARG:68     -1
Name: 82, dtype: object

>  <hydroph_interaction:ARG:68>  (83) 
hydroph_interaction:ARG:68    NaN
hydroph_interaction:ARG:68     -1
Name: 82, dtype: object

>  <pication:ARG:68>  (83) 
pication:ARG:68    NaN
pication:ARG:68     -1
Name: 82, dtype: object

>  <hydroph_interaction:TYR:72>  (83) 
hydroph_interaction:TYR:72    NaN
hydroph_interaction:TYR:72     -1
Name: 82, dtype: object

>  <hydroph_interaction:VAL:74>  (83) 
hydroph_interaction:VAL:74    NaN
hydroph_interaction:VAL:74     -1
Name: 82, dtype: object

>  <hydroph_interaction:PHE:76>  (83) 
hydroph_interaction:PHE:76    NaN
hydroph_interaction:PHE:76     -1
Name: 82, dtype: object

>  <hbond:SER:77>  (83) 
hbond:SER:77    NaN
hbond:SER:77     -1
Name: 82, dtype: object

>  <hbond:SER:80>  (83) 
hbond:SER:80    NaN
hbond:SER:80     -1
Name: 82, dtype: object

>  <hbond:LEU:81>  (83) 
hbond:LEU:81    NaN
hbond:LEU:81     -1
Name: 82, dtype: object

>  <halogenbond:LEU:81>  (83) 
halogenbond:LEU:81    NaN
halogenbond:LEU:81     -1
Name: 82, dtype: object

>  <hydroph_interaction:LEU:81>  (83) 
hydroph_interaction:LEU:81    NaN
hydroph_interaction:LEU:81     -1
Name: 82, dtype: object

>  <hydroph_interaction:ILE:82>  (83) 
hydroph_interaction:ILE:82    NaN
hydroph_interaction:ILE:82     -1
Name: 82, dtype: object

>  <halogenbond:ILE:82>  (83) 
halogenbond:ILE:82    NaN
halogenbond:ILE:82     -1
Name: 82, dtype: object

>  <hbond:ILE:82>  (83) 
hbond:ILE:82    NaN
hbond:ILE:82     -1
Name: 82, dtype: object

>  <hbond:PHE:83>  (83) 
hbond:PHE:83    NaN
hbond:PHE:83     -1
Name: 82, dtype: object

>  <hydroph_interaction:PHE:83>  (83) 
hydroph_interaction:PHE:83    NaN
hydroph_interaction:PHE:83     -1
Name: 82, dtype: object

>  <halogenbond:PHE:83>  (83) 
halogenbond:PHE:83    NaN
halogenbond:PHE:83     -1
Name: 82, dtype: object

>  <pistack:PHE:83>  (83) 
pistack:PHE:83    NaN
pistack:PHE:83     -1
Name: 82, dtype: object

>  <pication:PHE:83>  (83) 
pication:PHE:83    NaN
pication:PHE:83     -1
Name: 82, dtype: object

>  <hydroph_interaction:VAL:84>  (83) 
hydroph_interaction:VAL:84    0.0
hydroph_interaction:VAL:84      0
Name: 82, dtype: object

>  <halogenbond:VAL:84>  (83) 
halogenbond:VAL:84    NaN
halogenbond:VAL:84     -1
Name: 82, dtype: object

>  <hbond:VAL:84>  (83) 
hbond:VAL:84    NaN
hbond:VAL:84     -1
Name: 82, dtype: object

>  <hydroph_interaction:GLU:85>  (83) 
hydroph_interaction:GLU:85    0.0
hydroph_interaction:GLU:85      0
Name: 82, dtype: object

>  <hbond:GLU:85>  (83) 
hbond:GLU:85    0.0
hbond:GLU:85      0
Name: 82, dtype: object

>  <halogenbond:GLU:85>  (83) 
halogenbond:GLU:85    NaN
halogenbond:GLU:85     -1
Name: 82, dtype: object

>  <saltbridge:GLU:85>  (83) 
saltbridge:GLU:85    NaN
saltbridge:GLU:85     -1
Name: 82, dtype: object

>  <halogenbond:ALA:86>  (83) 
halogenbond:ALA:86    NaN
halogenbond:ALA:86     -1
Name: 82, dtype: object

>  <hbond:ALA:86>  (83) 
hbond:ALA:86    0.0
hbond:ALA:86      0
Name: 82, dtype: object

>  <hydroph_interaction:ALA:86>  (83) 
hydroph_interaction:ALA:86    NaN
hydroph_interaction:ALA:86     -1
Name: 82, dtype: object

>  <hbond:SER:87>  (83) 
hbond:SER:87    1
hbond:SER:87    1
Name: 82, dtype: object

>  <halogenbond:SER:87>  (83) 
halogenbond:SER:87    NaN
halogenbond:SER:87     -1
Name: 82, dtype: object

>  <hbond:GLU:88>  (83) 
hbond:GLU:88    0.0
hbond:GLU:88      0
Name: 82, dtype: object

>  <hydroph_interaction:GLU:88>  (83) 
hydroph_interaction:GLU:88    0.0
hydroph_interaction:GLU:88      0
Name: 82, dtype: object

>  <halogenbond:GLU:88>  (83) 
halogenbond:GLU:88    NaN
halogenbond:GLU:88     -1
Name: 82, dtype: object

>  <saltbridge:GLU:88>  (83) 
saltbridge:GLU:88    NaN
saltbridge:GLU:88     -1
Name: 82, dtype: object

>  <hydroph_interaction:TYR:89>  (83) 
hydroph_interaction:TYR:89    1.0
hydroph_interaction:TYR:89      1
Name: 82, dtype: object

>  <pistack:TYR:89>  (83) 
pistack:TYR:89    NaN
pistack:TYR:89     -1
Name: 82, dtype: object

>  <hbond:TYR:89>  (83) 
hbond:TYR:89    NaN
hbond:TYR:89     -1
Name: 82, dtype: object

>  <halogenbond:TYR:89>  (83) 
halogenbond:TYR:89    NaN
halogenbond:TYR:89     -1
Name: 82, dtype: object

>  <hydroph_interaction:TYR:90>  (83) 
hydroph_interaction:TYR:90    1.0
hydroph_interaction:TYR:90      1
Name: 82, dtype: object

>  <hbond:TYR:90>  (83) 
hbond:TYR:90    0.0
hbond:TYR:90      0
Name: 82, dtype: object

>  <pistack:TYR:90>  (83) 
pistack:TYR:90    0.0
pistack:TYR:90      0
Name: 82, dtype: object

>  <halogenbond:TYR:90>  (83) 
halogenbond:TYR:90    NaN
halogenbond:TYR:90     -1
Name: 82, dtype: object

>  <pication:TYR:90>  (83) 
pication:TYR:90    NaN
pication:TYR:90     -1
Name: 82, dtype: object

>  <hbond:PRO:91>  (83) 
hbond:PRO:91    NaN
hbond:PRO:91     -1
Name: 82, dtype: object

>  <hydroph_interaction:PRO:91>  (83) 
hydroph_interaction:PRO:91    NaN
hydroph_interaction:PRO:91     -1
Name: 82, dtype: object

>  <halogenbond:PRO:91>  (83) 
halogenbond:PRO:91    NaN
halogenbond:PRO:91     -1
Name: 82, dtype: object

>  <hbond:ALA:92>  (83) 
hbond:ALA:92    NaN
hbond:ALA:92     -1
Name: 82, dtype: object

>  <hydroph_interaction:ALA:92>  (83) 
hydroph_interaction:ALA:92    NaN
hydroph_interaction:ALA:92     -1
Name: 82, dtype: object

>  <saltbridge:ARG:93>  (83) 
saltbridge:ARG:93    NaN
saltbridge:ARG:93     -1
Name: 82, dtype: object

>  <hbond:ARG:93>  (83) 
hbond:ARG:93    NaN
hbond:ARG:93     -1
Name: 82, dtype: object

>  <hydroph_interaction:ARG:93>  (83) 
hydroph_interaction:ARG:93    NaN
hydroph_interaction:ARG:93     -1
Name: 82, dtype: object

>  <halogenbond:ARG:93>  (83) 
halogenbond:ARG:93    NaN
halogenbond:ARG:93     -1
Name: 82, dtype: object

>  <pication:ARG:93>  (83) 
pication:ARG:93    0.0
pication:ARG:93      0
Name: 82, dtype: object

>  <hydroph_interaction:TYR:94>  (83) 
hydroph_interaction:TYR:94    NaN
hydroph_interaction:TYR:94     -1
Name: 82, dtype: object

>  <pistack:TYR:94>  (83) 
pistack:TYR:94    NaN
pistack:TYR:94     -1
Name: 82, dtype: object

>  <hbond:TYR:94>  (83) 
hbond:TYR:94    NaN
hbond:TYR:94     -1
Name: 82, dtype: object

>  <hbond:GLN:95>  (83) 
hbond:GLN:95    NaN
hbond:GLN:95     -1
Name: 82, dtype: object

>  <hydroph_interaction:GLN:95>  (83) 
hydroph_interaction:GLN:95    0.0
hydroph_interaction:GLN:95      0
Name: 82, dtype: object

>  <halogenbond:GLN:95>  (83) 
halogenbond:GLN:95    NaN
halogenbond:GLN:95     -1
Name: 82, dtype: object

>  <hbond:SER:96>  (83) 
hbond:SER:96    NaN
hbond:SER:96     -1
Name: 82, dtype: object

>  <halogenbond:HIS:97>  (83) 
halogenbond:HIS:97    NaN
halogenbond:HIS:97     -1
Name: 82, dtype: object

>  <hydroph_interaction:LEU:98>  (83) 
hydroph_interaction:LEU:98    NaN
hydroph_interaction:LEU:98     -1
Name: 82, dtype: object

>  <hbond:LEU:98>  (83) 
hbond:LEU:98    NaN
hbond:LEU:98     -1
Name: 82, dtype: object

>  <halogenbond:LEU:98>  (83) 
halogenbond:LEU:98    NaN
halogenbond:LEU:98     -1
Name: 82, dtype: object

>  <hbond:MET:99>  (83) 
hbond:MET:99    NaN
hbond:MET:99     -1
Name: 82, dtype: object

>  <hydroph_interaction:MET:99>  (83) 
hydroph_interaction:MET:99    NaN
hydroph_interaction:MET:99     -1
Name: 82, dtype: object

>  <halogenbond:MET:99>  (83) 
halogenbond:MET:99    NaN
halogenbond:MET:99     -1
Name: 82, dtype: object

>  <hydroph_interaction:LEU:100>  (83) 
hydroph_interaction:LEU:100    NaN
hydroph_interaction:LEU:100     -1
Name: 82, dtype: object

>  <hbond:LEU:100>  (83) 
hbond:LEU:100    NaN
hbond:LEU:100     -1
Name: 82, dtype: object

>  <hbond:ALA:101>  (83) 
hbond:ALA:101    NaN
hbond:ALA:101     -1
Name: 82, dtype: object

>  <hydroph_interaction:ALA:101>  (83) 
hydroph_interaction:ALA:101    NaN
hydroph_interaction:ALA:101     -1
Name: 82, dtype: object

>  <hydroph_interaction:VAL:102>  (83) 
hydroph_interaction:VAL:102    NaN
hydroph_interaction:VAL:102     -1
Name: 82, dtype: object

>  <hbond:VAL:102>  (83) 
hbond:VAL:102    NaN
hbond:VAL:102     -1
Name: 82, dtype: object

>  <hbond:GLY:103>  (83) 
hbond:GLY:103    NaN
hbond:GLY:103     -1
Name: 82, dtype: object

>  <halogenbond:GLY:103>  (83) 
halogenbond:GLY:103    NaN
halogenbond:GLY:103     -1
Name: 82, dtype: object

>  <hbond:HIS:104>  (83) 
hbond:HIS:104    NaN
hbond:HIS:104     -1
Name: 82, dtype: object

>  <saltbridge:HIS:104>  (83) 
saltbridge:HIS:104    NaN
saltbridge:HIS:104     -1
Name: 82, dtype: object

>  <pication:HIS:104>  (83) 
pication:HIS:104    NaN
pication:HIS:104     -1
Name: 82, dtype: object

>  <halogenbond:HIS:104>  (83) 
halogenbond:HIS:104    NaN
halogenbond:HIS:104     -1
Name: 82, dtype: object

>  <hydroph_interaction:HIS:104>  (83) 
hydroph_interaction:HIS:104    NaN
hydroph_interaction:HIS:104     -1
Name: 82, dtype: object

>  <pistack:HIS:104>  (83) 
pistack:HIS:104    NaN
pistack:HIS:104     -1
Name: 82, dtype: object

>  <halogenbond:SER:105>  (83) 
halogenbond:SER:105    0.0
halogenbond:SER:105      0
Name: 82, dtype: object

>  <hbond:SER:105>  (83) 
hbond:SER:105    0.0
hbond:SER:105      0
Name: 82, dtype: object

>  <hbond:GLU:106>  (83) 
hbond:GLU:106    0.0
hbond:GLU:106      0
Name: 82, dtype: object

>  <hydroph_interaction:GLU:106>  (83) 
hydroph_interaction:GLU:106    NaN
hydroph_interaction:GLU:106     -1
Name: 82, dtype: object

>  <saltbridge:GLU:106>  (83) 
saltbridge:GLU:106    NaN
saltbridge:GLU:106     -1
Name: 82, dtype: object

>  <halogenbond:GLU:106>  (83) 
halogenbond:GLU:106    NaN
halogenbond:GLU:106     -1
Name: 82, dtype: object

>  <hydroph_interaction:PRO:107>  (83) 
hydroph_interaction:PRO:107    2
hydroph_interaction:PRO:107    2
Name: 82, dtype: object

>  <hbond:PRO:107>  (83) 
hbond:PRO:107    0.0
hbond:PRO:107      0
Name: 82, dtype: object

>  <halogenbond:PRO:107>  (83) 
halogenbond:PRO:107    0.0
halogenbond:PRO:107      0
Name: 82, dtype: object

>  <hbond:GLY:108>  (83) 
hbond:GLY:108    NaN
hbond:GLY:108     -1
Name: 82, dtype: object

>  <halogenbond:GLY:108>  (83) 
halogenbond:GLY:108    NaN
halogenbond:GLY:108     -1
Name: 82, dtype: object

>  <hbond:ASP:109>  (83) 
hbond:ASP:109    0.0
hbond:ASP:109      0
Name: 82, dtype: object

>  <hydroph_interaction:ASP:109>  (83) 
hydroph_interaction:ASP:109    0.0
hydroph_interaction:ASP:109      0
Name: 82, dtype: object

>  <saltbridge:ASP:109>  (83) 
saltbridge:ASP:109    NaN
saltbridge:ASP:109     -1
Name: 82, dtype: object

>  <halogenbond:CYS:110>  (83) 
halogenbond:CYS:110    NaN
halogenbond:CYS:110     -1
Name: 82, dtype: object

>  <hbond:CYS:110>  (83) 
hbond:CYS:110    0.0
hbond:CYS:110      0
Name: 82, dtype: object

>  <hbond:GLY:111>  (83) 
hbond:GLY:111    NaN
hbond:GLY:111     -1
Name: 82, dtype: object

>  <hbond:GLY:112>  (83) 
hbond:GLY:112    NaN
hbond:GLY:112     -1
Name: 82, dtype: object

>  <hbond:ILE:113>  (83) 
hbond:ILE:113    NaN
hbond:ILE:113     -1
Name: 82, dtype: object

>  <hydroph_interaction:LEU:114>  (83) 
hydroph_interaction:LEU:114    NaN
hydroph_interaction:LEU:114     -1
Name: 82, dtype: object

>  <hbond:LEU:114>  (83) 
hbond:LEU:114    NaN
hbond:LEU:114     -1
Name: 82, dtype: object

>  <hydroph_interaction:ILE:123>  (83) 
hydroph_interaction:ILE:123    NaN
hydroph_interaction:ILE:123     -1
Name: 82, dtype: object

>  <hbond:ILE:123>  (83) 
hbond:ILE:123    NaN
hbond:ILE:123     -1
Name: 82, dtype: object

>  <hydroph_interaction:VAL:124>  (83) 
hydroph_interaction:VAL:124    1.0
hydroph_interaction:VAL:124      1
Name: 82, dtype: object

>  <hbond:VAL:124>  (83) 
hbond:VAL:124    NaN
hbond:VAL:124     -1
Name: 82, dtype: object

>  <halogenbond:VAL:124>  (83) 
halogenbond:VAL:124    NaN
halogenbond:VAL:124     -1
Name: 82, dtype: object

>  <hbond:SER:125>  (83) 
hbond:SER:125    0
hbond:SER:125    0
Name: 82, dtype: object

>  <halogenbond:SER:125>  (83) 
halogenbond:SER:125    0.0
halogenbond:SER:125      0
Name: 82, dtype: object

>  <hydroph_interaction:THR:126>  (83) 
hydroph_interaction:THR:126    0.0
hydroph_interaction:THR:126      0
Name: 82, dtype: object

>  <hbond:THR:126>  (83) 
hbond:THR:126    0.0
hbond:THR:126      0
Name: 82, dtype: object

>  <halogenbond:THR:126>  (83) 
halogenbond:THR:126    NaN
halogenbond:THR:126     -1
Name: 82, dtype: object

>  <hbond:GLY:127>  (83) 
hbond:GLY:127    0
hbond:GLY:127    0
Name: 82, dtype: object

>  <halogenbond:GLY:127>  (83) 
halogenbond:GLY:127    NaN
halogenbond:GLY:127     -1
Name: 82, dtype: object

>  <hydroph_interaction:GLY:127>  (83) 
hydroph_interaction:GLY:127    NaN
hydroph_interaction:GLY:127     -1
Name: 82, dtype: object

>  <hbond:GLY:128>  (83) 
hbond:GLY:128    NaN
hbond:GLY:128     -1
Name: 82, dtype: object

>  <halogenbond:GLY:128>  (83) 
halogenbond:GLY:128    NaN
halogenbond:GLY:128     -1
Name: 82, dtype: object

>  <hydroph_interaction:GLY:128>  (83) 
hydroph_interaction:GLY:128    NaN
hydroph_interaction:GLY:128     -1
Name: 82, dtype: object

>  <hbond:ASN:129>  (83) 
hbond:ASN:129    NaN
hbond:ASN:129     -1
Name: 82, dtype: object

>  <hydroph_interaction:ASN:129>  (83) 
hydroph_interaction:ASN:129    NaN
hydroph_interaction:ASN:129     -1
Name: 82, dtype: object

>  <halogenbond:ASN:129>  (83) 
halogenbond:ASN:129    NaN
halogenbond:ASN:129     -1
Name: 82, dtype: object

>  <hbond:GLY:130>  (83) 
hbond:GLY:130    NaN
hbond:GLY:130     -1
Name: 82, dtype: object

>  <hbond:LEU:131>  (83) 
hbond:LEU:131    NaN
hbond:LEU:131     -1
Name: 82, dtype: object

>  <hydroph_interaction:LEU:131>  (83) 
hydroph_interaction:LEU:131    NaN
hydroph_interaction:LEU:131     -1
Name: 82, dtype: object

>  <halogenbond:LEU:131>  (83) 
halogenbond:LEU:131    NaN
halogenbond:LEU:131     -1
Name: 82, dtype: object

>  <hydroph_interaction:VAL:132>  (83) 
hydroph_interaction:VAL:132    0.0
hydroph_interaction:VAL:132      0
Name: 82, dtype: object

>  <hbond:VAL:132>  (83) 
hbond:VAL:132    NaN
hbond:VAL:132     -1
Name: 82, dtype: object

>  <hbond:GLY:133>  (83) 
hbond:GLY:133    NaN
hbond:GLY:133     -1
Name: 82, dtype: object

>  <halogenbond:GLY:133>  (83) 
halogenbond:GLY:133    NaN
halogenbond:GLY:133     -1
Name: 82, dtype: object

>  <hydroph_interaction:PHE:134>  (83) 
hydroph_interaction:PHE:134    NaN
hydroph_interaction:PHE:134     -1
Name: 82, dtype: object

>  <hbond:PHE:134>  (83) 
hbond:PHE:134    NaN
hbond:PHE:134     -1
Name: 82, dtype: object

>  <pistack:PHE:134>  (83) 
pistack:PHE:134    NaN
pistack:PHE:134     -1
Name: 82, dtype: object

>  <pication:PHE:134>  (83) 
pication:PHE:134    NaN
pication:PHE:134     -1
Name: 82, dtype: object

>  <halogenbond:PHE:134>  (83) 
halogenbond:PHE:134    NaN
halogenbond:PHE:134     -1
Name: 82, dtype: object

>  <hydroph_interaction:ALA:135>  (83) 
hydroph_interaction:ALA:135    NaN
hydroph_interaction:ALA:135     -1
Name: 82, dtype: object

>  <hbond:ALA:135>  (83) 
hbond:ALA:135    NaN
hbond:ALA:135     -1
Name: 82, dtype: object

$$$$
Z2974983501
     RDKit          3D

 34 35  0  0  0  0  0  0  0  0999 V2000
   10.3200    9.3270   22.5720 C   0  0  0  0  0  0  0  0  0  0  0  0
    9.6730   10.5110   23.2530 C   0  0  0  0  0  0  0  0  0  0  0  0
    8.6300   10.2080   24.2920 C   0  0  0  0  0  0  0  0  0  0  0  0
    8.0180   11.4420   24.9240 C   0  0  0  0  0  0  0  0  0  0  0  0
    8.3800   12.6940   24.5810 N   0  0  0  0  0  0  0  0  0  0  0  0
    9.3530   12.8770   23.6110 C   0  0  0  0  0  0  0  0  0  0  0  0
    9.7150   14.1780   23.2600 N   0  0  0  0  0  0  0  0  0  0  0  0
   11.0420   14.5780   22.7570 C   0  0  0  0  0  0  0  0  0  0  0  0
   12.1440   13.8240   23.2130 C   0  0  0  0  0  0  0  0  0  0  0  0
   13.1840   14.6120   22.7260 C   0  0  0  0  0  0  0  0  0  0  0  0
   12.5100   15.2600   21.5900 N   0  0  0  0  0  0  0  0  0  0  0  0
   13.1410   16.0650   20.7360 C   0  0  0  0  0  0  0  0  0  0  0  0
   11.2620   14.7110   21.4100 C   0  0  0  0  0  0  0  0  0  0  0  0
   10.3520   15.6010   20.5570 C   0  0  0  0  0  0  0  0  0  0  0  0
    9.9930   11.8290   22.9570 C   0  0  0  0  0  0  0  0  0  0  0  0
    9.5390    8.7000   22.1490 H   0  0  0  0  0  0  0  0  0  0  0  0
   10.9360    9.6640   21.7430 H   0  0  0  0  0  0  0  0  0  0  0  0
   10.9340    8.7460   23.2600 H   0  0  0  0  0  0  0  0  0  0  0  0
    8.3540    9.1810   24.5480 H   0  0  0  0  0  0  0  0  0  0  0  0
    7.2510   11.3660   25.6890 H   0  0  0  0  0  0  0  0  0  0  0  0
    8.9360   14.7520   22.9160 H   0  0  0  0  0  0  0  0  0  0  0  0
   11.2210   15.5380   23.1310 H   0  0  0  0  0  0  0  0  0  0  0  0
   12.1460   13.8650   24.3070 H   0  0  0  0  0  0  0  0  0  0  0  0
   12.1420   12.7720   22.9800 H   0  0  0  0  0  0  0  0  0  0  0  0
   13.5210   15.3320   23.4740 H   0  0  0  0  0  0  0  0  0  0  0  0
   14.0520   14.1680   22.3500 H   0  0  0  0  0  0  0  0  0  0  0  0
   12.7760   17.0860   20.7370 H   0  0  0  0  0  0  0  0  0  0  0  0
   14.1950   16.1200   21.0060 H   0  0  0  0  0  0  0  0  0  0  0  0
   13.0980   15.6730   19.7190 H   0  0  0  0  0  0  0  0  0  0  0  0
   11.3370   13.7620   20.9200 H   0  0  0  0  0  0  0  0  0  0  0  0
    9.3060   15.4930   20.8490 H   0  0  0  0  0  0  0  0  0  0  0  0
   10.4130   15.2920   19.5140 H   0  0  0  0  0  0  0  0  0  0  0  0
   10.6350   16.6580   20.5980 H   0  0  0  0  0  0  0  0  0  0  0  0
   10.7460   12.0470   22.2090 H   0  0  0  0  0  0  0  0  0  0  0  0
  1  2  1  0
  2  3  2  0
  3  4  1  0
  4  5  2  0
  5  6  1  0
  6  7  1  0
  7  8  1  0
  8  9  1  0
  9 10  1  0
 10 11  1  0
 11 12  1  0
 11 13  1  0
 13 14  1  0
  6 15  2  0
 15  2  1  0
 13  8  1  0
  1 16  1  0
  1 17  1  0
  1 18  1  0
  3 19  1  0
  4 20  1  0
  7 21  1  0
  8 22  1  0
  9 23  1  0
  9 24  1  0
 10 25  1  0
 10 26  1  0
 12 27  1  0
 12 28  1  0
 12 29  1  0
 13 30  1  0
 14 31  1  0
 14 32  1  0
 14 33  1  0
 15 34  1  0
A    1
 C1 
A    2
 C2 
A    3
 C3 
A    4
 C4 
A    5
 N1 
A    6
 C5 
A    7
 N2 
A    8
 C6 
A    9
 C7 
A   10
 C8 
A   11
 N3 
A   12
 C9 
A   13
 C10
A   14
 C11
A   15
 C12
A   16
 H1 
A   17
 H2 
A   18
 H3 
A   19
 H4 
A   20
 H5 
A   21
 H6 
A   22
 H7 
A   23
 H8 
A   24
 H9 
A   25
 H10
A   26
 H11
A   27
 H12
A   28
 H13
A   29
 H14
A   30
 H15
A   31
 H16
A   32
 H17
A   33
 H18
A   34
 H19
M  END
>  <ref_pdb>  (84) 
x0310_0A

>  <ref_mols>  (84) 
x0416_0A,x0528_0A

>  <original SMILES>  (84) 
Cc1ccnc(NC2CCN(C)C2C)c1

>  <rationale>  (84) 
info halogenbond:G127+D39+A86+E85+E106+E88+T126+P107+Y64+C65+N129+F83+R93+L131+I82+G128+P91+N19+H21+V84+G133+Y90+Y89+H97+L81+F134+L98+R20+G103+S66+S67+S7+G108+R38+V124+M99+S36; hbond:S87+G127+T126+A86+E85+G103+G128+G130+L131+N129+H104+R68+V124+R93+P91+F83+S7+S66+G112+G133+V132+R20+Y89+S77+A135+Y63+A92+A101+M99+F134+L100+I82+Y64+S36+L98+V84+L81+Y94+S80+R38+S37+V102+G8+I123+G111+I113+L114+C65+L22+S96; hydroph_interaction:V124+Y90+L22+E106+E88+N129+N19+L40+I123+A135+I82+L100+L98+L131+F83+R93+V132+Y63+F134+H104+R20+A86+V74+P91+A101+F76+M99+L114+A92+Y94+R68+Y72+Y64+V18+V102+W28+G127+G128+L81; pication:H104+Y63+F134+Y90+R68+F83+R20; pistack:H21+Y89+H104+F134+Y63+F83+Y94; saltbridge:D39+R93+H104+E106+D109+E85+E88+R68+R20; 

>  <intxn_cluster>  (84) 
-1

>  <intxn_cluster_rank>  (84) 
-1

>  <N_interactions>  (84) 
6

>  <∆∆G>  (84) 
-9.549198

>  <$/mg>  (84) 
0.0

>  <comRMSD>  (84) 
0.728493

>  <N_rotatable_bonds>  (84) 
5

>  <deep_P1_sidechain>  (84) 
nan

>  <farthest_distance_to_substrate>  (84) 
2.233805

>  <hbond:SER:7>  (84) 
hbond:SER:7    NaN
hbond:SER:7     -1
Name: 83, dtype: object

>  <halogenbond:SER:7>  (84) 
halogenbond:SER:7    NaN
halogenbond:SER:7     -1
Name: 83, dtype: object

>  <hbond:GLY:8>  (84) 
hbond:GLY:8    NaN
hbond:GLY:8     -1
Name: 83, dtype: object

>  <hydroph_interaction:VAL:18>  (84) 
hydroph_interaction:VAL:18    NaN
hydroph_interaction:VAL:18     -1
Name: 83, dtype: object

>  <hbond:ASN:19>  (84) 
hbond:ASN:19    0.0
hbond:ASN:19      0
Name: 83, dtype: object

>  <hydroph_interaction:ASN:19>  (84) 
hydroph_interaction:ASN:19    NaN
hydroph_interaction:ASN:19     -1
Name: 83, dtype: object

>  <halogenbond:ASN:19>  (84) 
halogenbond:ASN:19    NaN
halogenbond:ASN:19     -1
Name: 83, dtype: object

>  <hbond:ARG:20>  (84) 
hbond:ARG:20    NaN
hbond:ARG:20     -1
Name: 83, dtype: object

>  <hydroph_interaction:ARG:20>  (84) 
hydroph_interaction:ARG:20    NaN
hydroph_interaction:ARG:20     -1
Name: 83, dtype: object

>  <saltbridge:ARG:20>  (84) 
saltbridge:ARG:20    NaN
saltbridge:ARG:20     -1
Name: 83, dtype: object

>  <halogenbond:ARG:20>  (84) 
halogenbond:ARG:20    NaN
halogenbond:ARG:20     -1
Name: 83, dtype: object

>  <pication:ARG:20>  (84) 
pication:ARG:20    NaN
pication:ARG:20     -1
Name: 83, dtype: object

>  <hbond:HIS:21>  (84) 
hbond:HIS:21    0.0
hbond:HIS:21      0
Name: 83, dtype: object

>  <hydroph_interaction:HIS:21>  (84) 
hydroph_interaction:HIS:21    0.0
hydroph_interaction:HIS:21      0
Name: 83, dtype: object

>  <pistack:HIS:21>  (84) 
pistack:HIS:21    NaN
pistack:HIS:21     -1
Name: 83, dtype: object

>  <pication:HIS:21>  (84) 
pication:HIS:21    0.0
pication:HIS:21      0
Name: 83, dtype: object

>  <saltbridge:HIS:21>  (84) 
saltbridge:HIS:21    0.0
saltbridge:HIS:21      0
Name: 83, dtype: object

>  <halogenbond:HIS:21>  (84) 
halogenbond:HIS:21    NaN
halogenbond:HIS:21     -1
Name: 83, dtype: object

>  <hydroph_interaction:LEU:22>  (84) 
hydroph_interaction:LEU:22    NaN
hydroph_interaction:LEU:22     -1
Name: 83, dtype: object

>  <hbond:LEU:22>  (84) 
hbond:LEU:22    NaN
hbond:LEU:22     -1
Name: 83, dtype: object

>  <hydroph_interaction:TRP:28>  (84) 
hydroph_interaction:TRP:28    NaN
hydroph_interaction:TRP:28     -1
Name: 83, dtype: object

>  <hbond:SER:36>  (84) 
hbond:SER:36    NaN
hbond:SER:36     -1
Name: 83, dtype: object

>  <halogenbond:SER:36>  (84) 
halogenbond:SER:36    NaN
halogenbond:SER:36     -1
Name: 83, dtype: object

>  <hbond:SER:37>  (84) 
hbond:SER:37    NaN
hbond:SER:37     -1
Name: 83, dtype: object

>  <hbond:ARG:38>  (84) 
hbond:ARG:38    NaN
hbond:ARG:38     -1
Name: 83, dtype: object

>  <halogenbond:ARG:38>  (84) 
halogenbond:ARG:38    NaN
halogenbond:ARG:38     -1
Name: 83, dtype: object

>  <saltbridge:ASP:39>  (84) 
saltbridge:ASP:39    1.0
saltbridge:ASP:39      1
Name: 83, dtype: object

>  <halogenbond:ASP:39>  (84) 
halogenbond:ASP:39    NaN
halogenbond:ASP:39     -1
Name: 83, dtype: object

>  <hbond:ASP:39>  (84) 
hbond:ASP:39    0.0
hbond:ASP:39      0
Name: 83, dtype: object

>  <hydroph_interaction:ASP:39>  (84) 
hydroph_interaction:ASP:39    0.0
hydroph_interaction:ASP:39      0
Name: 83, dtype: object

>  <hydroph_interaction:LEU:40>  (84) 
hydroph_interaction:LEU:40    NaN
hydroph_interaction:LEU:40     -1
Name: 83, dtype: object

>  <hydroph_interaction:TYR:63>  (84) 
hydroph_interaction:TYR:63    NaN
hydroph_interaction:TYR:63     -1
Name: 83, dtype: object

>  <hbond:TYR:63>  (84) 
hbond:TYR:63    NaN
hbond:TYR:63     -1
Name: 83, dtype: object

>  <pistack:TYR:63>  (84) 
pistack:TYR:63    NaN
pistack:TYR:63     -1
Name: 83, dtype: object

>  <pication:TYR:63>  (84) 
pication:TYR:63    NaN
pication:TYR:63     -1
Name: 83, dtype: object

>  <halogenbond:TYR:64>  (84) 
halogenbond:TYR:64    NaN
halogenbond:TYR:64     -1
Name: 83, dtype: object

>  <hbond:TYR:64>  (84) 
hbond:TYR:64    NaN
hbond:TYR:64     -1
Name: 83, dtype: object

>  <hydroph_interaction:TYR:64>  (84) 
hydroph_interaction:TYR:64    NaN
hydroph_interaction:TYR:64     -1
Name: 83, dtype: object

>  <halogenbond:CYS:65>  (84) 
halogenbond:CYS:65    NaN
halogenbond:CYS:65     -1
Name: 83, dtype: object

>  <hbond:CYS:65>  (84) 
hbond:CYS:65    NaN
hbond:CYS:65     -1
Name: 83, dtype: object

>  <hbond:SER:66>  (84) 
hbond:SER:66    NaN
hbond:SER:66     -1
Name: 83, dtype: object

>  <halogenbond:SER:66>  (84) 
halogenbond:SER:66    NaN
halogenbond:SER:66     -1
Name: 83, dtype: object

>  <hbond:SER:67>  (84) 
hbond:SER:67    0.0
hbond:SER:67      0
Name: 83, dtype: object

>  <halogenbond:SER:67>  (84) 
halogenbond:SER:67    NaN
halogenbond:SER:67     -1
Name: 83, dtype: object

>  <hbond:ARG:68>  (84) 
hbond:ARG:68    NaN
hbond:ARG:68     -1
Name: 83, dtype: object

>  <saltbridge:ARG:68>  (84) 
saltbridge:ARG:68    NaN
saltbridge:ARG:68     -1
Name: 83, dtype: object

>  <hydroph_interaction:ARG:68>  (84) 
hydroph_interaction:ARG:68    NaN
hydroph_interaction:ARG:68     -1
Name: 83, dtype: object

>  <pication:ARG:68>  (84) 
pication:ARG:68    NaN
pication:ARG:68     -1
Name: 83, dtype: object

>  <hydroph_interaction:TYR:72>  (84) 
hydroph_interaction:TYR:72    NaN
hydroph_interaction:TYR:72     -1
Name: 83, dtype: object

>  <hydroph_interaction:VAL:74>  (84) 
hydroph_interaction:VAL:74    NaN
hydroph_interaction:VAL:74     -1
Name: 83, dtype: object

>  <hydroph_interaction:PHE:76>  (84) 
hydroph_interaction:PHE:76    NaN
hydroph_interaction:PHE:76     -1
Name: 83, dtype: object

>  <hbond:SER:77>  (84) 
hbond:SER:77    NaN
hbond:SER:77     -1
Name: 83, dtype: object

>  <hbond:SER:80>  (84) 
hbond:SER:80    NaN
hbond:SER:80     -1
Name: 83, dtype: object

>  <hbond:LEU:81>  (84) 
hbond:LEU:81    NaN
hbond:LEU:81     -1
Name: 83, dtype: object

>  <halogenbond:LEU:81>  (84) 
halogenbond:LEU:81    NaN
halogenbond:LEU:81     -1
Name: 83, dtype: object

>  <hydroph_interaction:LEU:81>  (84) 
hydroph_interaction:LEU:81    NaN
hydroph_interaction:LEU:81     -1
Name: 83, dtype: object

>  <hydroph_interaction:ILE:82>  (84) 
hydroph_interaction:ILE:82    NaN
hydroph_interaction:ILE:82     -1
Name: 83, dtype: object

>  <halogenbond:ILE:82>  (84) 
halogenbond:ILE:82    NaN
halogenbond:ILE:82     -1
Name: 83, dtype: object

>  <hbond:ILE:82>  (84) 
hbond:ILE:82    NaN
hbond:ILE:82     -1
Name: 83, dtype: object

>  <hbond:PHE:83>  (84) 
hbond:PHE:83    NaN
hbond:PHE:83     -1
Name: 83, dtype: object

>  <hydroph_interaction:PHE:83>  (84) 
hydroph_interaction:PHE:83    NaN
hydroph_interaction:PHE:83     -1
Name: 83, dtype: object

>  <halogenbond:PHE:83>  (84) 
halogenbond:PHE:83    NaN
halogenbond:PHE:83     -1
Name: 83, dtype: object

>  <pistack:PHE:83>  (84) 
pistack:PHE:83    NaN
pistack:PHE:83     -1
Name: 83, dtype: object

>  <pication:PHE:83>  (84) 
pication:PHE:83    NaN
pication:PHE:83     -1
Name: 83, dtype: object

>  <hydroph_interaction:VAL:84>  (84) 
hydroph_interaction:VAL:84    0.0
hydroph_interaction:VAL:84      0
Name: 83, dtype: object

>  <halogenbond:VAL:84>  (84) 
halogenbond:VAL:84    NaN
halogenbond:VAL:84     -1
Name: 83, dtype: object

>  <hbond:VAL:84>  (84) 
hbond:VAL:84    NaN
hbond:VAL:84     -1
Name: 83, dtype: object

>  <hydroph_interaction:GLU:85>  (84) 
hydroph_interaction:GLU:85    0.0
hydroph_interaction:GLU:85      0
Name: 83, dtype: object

>  <hbond:GLU:85>  (84) 
hbond:GLU:85    NaN
hbond:GLU:85     -1
Name: 83, dtype: object

>  <halogenbond:GLU:85>  (84) 
halogenbond:GLU:85    NaN
halogenbond:GLU:85     -1
Name: 83, dtype: object

>  <saltbridge:GLU:85>  (84) 
saltbridge:GLU:85    NaN
saltbridge:GLU:85     -1
Name: 83, dtype: object

>  <halogenbond:ALA:86>  (84) 
halogenbond:ALA:86    NaN
halogenbond:ALA:86     -1
Name: 83, dtype: object

>  <hbond:ALA:86>  (84) 
hbond:ALA:86    NaN
hbond:ALA:86     -1
Name: 83, dtype: object

>  <hydroph_interaction:ALA:86>  (84) 
hydroph_interaction:ALA:86    NaN
hydroph_interaction:ALA:86     -1
Name: 83, dtype: object

>  <hbond:SER:87>  (84) 
hbond:SER:87    2
hbond:SER:87    2
Name: 83, dtype: object

>  <halogenbond:SER:87>  (84) 
halogenbond:SER:87    0.0
halogenbond:SER:87      0
Name: 83, dtype: object

>  <hbond:GLU:88>  (84) 
hbond:GLU:88    0.0
hbond:GLU:88      0
Name: 83, dtype: object

>  <hydroph_interaction:GLU:88>  (84) 
hydroph_interaction:GLU:88    NaN
hydroph_interaction:GLU:88     -1
Name: 83, dtype: object

>  <halogenbond:GLU:88>  (84) 
halogenbond:GLU:88    NaN
halogenbond:GLU:88     -1
Name: 83, dtype: object

>  <saltbridge:GLU:88>  (84) 
saltbridge:GLU:88    NaN
saltbridge:GLU:88     -1
Name: 83, dtype: object

>  <hydroph_interaction:TYR:89>  (84) 
hydroph_interaction:TYR:89    0.0
hydroph_interaction:TYR:89      0
Name: 83, dtype: object

>  <pistack:TYR:89>  (84) 
pistack:TYR:89    NaN
pistack:TYR:89     -1
Name: 83, dtype: object

>  <hbond:TYR:89>  (84) 
hbond:TYR:89    NaN
hbond:TYR:89     -1
Name: 83, dtype: object

>  <halogenbond:TYR:89>  (84) 
halogenbond:TYR:89    NaN
halogenbond:TYR:89     -1
Name: 83, dtype: object

>  <hydroph_interaction:TYR:90>  (84) 
hydroph_interaction:TYR:90    1.0
hydroph_interaction:TYR:90      1
Name: 83, dtype: object

>  <hbond:TYR:90>  (84) 
hbond:TYR:90    0.0
hbond:TYR:90      0
Name: 83, dtype: object

>  <pistack:TYR:90>  (84) 
pistack:TYR:90    0.0
pistack:TYR:90      0
Name: 83, dtype: object

>  <halogenbond:TYR:90>  (84) 
halogenbond:TYR:90    NaN
halogenbond:TYR:90     -1
Name: 83, dtype: object

>  <pication:TYR:90>  (84) 
pication:TYR:90    NaN
pication:TYR:90     -1
Name: 83, dtype: object

>  <hbond:PRO:91>  (84) 
hbond:PRO:91    NaN
hbond:PRO:91     -1
Name: 83, dtype: object

>  <hydroph_interaction:PRO:91>  (84) 
hydroph_interaction:PRO:91    NaN
hydroph_interaction:PRO:91     -1
Name: 83, dtype: object

>  <halogenbond:PRO:91>  (84) 
halogenbond:PRO:91    NaN
halogenbond:PRO:91     -1
Name: 83, dtype: object

>  <hbond:ALA:92>  (84) 
hbond:ALA:92    NaN
hbond:ALA:92     -1
Name: 83, dtype: object

>  <hydroph_interaction:ALA:92>  (84) 
hydroph_interaction:ALA:92    NaN
hydroph_interaction:ALA:92     -1
Name: 83, dtype: object

>  <saltbridge:ARG:93>  (84) 
saltbridge:ARG:93    NaN
saltbridge:ARG:93     -1
Name: 83, dtype: object

>  <hbond:ARG:93>  (84) 
hbond:ARG:93    NaN
hbond:ARG:93     -1
Name: 83, dtype: object

>  <hydroph_interaction:ARG:93>  (84) 
hydroph_interaction:ARG:93    NaN
hydroph_interaction:ARG:93     -1
Name: 83, dtype: object

>  <halogenbond:ARG:93>  (84) 
halogenbond:ARG:93    NaN
halogenbond:ARG:93     -1
Name: 83, dtype: object

>  <pication:ARG:93>  (84) 
pication:ARG:93    0.0
pication:ARG:93      0
Name: 83, dtype: object

>  <hydroph_interaction:TYR:94>  (84) 
hydroph_interaction:TYR:94    NaN
hydroph_interaction:TYR:94     -1
Name: 83, dtype: object

>  <pistack:TYR:94>  (84) 
pistack:TYR:94    NaN
pistack:TYR:94     -1
Name: 83, dtype: object

>  <hbond:TYR:94>  (84) 
hbond:TYR:94    NaN
hbond:TYR:94     -1
Name: 83, dtype: object

>  <hbond:GLN:95>  (84) 
hbond:GLN:95    0.0
hbond:GLN:95      0
Name: 83, dtype: object

>  <hydroph_interaction:GLN:95>  (84) 
hydroph_interaction:GLN:95    0.0
hydroph_interaction:GLN:95      0
Name: 83, dtype: object

>  <halogenbond:GLN:95>  (84) 
halogenbond:GLN:95    0.0
halogenbond:GLN:95      0
Name: 83, dtype: object

>  <hbond:SER:96>  (84) 
hbond:SER:96    NaN
hbond:SER:96     -1
Name: 83, dtype: object

>  <halogenbond:HIS:97>  (84) 
halogenbond:HIS:97    NaN
halogenbond:HIS:97     -1
Name: 83, dtype: object

>  <hydroph_interaction:LEU:98>  (84) 
hydroph_interaction:LEU:98    NaN
hydroph_interaction:LEU:98     -1
Name: 83, dtype: object

>  <hbond:LEU:98>  (84) 
hbond:LEU:98    NaN
hbond:LEU:98     -1
Name: 83, dtype: object

>  <halogenbond:LEU:98>  (84) 
halogenbond:LEU:98    NaN
halogenbond:LEU:98     -1
Name: 83, dtype: object

>  <hbond:MET:99>  (84) 
hbond:MET:99    NaN
hbond:MET:99     -1
Name: 83, dtype: object

>  <hydroph_interaction:MET:99>  (84) 
hydroph_interaction:MET:99    NaN
hydroph_interaction:MET:99     -1
Name: 83, dtype: object

>  <halogenbond:MET:99>  (84) 
halogenbond:MET:99    NaN
halogenbond:MET:99     -1
Name: 83, dtype: object

>  <hydroph_interaction:LEU:100>  (84) 
hydroph_interaction:LEU:100    NaN
hydroph_interaction:LEU:100     -1
Name: 83, dtype: object

>  <hbond:LEU:100>  (84) 
hbond:LEU:100    NaN
hbond:LEU:100     -1
Name: 83, dtype: object

>  <hbond:ALA:101>  (84) 
hbond:ALA:101    NaN
hbond:ALA:101     -1
Name: 83, dtype: object

>  <hydroph_interaction:ALA:101>  (84) 
hydroph_interaction:ALA:101    NaN
hydroph_interaction:ALA:101     -1
Name: 83, dtype: object

>  <hydroph_interaction:VAL:102>  (84) 
hydroph_interaction:VAL:102    NaN
hydroph_interaction:VAL:102     -1
Name: 83, dtype: object

>  <hbond:VAL:102>  (84) 
hbond:VAL:102    NaN
hbond:VAL:102     -1
Name: 83, dtype: object

>  <hbond:GLY:103>  (84) 
hbond:GLY:103    NaN
hbond:GLY:103     -1
Name: 83, dtype: object

>  <halogenbond:GLY:103>  (84) 
halogenbond:GLY:103    NaN
halogenbond:GLY:103     -1
Name: 83, dtype: object

>  <hbond:HIS:104>  (84) 
hbond:HIS:104    NaN
hbond:HIS:104     -1
Name: 83, dtype: object

>  <saltbridge:HIS:104>  (84) 
saltbridge:HIS:104    NaN
saltbridge:HIS:104     -1
Name: 83, dtype: object

>  <pication:HIS:104>  (84) 
pication:HIS:104    NaN
pication:HIS:104     -1
Name: 83, dtype: object

>  <halogenbond:HIS:104>  (84) 
halogenbond:HIS:104    0.0
halogenbond:HIS:104      0
Name: 83, dtype: object

>  <hydroph_interaction:HIS:104>  (84) 
hydroph_interaction:HIS:104    NaN
hydroph_interaction:HIS:104     -1
Name: 83, dtype: object

>  <pistack:HIS:104>  (84) 
pistack:HIS:104    NaN
pistack:HIS:104     -1
Name: 83, dtype: object

>  <halogenbond:SER:105>  (84) 
halogenbond:SER:105    0.0
halogenbond:SER:105      0
Name: 83, dtype: object

>  <hbond:SER:105>  (84) 
hbond:SER:105    0.0
hbond:SER:105      0
Name: 83, dtype: object

>  <hbond:GLU:106>  (84) 
hbond:GLU:106    0.0
hbond:GLU:106      0
Name: 83, dtype: object

>  <hydroph_interaction:GLU:106>  (84) 
hydroph_interaction:GLU:106    NaN
hydroph_interaction:GLU:106     -1
Name: 83, dtype: object

>  <saltbridge:GLU:106>  (84) 
saltbridge:GLU:106    NaN
saltbridge:GLU:106     -1
Name: 83, dtype: object

>  <halogenbond:GLU:106>  (84) 
halogenbond:GLU:106    NaN
halogenbond:GLU:106     -1
Name: 83, dtype: object

>  <hydroph_interaction:PRO:107>  (84) 
hydroph_interaction:PRO:107    0
hydroph_interaction:PRO:107    0
Name: 83, dtype: object

>  <hbond:PRO:107>  (84) 
hbond:PRO:107    0.0
hbond:PRO:107      0
Name: 83, dtype: object

>  <halogenbond:PRO:107>  (84) 
halogenbond:PRO:107    NaN
halogenbond:PRO:107     -1
Name: 83, dtype: object

>  <hbond:GLY:108>  (84) 
hbond:GLY:108    0.0
hbond:GLY:108      0
Name: 83, dtype: object

>  <halogenbond:GLY:108>  (84) 
halogenbond:GLY:108    NaN
halogenbond:GLY:108     -1
Name: 83, dtype: object

>  <hbond:ASP:109>  (84) 
hbond:ASP:109    0.0
hbond:ASP:109      0
Name: 83, dtype: object

>  <hydroph_interaction:ASP:109>  (84) 
hydroph_interaction:ASP:109    0.0
hydroph_interaction:ASP:109      0
Name: 83, dtype: object

>  <saltbridge:ASP:109>  (84) 
saltbridge:ASP:109    NaN
saltbridge:ASP:109     -1
Name: 83, dtype: object

>  <halogenbond:CYS:110>  (84) 
halogenbond:CYS:110    0.0
halogenbond:CYS:110      0
Name: 83, dtype: object

>  <hbond:CYS:110>  (84) 
hbond:CYS:110    0.0
hbond:CYS:110      0
Name: 83, dtype: object

>  <hbond:GLY:111>  (84) 
hbond:GLY:111    NaN
hbond:GLY:111     -1
Name: 83, dtype: object

>  <hbond:GLY:112>  (84) 
hbond:GLY:112    NaN
hbond:GLY:112     -1
Name: 83, dtype: object

>  <hbond:ILE:113>  (84) 
hbond:ILE:113    NaN
hbond:ILE:113     -1
Name: 83, dtype: object

>  <hydroph_interaction:LEU:114>  (84) 
hydroph_interaction:LEU:114    NaN
hydroph_interaction:LEU:114     -1
Name: 83, dtype: object

>  <hbond:LEU:114>  (84) 
hbond:LEU:114    NaN
hbond:LEU:114     -1
Name: 83, dtype: object

>  <hydroph_interaction:ILE:123>  (84) 
hydroph_interaction:ILE:123    NaN
hydroph_interaction:ILE:123     -1
Name: 83, dtype: object

>  <hbond:ILE:123>  (84) 
hbond:ILE:123    NaN
hbond:ILE:123     -1
Name: 83, dtype: object

>  <hydroph_interaction:VAL:124>  (84) 
hydroph_interaction:VAL:124    1.0
hydroph_interaction:VAL:124      1
Name: 83, dtype: object

>  <hbond:VAL:124>  (84) 
hbond:VAL:124    NaN
hbond:VAL:124     -1
Name: 83, dtype: object

>  <halogenbond:VAL:124>  (84) 
halogenbond:VAL:124    NaN
halogenbond:VAL:124     -1
Name: 83, dtype: object

>  <hbond:SER:125>  (84) 
hbond:SER:125    0
hbond:SER:125    0
Name: 83, dtype: object

>  <halogenbond:SER:125>  (84) 
halogenbond:SER:125    0.0
halogenbond:SER:125      0
Name: 83, dtype: object

>  <hydroph_interaction:THR:126>  (84) 
hydroph_interaction:THR:126    0.0
hydroph_interaction:THR:126      0
Name: 83, dtype: object

>  <hbond:THR:126>  (84) 
hbond:THR:126    NaN
hbond:THR:126     -1
Name: 83, dtype: object

>  <halogenbond:THR:126>  (84) 
halogenbond:THR:126    NaN
halogenbond:THR:126     -1
Name: 83, dtype: object

>  <hbond:GLY:127>  (84) 
hbond:GLY:127    1
hbond:GLY:127    1
Name: 83, dtype: object

>  <halogenbond:GLY:127>  (84) 
halogenbond:GLY:127    NaN
halogenbond:GLY:127     -1
Name: 83, dtype: object

>  <hydroph_interaction:GLY:127>  (84) 
hydroph_interaction:GLY:127    NaN
hydroph_interaction:GLY:127     -1
Name: 83, dtype: object

>  <hbond:GLY:128>  (84) 
hbond:GLY:128    NaN
hbond:GLY:128     -1
Name: 83, dtype: object

>  <halogenbond:GLY:128>  (84) 
halogenbond:GLY:128    NaN
halogenbond:GLY:128     -1
Name: 83, dtype: object

>  <hydroph_interaction:GLY:128>  (84) 
hydroph_interaction:GLY:128    NaN
hydroph_interaction:GLY:128     -1
Name: 83, dtype: object

>  <hbond:ASN:129>  (84) 
hbond:ASN:129    NaN
hbond:ASN:129     -1
Name: 83, dtype: object

>  <hydroph_interaction:ASN:129>  (84) 
hydroph_interaction:ASN:129    NaN
hydroph_interaction:ASN:129     -1
Name: 83, dtype: object

>  <halogenbond:ASN:129>  (84) 
halogenbond:ASN:129    NaN
halogenbond:ASN:129     -1
Name: 83, dtype: object

>  <hbond:GLY:130>  (84) 
hbond:GLY:130    NaN
hbond:GLY:130     -1
Name: 83, dtype: object

>  <hbond:LEU:131>  (84) 
hbond:LEU:131    NaN
hbond:LEU:131     -1
Name: 83, dtype: object

>  <hydroph_interaction:LEU:131>  (84) 
hydroph_interaction:LEU:131    NaN
hydroph_interaction:LEU:131     -1
Name: 83, dtype: object

>  <halogenbond:LEU:131>  (84) 
halogenbond:LEU:131    NaN
halogenbond:LEU:131     -1
Name: 83, dtype: object

>  <hydroph_interaction:VAL:132>  (84) 
hydroph_interaction:VAL:132    NaN
hydroph_interaction:VAL:132     -1
Name: 83, dtype: object

>  <hbond:VAL:132>  (84) 
hbond:VAL:132    NaN
hbond:VAL:132     -1
Name: 83, dtype: object

>  <hbond:GLY:133>  (84) 
hbond:GLY:133    NaN
hbond:GLY:133     -1
Name: 83, dtype: object

>  <halogenbond:GLY:133>  (84) 
halogenbond:GLY:133    NaN
halogenbond:GLY:133     -1
Name: 83, dtype: object

>  <hydroph_interaction:PHE:134>  (84) 
hydroph_interaction:PHE:134    NaN
hydroph_interaction:PHE:134     -1
Name: 83, dtype: object

>  <hbond:PHE:134>  (84) 
hbond:PHE:134    NaN
hbond:PHE:134     -1
Name: 83, dtype: object

>  <pistack:PHE:134>  (84) 
pistack:PHE:134    NaN
pistack:PHE:134     -1
Name: 83, dtype: object

>  <pication:PHE:134>  (84) 
pication:PHE:134    NaN
pication:PHE:134     -1
Name: 83, dtype: object

>  <halogenbond:PHE:134>  (84) 
halogenbond:PHE:134    NaN
halogenbond:PHE:134     -1
Name: 83, dtype: object

>  <hydroph_interaction:ALA:135>  (84) 
hydroph_interaction:ALA:135    NaN
hydroph_interaction:ALA:135     -1
Name: 83, dtype: object

>  <hbond:ALA:135>  (84) 
hbond:ALA:135    NaN
hbond:ALA:135     -1
Name: 83, dtype: object

$$$$
Z3139708958
     RDKit          3D

 27 28  0  0  0  0  0  0  0  0999 V2000
   12.3320   16.1130   21.7620 C   0  0  0  0  0  0  0  0  0  0  0  0
   11.3940   14.9900   21.4550 C   0  0  2  0  0  0  0  0  0  0  0  0
   10.1660   15.4650   20.7620 N   0  0  0  0  0  0  0  0  0  0  0  0
   11.0800   14.1330   22.6650 C   0  0  0  0  0  0  0  0  0  0  0  0
   11.9710   13.8580   23.4630 O   0  0  0  0  0  0  0  0  0  0  0  0
    9.7570   13.7540   22.7370 N   0  0  0  0  0  0  0  0  0  0  0  0
    9.1230   12.7780   23.5370 C   0  0  0  0  0  0  0  0  0  0  0  0
    8.1760   13.0910   24.5220 C   0  0  0  0  0  0  0  0  0  0  0  0
    7.5180   11.9960   25.3270 C   0  0  0  0  0  0  0  0  0  0  0  0
    6.2300   12.2810   26.6720 Br  0  0  0  0  0  0  0  0  0  0  0  0
    7.9480   10.6290   24.9880 C   0  0  0  0  0  0  0  0  0  0  0  0
    8.8640   10.4060   24.0320 C   0  0  0  0  0  0  0  0  0  0  0  0
    9.4390   11.4280   23.3300 C   0  0  0  0  0  0  0  0  0  0  0  0
   10.3190   10.9290   22.4370 O   0  0  0  0  0  0  0  0  0  0  0  0
   10.2960    9.5250   22.7330 C   0  0  0  0  0  0  0  0  0  0  0  0
    9.2870    9.1820   23.6750 O   0  0  0  0  0  0  0  0  0  0  0  0
   12.6530   16.0440   22.8040 H   0  0  0  0  0  0  0  0  0  0  0  0
   13.2140   16.0290   21.1200 H   0  0  0  0  0  0  0  0  0  0  0  0
   11.8560   17.0770   21.5800 H   0  0  0  0  0  0  0  0  0  0  0  0
   11.9140   14.3290   20.7500 H   0  0  0  0  0  0  0  0  0  0  0  0
    9.3720   15.6020   21.3990 H   0  0  0  0  0  0  0  0  0  0  0  0
    9.8760   14.7410   20.0940 H   0  0  0  0  0  0  0  0  0  0  0  0
    9.1720   14.0570   21.9650 H   0  0  0  0  0  0  0  0  0  0  0  0
    7.8970   14.1220   24.7210 H   0  0  0  0  0  0  0  0  0  0  0  0
    7.5220    9.7900   25.5110 H   0  0  0  0  0  0  0  0  0  0  0  0
   11.2620    9.2190   23.1490 H   0  0  0  0  0  0  0  0  0  0  0  0
   10.1160    8.9750   21.8030 H   0  0  0  0  0  0  0  0  0  0  0  0
  1  2  1  0
  2  3  1  0
  2  4  1  0
  4  5  2  0
  4  6  1  0
  6  7  1  0
  7  8  2  0
  8  9  1  0
  9 10  1  0
  9 11  2  0
 11 12  1  0
 12 13  2  0
 13 14  1  0
 14 15  1  0
 15 16  1  0
 13  7  1  0
 16 12  1  0
  1 17  1  0
  1 18  1  0
  1 19  1  0
  2 20  1  6
  3 21  1  0
  3 22  1  0
  6 23  1  0
  8 24  1  0
 11 25  1  0
 15 26  1  0
 15 27  1  0
A    1
 C1 
A    2
 C2 
A    3
 N1 
A    4
 C3 
A    5
 O1 
A    6
 N2 
A    7
 C4 
A    8
 C5 
A    9
 C6 
A   10
BR1 
A   11
 C7 
A   12
 C8 
A   13
 C9 
A   14
 O2 
A   15
 C10
A   16
 O3 
A   17
 H1 
A   18
 H2 
A   19
 H3 
A   20
 H4 
A   21
 H5 
A   22
 H6 
A   23
 H7 
A   24
 H8 
A   25
 H9 
A   26
 H10
A   27
 H11
M  END
>  <ref_pdb>  (85) 
x0310_0A

>  <ref_mols>  (85) 
x0554_0A,x0528_0A

>  <original SMILES>  (85) 
C[C@H](N)C(=O)Nc1cc(Br)cc2c1OCO2

>  <rationale>  (85) 
info halogenbond:C110+D39+A86+S125+E85+Q95+E106+E88+T126+H104+Y64+C65+S87+N129+F83+R93+L131+I82+G128+P91+N19+H21+V84+G133+Y90+Y89+H97+L81+F134+L98+R20+G103+S66+S67+S7+G108+R38+V124+M99+S36; hbond:S87+Q95+A86+E85+G108+G103+G128+G130+L131+N129+N19+H104+R68+V124+R93+P91+F83+S67+S7+S66+G112+G133+V132+R20+Y89+S77+A135+Y63+A92+A101+M99+F134+L100+I82+Y64+S36+L98+V84+L81+Y94+S80+R38+S37+V102+G8+I123+G111+I113+L114+C65+L22+S96; hydroph_interaction:Y90+Y89+E85+E106+N129+L40+I123+A135+Q95+I82+L100+L98+L131+F83+R93+V132+Y63+F134+H104+R20+A86+V74+P91+A101+F76+M99+L114+A92+Y94+R68+Y72+Y64+V18+V102+W28+G127+G128+L81; pication:H104+R93+Y63+F134+Y90+R68+F83+R20; pistack:Y89+Y90+H104+F134+Y63+F83+Y94; saltbridge:R93+H104+E106+D109+E85+E88+R68+R20; 

>  <intxn_cluster>  (85) 
-1

>  <intxn_cluster_rank>  (85) 
-1

>  <N_interactions>  (85) 
5

>  <∆∆G>  (85) 
-8.912413

>  <$/mg>  (85) 
163.0

>  <comRMSD>  (85) 
0.996692

>  <N_rotatable_bonds>  (85) 
4

>  <deep_P1_sidechain>  (85) 
nan

>  <farthest_distance_to_substrate>  (85) 
2.79294

>  <hbond:SER:7>  (85) 
hbond:SER:7    NaN
hbond:SER:7     -1
Name: 84, dtype: object

>  <halogenbond:SER:7>  (85) 
halogenbond:SER:7    NaN
halogenbond:SER:7     -1
Name: 84, dtype: object

>  <hbond:GLY:8>  (85) 
hbond:GLY:8    NaN
hbond:GLY:8     -1
Name: 84, dtype: object

>  <hydroph_interaction:VAL:18>  (85) 
hydroph_interaction:VAL:18    NaN
hydroph_interaction:VAL:18     -1
Name: 84, dtype: object

>  <hbond:ASN:19>  (85) 
hbond:ASN:19    NaN
hbond:ASN:19     -1
Name: 84, dtype: object

>  <hydroph_interaction:ASN:19>  (85) 
hydroph_interaction:ASN:19    0.0
hydroph_interaction:ASN:19      0
Name: 84, dtype: object

>  <halogenbond:ASN:19>  (85) 
halogenbond:ASN:19    NaN
halogenbond:ASN:19     -1
Name: 84, dtype: object

>  <hbond:ARG:20>  (85) 
hbond:ARG:20    NaN
hbond:ARG:20     -1
Name: 84, dtype: object

>  <hydroph_interaction:ARG:20>  (85) 
hydroph_interaction:ARG:20    NaN
hydroph_interaction:ARG:20     -1
Name: 84, dtype: object

>  <saltbridge:ARG:20>  (85) 
saltbridge:ARG:20    NaN
saltbridge:ARG:20     -1
Name: 84, dtype: object

>  <halogenbond:ARG:20>  (85) 
halogenbond:ARG:20    NaN
halogenbond:ARG:20     -1
Name: 84, dtype: object

>  <pication:ARG:20>  (85) 
pication:ARG:20    NaN
pication:ARG:20     -1
Name: 84, dtype: object

>  <hbond:HIS:21>  (85) 
hbond:HIS:21    0.0
hbond:HIS:21      0
Name: 84, dtype: object

>  <hydroph_interaction:HIS:21>  (85) 
hydroph_interaction:HIS:21    0.0
hydroph_interaction:HIS:21      0
Name: 84, dtype: object

>  <pistack:HIS:21>  (85) 
pistack:HIS:21    0.0
pistack:HIS:21      0
Name: 84, dtype: object

>  <pication:HIS:21>  (85) 
pication:HIS:21    0.0
pication:HIS:21      0
Name: 84, dtype: object

>  <saltbridge:HIS:21>  (85) 
saltbridge:HIS:21    0.0
saltbridge:HIS:21      0
Name: 84, dtype: object

>  <halogenbond:HIS:21>  (85) 
halogenbond:HIS:21    NaN
halogenbond:HIS:21     -1
Name: 84, dtype: object

>  <hydroph_interaction:LEU:22>  (85) 
hydroph_interaction:LEU:22    0.0
hydroph_interaction:LEU:22      0
Name: 84, dtype: object

>  <hbond:LEU:22>  (85) 
hbond:LEU:22    NaN
hbond:LEU:22     -1
Name: 84, dtype: object

>  <hydroph_interaction:TRP:28>  (85) 
hydroph_interaction:TRP:28    NaN
hydroph_interaction:TRP:28     -1
Name: 84, dtype: object

>  <hbond:SER:36>  (85) 
hbond:SER:36    NaN
hbond:SER:36     -1
Name: 84, dtype: object

>  <halogenbond:SER:36>  (85) 
halogenbond:SER:36    NaN
halogenbond:SER:36     -1
Name: 84, dtype: object

>  <hbond:SER:37>  (85) 
hbond:SER:37    NaN
hbond:SER:37     -1
Name: 84, dtype: object

>  <hbond:ARG:38>  (85) 
hbond:ARG:38    NaN
hbond:ARG:38     -1
Name: 84, dtype: object

>  <halogenbond:ARG:38>  (85) 
halogenbond:ARG:38    NaN
halogenbond:ARG:38     -1
Name: 84, dtype: object

>  <saltbridge:ASP:39>  (85) 
saltbridge:ASP:39    0.0
saltbridge:ASP:39      0
Name: 84, dtype: object

>  <halogenbond:ASP:39>  (85) 
halogenbond:ASP:39    NaN
halogenbond:ASP:39     -1
Name: 84, dtype: object

>  <hbond:ASP:39>  (85) 
hbond:ASP:39    0.0
hbond:ASP:39      0
Name: 84, dtype: object

>  <hydroph_interaction:ASP:39>  (85) 
hydroph_interaction:ASP:39    0.0
hydroph_interaction:ASP:39      0
Name: 84, dtype: object

>  <hydroph_interaction:LEU:40>  (85) 
hydroph_interaction:LEU:40    NaN
hydroph_interaction:LEU:40     -1
Name: 84, dtype: object

>  <hydroph_interaction:TYR:63>  (85) 
hydroph_interaction:TYR:63    NaN
hydroph_interaction:TYR:63     -1
Name: 84, dtype: object

>  <hbond:TYR:63>  (85) 
hbond:TYR:63    NaN
hbond:TYR:63     -1
Name: 84, dtype: object

>  <pistack:TYR:63>  (85) 
pistack:TYR:63    NaN
pistack:TYR:63     -1
Name: 84, dtype: object

>  <pication:TYR:63>  (85) 
pication:TYR:63    NaN
pication:TYR:63     -1
Name: 84, dtype: object

>  <halogenbond:TYR:64>  (85) 
halogenbond:TYR:64    NaN
halogenbond:TYR:64     -1
Name: 84, dtype: object

>  <hbond:TYR:64>  (85) 
hbond:TYR:64    NaN
hbond:TYR:64     -1
Name: 84, dtype: object

>  <hydroph_interaction:TYR:64>  (85) 
hydroph_interaction:TYR:64    NaN
hydroph_interaction:TYR:64     -1
Name: 84, dtype: object

>  <halogenbond:CYS:65>  (85) 
halogenbond:CYS:65    NaN
halogenbond:CYS:65     -1
Name: 84, dtype: object

>  <hbond:CYS:65>  (85) 
hbond:CYS:65    NaN
hbond:CYS:65     -1
Name: 84, dtype: object

>  <hbond:SER:66>  (85) 
hbond:SER:66    NaN
hbond:SER:66     -1
Name: 84, dtype: object

>  <halogenbond:SER:66>  (85) 
halogenbond:SER:66    NaN
halogenbond:SER:66     -1
Name: 84, dtype: object

>  <hbond:SER:67>  (85) 
hbond:SER:67    NaN
hbond:SER:67     -1
Name: 84, dtype: object

>  <halogenbond:SER:67>  (85) 
halogenbond:SER:67    NaN
halogenbond:SER:67     -1
Name: 84, dtype: object

>  <hbond:ARG:68>  (85) 
hbond:ARG:68    NaN
hbond:ARG:68     -1
Name: 84, dtype: object

>  <saltbridge:ARG:68>  (85) 
saltbridge:ARG:68    NaN
saltbridge:ARG:68     -1
Name: 84, dtype: object

>  <hydroph_interaction:ARG:68>  (85) 
hydroph_interaction:ARG:68    NaN
hydroph_interaction:ARG:68     -1
Name: 84, dtype: object

>  <pication:ARG:68>  (85) 
pication:ARG:68    NaN
pication:ARG:68     -1
Name: 84, dtype: object

>  <hydroph_interaction:TYR:72>  (85) 
hydroph_interaction:TYR:72    NaN
hydroph_interaction:TYR:72     -1
Name: 84, dtype: object

>  <hydroph_interaction:VAL:74>  (85) 
hydroph_interaction:VAL:74    NaN
hydroph_interaction:VAL:74     -1
Name: 84, dtype: object

>  <hydroph_interaction:PHE:76>  (85) 
hydroph_interaction:PHE:76    NaN
hydroph_interaction:PHE:76     -1
Name: 84, dtype: object

>  <hbond:SER:77>  (85) 
hbond:SER:77    NaN
hbond:SER:77     -1
Name: 84, dtype: object

>  <hbond:SER:80>  (85) 
hbond:SER:80    NaN
hbond:SER:80     -1
Name: 84, dtype: object

>  <hbond:LEU:81>  (85) 
hbond:LEU:81    NaN
hbond:LEU:81     -1
Name: 84, dtype: object

>  <halogenbond:LEU:81>  (85) 
halogenbond:LEU:81    NaN
halogenbond:LEU:81     -1
Name: 84, dtype: object

>  <hydroph_interaction:LEU:81>  (85) 
hydroph_interaction:LEU:81    NaN
hydroph_interaction:LEU:81     -1
Name: 84, dtype: object

>  <hydroph_interaction:ILE:82>  (85) 
hydroph_interaction:ILE:82    NaN
hydroph_interaction:ILE:82     -1
Name: 84, dtype: object

>  <halogenbond:ILE:82>  (85) 
halogenbond:ILE:82    NaN
halogenbond:ILE:82     -1
Name: 84, dtype: object

>  <hbond:ILE:82>  (85) 
hbond:ILE:82    NaN
hbond:ILE:82     -1
Name: 84, dtype: object

>  <hbond:PHE:83>  (85) 
hbond:PHE:83    NaN
hbond:PHE:83     -1
Name: 84, dtype: object

>  <hydroph_interaction:PHE:83>  (85) 
hydroph_interaction:PHE:83    NaN
hydroph_interaction:PHE:83     -1
Name: 84, dtype: object

>  <halogenbond:PHE:83>  (85) 
halogenbond:PHE:83    NaN
halogenbond:PHE:83     -1
Name: 84, dtype: object

>  <pistack:PHE:83>  (85) 
pistack:PHE:83    NaN
pistack:PHE:83     -1
Name: 84, dtype: object

>  <pication:PHE:83>  (85) 
pication:PHE:83    NaN
pication:PHE:83     -1
Name: 84, dtype: object

>  <hydroph_interaction:VAL:84>  (85) 
hydroph_interaction:VAL:84    0.0
hydroph_interaction:VAL:84      0
Name: 84, dtype: object

>  <halogenbond:VAL:84>  (85) 
halogenbond:VAL:84    NaN
halogenbond:VAL:84     -1
Name: 84, dtype: object

>  <hbond:VAL:84>  (85) 
hbond:VAL:84    NaN
hbond:VAL:84     -1
Name: 84, dtype: object

>  <hydroph_interaction:GLU:85>  (85) 
hydroph_interaction:GLU:85    NaN
hydroph_interaction:GLU:85     -1
Name: 84, dtype: object

>  <hbond:GLU:85>  (85) 
hbond:GLU:85    NaN
hbond:GLU:85     -1
Name: 84, dtype: object

>  <halogenbond:GLU:85>  (85) 
halogenbond:GLU:85    NaN
halogenbond:GLU:85     -1
Name: 84, dtype: object

>  <saltbridge:GLU:85>  (85) 
saltbridge:GLU:85    NaN
saltbridge:GLU:85     -1
Name: 84, dtype: object

>  <halogenbond:ALA:86>  (85) 
halogenbond:ALA:86    NaN
halogenbond:ALA:86     -1
Name: 84, dtype: object

>  <hbond:ALA:86>  (85) 
hbond:ALA:86    NaN
hbond:ALA:86     -1
Name: 84, dtype: object

>  <hydroph_interaction:ALA:86>  (85) 
hydroph_interaction:ALA:86    NaN
hydroph_interaction:ALA:86     -1
Name: 84, dtype: object

>  <hbond:SER:87>  (85) 
hbond:SER:87    3
hbond:SER:87    3
Name: 84, dtype: object

>  <halogenbond:SER:87>  (85) 
halogenbond:SER:87    NaN
halogenbond:SER:87     -1
Name: 84, dtype: object

>  <hbond:GLU:88>  (85) 
hbond:GLU:88    0.0
hbond:GLU:88      0
Name: 84, dtype: object

>  <hydroph_interaction:GLU:88>  (85) 
hydroph_interaction:GLU:88    0.0
hydroph_interaction:GLU:88      0
Name: 84, dtype: object

>  <halogenbond:GLU:88>  (85) 
halogenbond:GLU:88    NaN
halogenbond:GLU:88     -1
Name: 84, dtype: object

>  <saltbridge:GLU:88>  (85) 
saltbridge:GLU:88    NaN
saltbridge:GLU:88     -1
Name: 84, dtype: object

>  <hydroph_interaction:TYR:89>  (85) 
hydroph_interaction:TYR:89    1.0
hydroph_interaction:TYR:89      1
Name: 84, dtype: object

>  <pistack:TYR:89>  (85) 
pistack:TYR:89    NaN
pistack:TYR:89     -1
Name: 84, dtype: object

>  <hbond:TYR:89>  (85) 
hbond:TYR:89    NaN
hbond:TYR:89     -1
Name: 84, dtype: object

>  <halogenbond:TYR:89>  (85) 
halogenbond:TYR:89    NaN
halogenbond:TYR:89     -1
Name: 84, dtype: object

>  <hydroph_interaction:TYR:90>  (85) 
hydroph_interaction:TYR:90    1.0
hydroph_interaction:TYR:90      1
Name: 84, dtype: object

>  <hbond:TYR:90>  (85) 
hbond:TYR:90    0.0
hbond:TYR:90      0
Name: 84, dtype: object

>  <pistack:TYR:90>  (85) 
pistack:TYR:90    NaN
pistack:TYR:90     -1
Name: 84, dtype: object

>  <halogenbond:TYR:90>  (85) 
halogenbond:TYR:90    NaN
halogenbond:TYR:90     -1
Name: 84, dtype: object

>  <pication:TYR:90>  (85) 
pication:TYR:90    NaN
pication:TYR:90     -1
Name: 84, dtype: object

>  <hbond:PRO:91>  (85) 
hbond:PRO:91    NaN
hbond:PRO:91     -1
Name: 84, dtype: object

>  <hydroph_interaction:PRO:91>  (85) 
hydroph_interaction:PRO:91    NaN
hydroph_interaction:PRO:91     -1
Name: 84, dtype: object

>  <halogenbond:PRO:91>  (85) 
halogenbond:PRO:91    NaN
halogenbond:PRO:91     -1
Name: 84, dtype: object

>  <hbond:ALA:92>  (85) 
hbond:ALA:92    NaN
hbond:ALA:92     -1
Name: 84, dtype: object

>  <hydroph_interaction:ALA:92>  (85) 
hydroph_interaction:ALA:92    NaN
hydroph_interaction:ALA:92     -1
Name: 84, dtype: object

>  <saltbridge:ARG:93>  (85) 
saltbridge:ARG:93    NaN
saltbridge:ARG:93     -1
Name: 84, dtype: object

>  <hbond:ARG:93>  (85) 
hbond:ARG:93    NaN
hbond:ARG:93     -1
Name: 84, dtype: object

>  <hydroph_interaction:ARG:93>  (85) 
hydroph_interaction:ARG:93    NaN
hydroph_interaction:ARG:93     -1
Name: 84, dtype: object

>  <halogenbond:ARG:93>  (85) 
halogenbond:ARG:93    NaN
halogenbond:ARG:93     -1
Name: 84, dtype: object

>  <pication:ARG:93>  (85) 
pication:ARG:93    NaN
pication:ARG:93     -1
Name: 84, dtype: object

>  <hydroph_interaction:TYR:94>  (85) 
hydroph_interaction:TYR:94    NaN
hydroph_interaction:TYR:94     -1
Name: 84, dtype: object

>  <pistack:TYR:94>  (85) 
pistack:TYR:94    NaN
pistack:TYR:94     -1
Name: 84, dtype: object

>  <hbond:TYR:94>  (85) 
hbond:TYR:94    NaN
hbond:TYR:94     -1
Name: 84, dtype: object

>  <hbond:GLN:95>  (85) 
hbond:GLN:95    NaN
hbond:GLN:95     -1
Name: 84, dtype: object

>  <hydroph_interaction:GLN:95>  (85) 
hydroph_interaction:GLN:95    NaN
hydroph_interaction:GLN:95     -1
Name: 84, dtype: object

>  <halogenbond:GLN:95>  (85) 
halogenbond:GLN:95    NaN
halogenbond:GLN:95     -1
Name: 84, dtype: object

>  <hbond:SER:96>  (85) 
hbond:SER:96    NaN
hbond:SER:96     -1
Name: 84, dtype: object

>  <halogenbond:HIS:97>  (85) 
halogenbond:HIS:97    NaN
halogenbond:HIS:97     -1
Name: 84, dtype: object

>  <hydroph_interaction:LEU:98>  (85) 
hydroph_interaction:LEU:98    NaN
hydroph_interaction:LEU:98     -1
Name: 84, dtype: object

>  <hbond:LEU:98>  (85) 
hbond:LEU:98    NaN
hbond:LEU:98     -1
Name: 84, dtype: object

>  <halogenbond:LEU:98>  (85) 
halogenbond:LEU:98    NaN
halogenbond:LEU:98     -1
Name: 84, dtype: object

>  <hbond:MET:99>  (85) 
hbond:MET:99    NaN
hbond:MET:99     -1
Name: 84, dtype: object

>  <hydroph_interaction:MET:99>  (85) 
hydroph_interaction:MET:99    NaN
hydroph_interaction:MET:99     -1
Name: 84, dtype: object

>  <halogenbond:MET:99>  (85) 
halogenbond:MET:99    NaN
halogenbond:MET:99     -1
Name: 84, dtype: object

>  <hydroph_interaction:LEU:100>  (85) 
hydroph_interaction:LEU:100    NaN
hydroph_interaction:LEU:100     -1
Name: 84, dtype: object

>  <hbond:LEU:100>  (85) 
hbond:LEU:100    NaN
hbond:LEU:100     -1
Name: 84, dtype: object

>  <hbond:ALA:101>  (85) 
hbond:ALA:101    NaN
hbond:ALA:101     -1
Name: 84, dtype: object

>  <hydroph_interaction:ALA:101>  (85) 
hydroph_interaction:ALA:101    NaN
hydroph_interaction:ALA:101     -1
Name: 84, dtype: object

>  <hydroph_interaction:VAL:102>  (85) 
hydroph_interaction:VAL:102    NaN
hydroph_interaction:VAL:102     -1
Name: 84, dtype: object

>  <hbond:VAL:102>  (85) 
hbond:VAL:102    NaN
hbond:VAL:102     -1
Name: 84, dtype: object

>  <hbond:GLY:103>  (85) 
hbond:GLY:103    NaN
hbond:GLY:103     -1
Name: 84, dtype: object

>  <halogenbond:GLY:103>  (85) 
halogenbond:GLY:103    NaN
halogenbond:GLY:103     -1
Name: 84, dtype: object

>  <hbond:HIS:104>  (85) 
hbond:HIS:104    NaN
hbond:HIS:104     -1
Name: 84, dtype: object

>  <saltbridge:HIS:104>  (85) 
saltbridge:HIS:104    NaN
saltbridge:HIS:104     -1
Name: 84, dtype: object

>  <pication:HIS:104>  (85) 
pication:HIS:104    NaN
pication:HIS:104     -1
Name: 84, dtype: object

>  <halogenbond:HIS:104>  (85) 
halogenbond:HIS:104    NaN
halogenbond:HIS:104     -1
Name: 84, dtype: object

>  <hydroph_interaction:HIS:104>  (85) 
hydroph_interaction:HIS:104    NaN
hydroph_interaction:HIS:104     -1
Name: 84, dtype: object

>  <pistack:HIS:104>  (85) 
pistack:HIS:104    NaN
pistack:HIS:104     -1
Name: 84, dtype: object

>  <halogenbond:SER:105>  (85) 
halogenbond:SER:105    0.0
halogenbond:SER:105      0
Name: 84, dtype: object

>  <hbond:SER:105>  (85) 
hbond:SER:105    0.0
hbond:SER:105      0
Name: 84, dtype: object

>  <hbond:GLU:106>  (85) 
hbond:GLU:106    0.0
hbond:GLU:106      0
Name: 84, dtype: object

>  <hydroph_interaction:GLU:106>  (85) 
hydroph_interaction:GLU:106    NaN
hydroph_interaction:GLU:106     -1
Name: 84, dtype: object

>  <saltbridge:GLU:106>  (85) 
saltbridge:GLU:106    NaN
saltbridge:GLU:106     -1
Name: 84, dtype: object

>  <halogenbond:GLU:106>  (85) 
halogenbond:GLU:106    NaN
halogenbond:GLU:106     -1
Name: 84, dtype: object

>  <hydroph_interaction:PRO:107>  (85) 
hydroph_interaction:PRO:107    0
hydroph_interaction:PRO:107    0
Name: 84, dtype: object

>  <hbond:PRO:107>  (85) 
hbond:PRO:107    0.0
hbond:PRO:107      0
Name: 84, dtype: object

>  <halogenbond:PRO:107>  (85) 
halogenbond:PRO:107    0.0
halogenbond:PRO:107      0
Name: 84, dtype: object

>  <hbond:GLY:108>  (85) 
hbond:GLY:108    NaN
hbond:GLY:108     -1
Name: 84, dtype: object

>  <halogenbond:GLY:108>  (85) 
halogenbond:GLY:108    NaN
halogenbond:GLY:108     -1
Name: 84, dtype: object

>  <hbond:ASP:109>  (85) 
hbond:ASP:109    0.0
hbond:ASP:109      0
Name: 84, dtype: object

>  <hydroph_interaction:ASP:109>  (85) 
hydroph_interaction:ASP:109    0.0
hydroph_interaction:ASP:109      0
Name: 84, dtype: object

>  <saltbridge:ASP:109>  (85) 
saltbridge:ASP:109    NaN
saltbridge:ASP:109     -1
Name: 84, dtype: object

>  <halogenbond:CYS:110>  (85) 
halogenbond:CYS:110    NaN
halogenbond:CYS:110     -1
Name: 84, dtype: object

>  <hbond:CYS:110>  (85) 
hbond:CYS:110    0.0
hbond:CYS:110      0
Name: 84, dtype: object

>  <hbond:GLY:111>  (85) 
hbond:GLY:111    NaN
hbond:GLY:111     -1
Name: 84, dtype: object

>  <hbond:GLY:112>  (85) 
hbond:GLY:112    NaN
hbond:GLY:112     -1
Name: 84, dtype: object

>  <hbond:ILE:113>  (85) 
hbond:ILE:113    NaN
hbond:ILE:113     -1
Name: 84, dtype: object

>  <hydroph_interaction:LEU:114>  (85) 
hydroph_interaction:LEU:114    NaN
hydroph_interaction:LEU:114     -1
Name: 84, dtype: object

>  <hbond:LEU:114>  (85) 
hbond:LEU:114    NaN
hbond:LEU:114     -1
Name: 84, dtype: object

>  <hydroph_interaction:ILE:123>  (85) 
hydroph_interaction:ILE:123    NaN
hydroph_interaction:ILE:123     -1
Name: 84, dtype: object

>  <hbond:ILE:123>  (85) 
hbond:ILE:123    NaN
hbond:ILE:123     -1
Name: 84, dtype: object

>  <hydroph_interaction:VAL:124>  (85) 
hydroph_interaction:VAL:124    0.0
hydroph_interaction:VAL:124      0
Name: 84, dtype: object

>  <hbond:VAL:124>  (85) 
hbond:VAL:124    NaN
hbond:VAL:124     -1
Name: 84, dtype: object

>  <halogenbond:VAL:124>  (85) 
halogenbond:VAL:124    NaN
halogenbond:VAL:124     -1
Name: 84, dtype: object

>  <hbond:SER:125>  (85) 
hbond:SER:125    0
hbond:SER:125    0
Name: 84, dtype: object

>  <halogenbond:SER:125>  (85) 
halogenbond:SER:125    NaN
halogenbond:SER:125     -1
Name: 84, dtype: object

>  <hydroph_interaction:THR:126>  (85) 
hydroph_interaction:THR:126    0.0
hydroph_interaction:THR:126      0
Name: 84, dtype: object

>  <hbond:THR:126>  (85) 
hbond:THR:126    0.0
hbond:THR:126      0
Name: 84, dtype: object

>  <halogenbond:THR:126>  (85) 
halogenbond:THR:126    NaN
halogenbond:THR:126     -1
Name: 84, dtype: object

>  <hbond:GLY:127>  (85) 
hbond:GLY:127    0
hbond:GLY:127    0
Name: 84, dtype: object

>  <halogenbond:GLY:127>  (85) 
halogenbond:GLY:127    0.0
halogenbond:GLY:127      0
Name: 84, dtype: object

>  <hydroph_interaction:GLY:127>  (85) 
hydroph_interaction:GLY:127    NaN
hydroph_interaction:GLY:127     -1
Name: 84, dtype: object

>  <hbond:GLY:128>  (85) 
hbond:GLY:128    NaN
hbond:GLY:128     -1
Name: 84, dtype: object

>  <halogenbond:GLY:128>  (85) 
halogenbond:GLY:128    NaN
halogenbond:GLY:128     -1
Name: 84, dtype: object

>  <hydroph_interaction:GLY:128>  (85) 
hydroph_interaction:GLY:128    NaN
hydroph_interaction:GLY:128     -1
Name: 84, dtype: object

>  <hbond:ASN:129>  (85) 
hbond:ASN:129    NaN
hbond:ASN:129     -1
Name: 84, dtype: object

>  <hydroph_interaction:ASN:129>  (85) 
hydroph_interaction:ASN:129    NaN
hydroph_interaction:ASN:129     -1
Name: 84, dtype: object

>  <halogenbond:ASN:129>  (85) 
halogenbond:ASN:129    NaN
halogenbond:ASN:129     -1
Name: 84, dtype: object

>  <hbond:GLY:130>  (85) 
hbond:GLY:130    NaN
hbond:GLY:130     -1
Name: 84, dtype: object

>  <hbond:LEU:131>  (85) 
hbond:LEU:131    NaN
hbond:LEU:131     -1
Name: 84, dtype: object

>  <hydroph_interaction:LEU:131>  (85) 
hydroph_interaction:LEU:131    NaN
hydroph_interaction:LEU:131     -1
Name: 84, dtype: object

>  <halogenbond:LEU:131>  (85) 
halogenbond:LEU:131    NaN
halogenbond:LEU:131     -1
Name: 84, dtype: object

>  <hydroph_interaction:VAL:132>  (85) 
hydroph_interaction:VAL:132    NaN
hydroph_interaction:VAL:132     -1
Name: 84, dtype: object

>  <hbond:VAL:132>  (85) 
hbond:VAL:132    NaN
hbond:VAL:132     -1
Name: 84, dtype: object

>  <hbond:GLY:133>  (85) 
hbond:GLY:133    NaN
hbond:GLY:133     -1
Name: 84, dtype: object

>  <halogenbond:GLY:133>  (85) 
halogenbond:GLY:133    NaN
halogenbond:GLY:133     -1
Name: 84, dtype: object

>  <hydroph_interaction:PHE:134>  (85) 
hydroph_interaction:PHE:134    NaN
hydroph_interaction:PHE:134     -1
Name: 84, dtype: object

>  <hbond:PHE:134>  (85) 
hbond:PHE:134    NaN
hbond:PHE:134     -1
Name: 84, dtype: object

>  <pistack:PHE:134>  (85) 
pistack:PHE:134    NaN
pistack:PHE:134     -1
Name: 84, dtype: object

>  <pication:PHE:134>  (85) 
pication:PHE:134    NaN
pication:PHE:134     -1
Name: 84, dtype: object

>  <halogenbond:PHE:134>  (85) 
halogenbond:PHE:134    NaN
halogenbond:PHE:134     -1
Name: 84, dtype: object

>  <hydroph_interaction:ALA:135>  (85) 
hydroph_interaction:ALA:135    NaN
hydroph_interaction:ALA:135     -1
Name: 84, dtype: object

>  <hbond:ALA:135>  (85) 
hbond:ALA:135    NaN
hbond:ALA:135     -1
Name: 84, dtype: object

$$$$
PV_002777747718
     RDKit          3D

 27 28  0  0  0  0  0  0  0  0999 V2000
   12.1300   15.1870   21.9480 C   0  0  0  0  0  0  0  0  0  0  0  0
   11.4300   14.1460   22.7870 C   0  0  0  0  0  0  0  0  0  0  0  0
   11.9000   14.0990   24.1980 C   0  0  0  0  0  0  0  0  0  0  0  0
   10.4730   13.3170   22.3510 C   0  0  0  0  0  0  0  0  0  0  0  0
    9.7910   12.3120   23.0650 C   0  0  0  0  0  0  0  0  0  0  0  0
   10.1110   10.8620   22.8150 C   0  0  0  0  0  0  0  0  0  0  0  0
    9.3370    9.9370   23.6080 C   0  0  0  0  0  0  0  0  0  0  0  0
    8.3760   10.2720   24.5240 C   0  0  0  0  0  0  0  0  0  0  0  0
    8.1210   11.6100   24.7100 C   0  0  0  0  0  0  0  0  0  0  0  0
    8.8040   12.5920   24.0090 C   0  0  0  0  0  0  0  0  0  0  0  0
    8.3920   13.8560   24.3530 O   0  0  0  0  0  0  0  0  0  0  0  0
    7.1350   13.6310   25.0280 C   0  0  0  0  0  0  0  0  0  0  0  0
    7.1400   12.2300   25.6210 C   0  0  0  0  0  0  0  0  0  0  0  0
   12.4180   16.0530   22.5540 H   0  0  0  0  0  0  0  0  0  0  0  0
   13.0390   14.7580   21.5210 H   0  0  0  0  0  0  0  0  0  0  0  0
   11.4670   15.5100   21.1410 H   0  0  0  0  0  0  0  0  0  0  0  0
   12.3150   15.0580   24.5320 H   0  0  0  0  0  0  0  0  0  0  0  0
   12.7000   13.3530   24.2950 H   0  0  0  0  0  0  0  0  0  0  0  0
   11.0740   13.8350   24.8630 H   0  0  0  0  0  0  0  0  0  0  0  0
   10.1830   13.4270   21.3180 H   0  0  0  0  0  0  0  0  0  0  0  0
   10.8520   10.5260   22.1040 H   0  0  0  0  0  0  0  0  0  0  0  0
    9.6020    8.9060   23.3960 H   0  0  0  0  0  0  0  0  0  0  0  0
    7.8380    9.5180   25.0750 H   0  0  0  0  0  0  0  0  0  0  0  0
    6.3100   13.7620   24.3170 H   0  0  0  0  0  0  0  0  0  0  0  0
    7.0300   14.3940   25.8120 H   0  0  0  0  0  0  0  0  0  0  0  0
    6.1500   11.7680   25.5880 H   0  0  0  0  0  0  0  0  0  0  0  0
    7.5120   12.2430   26.6430 H   0  0  0  0  0  0  0  0  0  0  0  0
  1  2  1  0
  2  3  1  0
  2  4  2  3
  4  5  1  0
  5  6  2  0
  6  7  1  0
  7  8  2  0
  8  9  1  0
  9 10  2  0
 10 11  1  0
 11 12  1  0
 12 13  1  0
 10  5  1  0
 13  9  1  0
  1 14  1  0
  1 15  1  0
  1 16  1  0
  3 17  1  0
  3 18  1  0
  3 19  1  0
  4 20  1  0
  6 21  1  0
  7 22  1  0
  8 23  1  0
 12 24  1  0
 12 25  1  0
 13 26  1  0
 13 27  1  0
A    1
 C1 
A    2
 C2 
A    3
 C3 
A    4
 C4 
A    5
 C5 
A    6
 C6 
A    7
 C7 
A    8
 C8 
A    9
 C9 
A   10
 C10
A   11
 O1 
A   12
 C11
A   13
 C12
A   14
 H1 
A   15
 H2 
A   16
 H3 
A   17
 H4 
A   18
 H5 
A   19
 H6 
A   20
 H7 
A   21
 H8 
A   22
 H9 
A   23
 H10
A   24
 H11
A   25
 H12
A   26
 H13
A   27
 H14
M  END
>  <ref_pdb>  (86) 
x0310_0A

>  <ref_mols>  (86) 
x0554_0A,x0739_0A

>  <original SMILES>  (86) 
CC(C)=Cc1cccc2c1OCC2

>  <rationale>  (86) 
info halogenbond:C110+G127+A86+S125+E85+Q95+E106+E88+T126+P107+H104+Y64+C65+S87+N129+F83+R93+L131+I82+G128+P91+N19+H21+V84+G133+Y90+Y89+H97+L81+F134+L98+R20+G103+S66+S67+S7+G108+R38+V124+M99+S36; hbond:Q95+D39+A86+C110+D109+E85+G108+G103+G128+G130+L131+N129+N19+H104+R68+V124+P91+F83+S67+S7+S66+G112+G133+V132+R20+Y89+S77+A135+Y63+A92+A101+M99+F134+L100+I82+Y64+S36+L98+V84+L81+Y94+S80+R38+S37+V102+G8+I123+G111+I113+L114+C65+L22+S96; hydroph_interaction:V84+P107+E85+E88+D109+N129+L40+I123+A135+Q95+I82+L100+L98+L131+F83+R93+V132+Y63+F134+H104+R20+A86+V74+P91+A101+F76+M99+L114+A92+Y94+R68+Y72+Y64+V18+V102+W28+G127+G128+L81; pication:H104+R93+Y63+F134+Y90+R68+F83+R20; pistack:H21+Y89+Y90+H104+F134+Y63+F83+Y94; saltbridge:D39+R93+H104+E106+D109+E85+E88+R68+R20; 

>  <intxn_cluster>  (86) 
-1

>  <intxn_cluster_rank>  (86) 
-1

>  <N_interactions>  (86) 
2

>  <∆∆G>  (86) 
-9.349327

>  <$/mg>  (86) 
163.0

>  <comRMSD>  (86) 
0.747471

>  <N_rotatable_bonds>  (86) 
3

>  <deep_P1_sidechain>  (86) 
nan

>  <farthest_distance_to_substrate>  (86) 
2.40961

>  <hbond:SER:7>  (86) 
hbond:SER:7    NaN
hbond:SER:7     -1
Name: 85, dtype: object

>  <halogenbond:SER:7>  (86) 
halogenbond:SER:7    NaN
halogenbond:SER:7     -1
Name: 85, dtype: object

>  <hbond:GLY:8>  (86) 
hbond:GLY:8    NaN
hbond:GLY:8     -1
Name: 85, dtype: object

>  <hydroph_interaction:VAL:18>  (86) 
hydroph_interaction:VAL:18    NaN
hydroph_interaction:VAL:18     -1
Name: 85, dtype: object

>  <hbond:ASN:19>  (86) 
hbond:ASN:19    NaN
hbond:ASN:19     -1
Name: 85, dtype: object

>  <hydroph_interaction:ASN:19>  (86) 
hydroph_interaction:ASN:19    0.0
hydroph_interaction:ASN:19      0
Name: 85, dtype: object

>  <halogenbond:ASN:19>  (86) 
halogenbond:ASN:19    NaN
halogenbond:ASN:19     -1
Name: 85, dtype: object

>  <hbond:ARG:20>  (86) 
hbond:ARG:20    NaN
hbond:ARG:20     -1
Name: 85, dtype: object

>  <hydroph_interaction:ARG:20>  (86) 
hydroph_interaction:ARG:20    NaN
hydroph_interaction:ARG:20     -1
Name: 85, dtype: object

>  <saltbridge:ARG:20>  (86) 
saltbridge:ARG:20    NaN
saltbridge:ARG:20     -1
Name: 85, dtype: object

>  <halogenbond:ARG:20>  (86) 
halogenbond:ARG:20    NaN
halogenbond:ARG:20     -1
Name: 85, dtype: object

>  <pication:ARG:20>  (86) 
pication:ARG:20    NaN
pication:ARG:20     -1
Name: 85, dtype: object

>  <hbond:HIS:21>  (86) 
hbond:HIS:21    0.0
hbond:HIS:21      0
Name: 85, dtype: object

>  <hydroph_interaction:HIS:21>  (86) 
hydroph_interaction:HIS:21    0.0
hydroph_interaction:HIS:21      0
Name: 85, dtype: object

>  <pistack:HIS:21>  (86) 
pistack:HIS:21    NaN
pistack:HIS:21     -1
Name: 85, dtype: object

>  <pication:HIS:21>  (86) 
pication:HIS:21    0.0
pication:HIS:21      0
Name: 85, dtype: object

>  <saltbridge:HIS:21>  (86) 
saltbridge:HIS:21    0.0
saltbridge:HIS:21      0
Name: 85, dtype: object

>  <halogenbond:HIS:21>  (86) 
halogenbond:HIS:21    NaN
halogenbond:HIS:21     -1
Name: 85, dtype: object

>  <hydroph_interaction:LEU:22>  (86) 
hydroph_interaction:LEU:22    0.0
hydroph_interaction:LEU:22      0
Name: 85, dtype: object

>  <hbond:LEU:22>  (86) 
hbond:LEU:22    NaN
hbond:LEU:22     -1
Name: 85, dtype: object

>  <hydroph_interaction:TRP:28>  (86) 
hydroph_interaction:TRP:28    NaN
hydroph_interaction:TRP:28     -1
Name: 85, dtype: object

>  <hbond:SER:36>  (86) 
hbond:SER:36    NaN
hbond:SER:36     -1
Name: 85, dtype: object

>  <halogenbond:SER:36>  (86) 
halogenbond:SER:36    NaN
halogenbond:SER:36     -1
Name: 85, dtype: object

>  <hbond:SER:37>  (86) 
hbond:SER:37    NaN
hbond:SER:37     -1
Name: 85, dtype: object

>  <hbond:ARG:38>  (86) 
hbond:ARG:38    NaN
hbond:ARG:38     -1
Name: 85, dtype: object

>  <halogenbond:ARG:38>  (86) 
halogenbond:ARG:38    NaN
halogenbond:ARG:38     -1
Name: 85, dtype: object

>  <saltbridge:ASP:39>  (86) 
saltbridge:ASP:39    NaN
saltbridge:ASP:39     -1
Name: 85, dtype: object

>  <halogenbond:ASP:39>  (86) 
halogenbond:ASP:39    0.0
halogenbond:ASP:39      0
Name: 85, dtype: object

>  <hbond:ASP:39>  (86) 
hbond:ASP:39    NaN
hbond:ASP:39     -1
Name: 85, dtype: object

>  <hydroph_interaction:ASP:39>  (86) 
hydroph_interaction:ASP:39    0.0
hydroph_interaction:ASP:39      0
Name: 85, dtype: object

>  <hydroph_interaction:LEU:40>  (86) 
hydroph_interaction:LEU:40    NaN
hydroph_interaction:LEU:40     -1
Name: 85, dtype: object

>  <hydroph_interaction:TYR:63>  (86) 
hydroph_interaction:TYR:63    NaN
hydroph_interaction:TYR:63     -1
Name: 85, dtype: object

>  <hbond:TYR:63>  (86) 
hbond:TYR:63    NaN
hbond:TYR:63     -1
Name: 85, dtype: object

>  <pistack:TYR:63>  (86) 
pistack:TYR:63    NaN
pistack:TYR:63     -1
Name: 85, dtype: object

>  <pication:TYR:63>  (86) 
pication:TYR:63    NaN
pication:TYR:63     -1
Name: 85, dtype: object

>  <halogenbond:TYR:64>  (86) 
halogenbond:TYR:64    NaN
halogenbond:TYR:64     -1
Name: 85, dtype: object

>  <hbond:TYR:64>  (86) 
hbond:TYR:64    NaN
hbond:TYR:64     -1
Name: 85, dtype: object

>  <hydroph_interaction:TYR:64>  (86) 
hydroph_interaction:TYR:64    NaN
hydroph_interaction:TYR:64     -1
Name: 85, dtype: object

>  <halogenbond:CYS:65>  (86) 
halogenbond:CYS:65    NaN
halogenbond:CYS:65     -1
Name: 85, dtype: object

>  <hbond:CYS:65>  (86) 
hbond:CYS:65    NaN
hbond:CYS:65     -1
Name: 85, dtype: object

>  <hbond:SER:66>  (86) 
hbond:SER:66    NaN
hbond:SER:66     -1
Name: 85, dtype: object

>  <halogenbond:SER:66>  (86) 
halogenbond:SER:66    NaN
halogenbond:SER:66     -1
Name: 85, dtype: object

>  <hbond:SER:67>  (86) 
hbond:SER:67    NaN
hbond:SER:67     -1
Name: 85, dtype: object

>  <halogenbond:SER:67>  (86) 
halogenbond:SER:67    NaN
halogenbond:SER:67     -1
Name: 85, dtype: object

>  <hbond:ARG:68>  (86) 
hbond:ARG:68    NaN
hbond:ARG:68     -1
Name: 85, dtype: object

>  <saltbridge:ARG:68>  (86) 
saltbridge:ARG:68    NaN
saltbridge:ARG:68     -1
Name: 85, dtype: object

>  <hydroph_interaction:ARG:68>  (86) 
hydroph_interaction:ARG:68    NaN
hydroph_interaction:ARG:68     -1
Name: 85, dtype: object

>  <pication:ARG:68>  (86) 
pication:ARG:68    NaN
pication:ARG:68     -1
Name: 85, dtype: object

>  <hydroph_interaction:TYR:72>  (86) 
hydroph_interaction:TYR:72    NaN
hydroph_interaction:TYR:72     -1
Name: 85, dtype: object

>  <hydroph_interaction:VAL:74>  (86) 
hydroph_interaction:VAL:74    NaN
hydroph_interaction:VAL:74     -1
Name: 85, dtype: object

>  <hydroph_interaction:PHE:76>  (86) 
hydroph_interaction:PHE:76    NaN
hydroph_interaction:PHE:76     -1
Name: 85, dtype: object

>  <hbond:SER:77>  (86) 
hbond:SER:77    NaN
hbond:SER:77     -1
Name: 85, dtype: object

>  <hbond:SER:80>  (86) 
hbond:SER:80    NaN
hbond:SER:80     -1
Name: 85, dtype: object

>  <hbond:LEU:81>  (86) 
hbond:LEU:81    NaN
hbond:LEU:81     -1
Name: 85, dtype: object

>  <halogenbond:LEU:81>  (86) 
halogenbond:LEU:81    NaN
halogenbond:LEU:81     -1
Name: 85, dtype: object

>  <hydroph_interaction:LEU:81>  (86) 
hydroph_interaction:LEU:81    NaN
hydroph_interaction:LEU:81     -1
Name: 85, dtype: object

>  <hydroph_interaction:ILE:82>  (86) 
hydroph_interaction:ILE:82    NaN
hydroph_interaction:ILE:82     -1
Name: 85, dtype: object

>  <halogenbond:ILE:82>  (86) 
halogenbond:ILE:82    NaN
halogenbond:ILE:82     -1
Name: 85, dtype: object

>  <hbond:ILE:82>  (86) 
hbond:ILE:82    NaN
hbond:ILE:82     -1
Name: 85, dtype: object

>  <hbond:PHE:83>  (86) 
hbond:PHE:83    NaN
hbond:PHE:83     -1
Name: 85, dtype: object

>  <hydroph_interaction:PHE:83>  (86) 
hydroph_interaction:PHE:83    NaN
hydroph_interaction:PHE:83     -1
Name: 85, dtype: object

>  <halogenbond:PHE:83>  (86) 
halogenbond:PHE:83    NaN
halogenbond:PHE:83     -1
Name: 85, dtype: object

>  <pistack:PHE:83>  (86) 
pistack:PHE:83    NaN
pistack:PHE:83     -1
Name: 85, dtype: object

>  <pication:PHE:83>  (86) 
pication:PHE:83    NaN
pication:PHE:83     -1
Name: 85, dtype: object

>  <hydroph_interaction:VAL:84>  (86) 
hydroph_interaction:VAL:84    NaN
hydroph_interaction:VAL:84     -1
Name: 85, dtype: object

>  <halogenbond:VAL:84>  (86) 
halogenbond:VAL:84    NaN
halogenbond:VAL:84     -1
Name: 85, dtype: object

>  <hbond:VAL:84>  (86) 
hbond:VAL:84    NaN
hbond:VAL:84     -1
Name: 85, dtype: object

>  <hydroph_interaction:GLU:85>  (86) 
hydroph_interaction:GLU:85    NaN
hydroph_interaction:GLU:85     -1
Name: 85, dtype: object

>  <hbond:GLU:85>  (86) 
hbond:GLU:85    NaN
hbond:GLU:85     -1
Name: 85, dtype: object

>  <halogenbond:GLU:85>  (86) 
halogenbond:GLU:85    NaN
halogenbond:GLU:85     -1
Name: 85, dtype: object

>  <saltbridge:GLU:85>  (86) 
saltbridge:GLU:85    NaN
saltbridge:GLU:85     -1
Name: 85, dtype: object

>  <halogenbond:ALA:86>  (86) 
halogenbond:ALA:86    NaN
halogenbond:ALA:86     -1
Name: 85, dtype: object

>  <hbond:ALA:86>  (86) 
hbond:ALA:86    NaN
hbond:ALA:86     -1
Name: 85, dtype: object

>  <hydroph_interaction:ALA:86>  (86) 
hydroph_interaction:ALA:86    NaN
hydroph_interaction:ALA:86     -1
Name: 85, dtype: object

>  <hbond:SER:87>  (86) 
hbond:SER:87    0
hbond:SER:87    0
Name: 85, dtype: object

>  <halogenbond:SER:87>  (86) 
halogenbond:SER:87    NaN
halogenbond:SER:87     -1
Name: 85, dtype: object

>  <hbond:GLU:88>  (86) 
hbond:GLU:88    0.0
hbond:GLU:88      0
Name: 85, dtype: object

>  <hydroph_interaction:GLU:88>  (86) 
hydroph_interaction:GLU:88    NaN
hydroph_interaction:GLU:88     -1
Name: 85, dtype: object

>  <halogenbond:GLU:88>  (86) 
halogenbond:GLU:88    NaN
halogenbond:GLU:88     -1
Name: 85, dtype: object

>  <saltbridge:GLU:88>  (86) 
saltbridge:GLU:88    NaN
saltbridge:GLU:88     -1
Name: 85, dtype: object

>  <hydroph_interaction:TYR:89>  (86) 
hydroph_interaction:TYR:89    0.0
hydroph_interaction:TYR:89      0
Name: 85, dtype: object

>  <pistack:TYR:89>  (86) 
pistack:TYR:89    NaN
pistack:TYR:89     -1
Name: 85, dtype: object

>  <hbond:TYR:89>  (86) 
hbond:TYR:89    NaN
hbond:TYR:89     -1
Name: 85, dtype: object

>  <halogenbond:TYR:89>  (86) 
halogenbond:TYR:89    NaN
halogenbond:TYR:89     -1
Name: 85, dtype: object

>  <hydroph_interaction:TYR:90>  (86) 
hydroph_interaction:TYR:90    0.0
hydroph_interaction:TYR:90      0
Name: 85, dtype: object

>  <hbond:TYR:90>  (86) 
hbond:TYR:90    0.0
hbond:TYR:90      0
Name: 85, dtype: object

>  <pistack:TYR:90>  (86) 
pistack:TYR:90    NaN
pistack:TYR:90     -1
Name: 85, dtype: object

>  <halogenbond:TYR:90>  (86) 
halogenbond:TYR:90    NaN
halogenbond:TYR:90     -1
Name: 85, dtype: object

>  <pication:TYR:90>  (86) 
pication:TYR:90    NaN
pication:TYR:90     -1
Name: 85, dtype: object

>  <hbond:PRO:91>  (86) 
hbond:PRO:91    NaN
hbond:PRO:91     -1
Name: 85, dtype: object

>  <hydroph_interaction:PRO:91>  (86) 
hydroph_interaction:PRO:91    NaN
hydroph_interaction:PRO:91     -1
Name: 85, dtype: object

>  <halogenbond:PRO:91>  (86) 
halogenbond:PRO:91    NaN
halogenbond:PRO:91     -1
Name: 85, dtype: object

>  <hbond:ALA:92>  (86) 
hbond:ALA:92    NaN
hbond:ALA:92     -1
Name: 85, dtype: object

>  <hydroph_interaction:ALA:92>  (86) 
hydroph_interaction:ALA:92    NaN
hydroph_interaction:ALA:92     -1
Name: 85, dtype: object

>  <saltbridge:ARG:93>  (86) 
saltbridge:ARG:93    NaN
saltbridge:ARG:93     -1
Name: 85, dtype: object

>  <hbond:ARG:93>  (86) 
hbond:ARG:93    0.0
hbond:ARG:93      0
Name: 85, dtype: object

>  <hydroph_interaction:ARG:93>  (86) 
hydroph_interaction:ARG:93    NaN
hydroph_interaction:ARG:93     -1
Name: 85, dtype: object

>  <halogenbond:ARG:93>  (86) 
halogenbond:ARG:93    NaN
halogenbond:ARG:93     -1
Name: 85, dtype: object

>  <pication:ARG:93>  (86) 
pication:ARG:93    NaN
pication:ARG:93     -1
Name: 85, dtype: object

>  <hydroph_interaction:TYR:94>  (86) 
hydroph_interaction:TYR:94    NaN
hydroph_interaction:TYR:94     -1
Name: 85, dtype: object

>  <pistack:TYR:94>  (86) 
pistack:TYR:94    NaN
pistack:TYR:94     -1
Name: 85, dtype: object

>  <hbond:TYR:94>  (86) 
hbond:TYR:94    NaN
hbond:TYR:94     -1
Name: 85, dtype: object

>  <hbond:GLN:95>  (86) 
hbond:GLN:95    NaN
hbond:GLN:95     -1
Name: 85, dtype: object

>  <hydroph_interaction:GLN:95>  (86) 
hydroph_interaction:GLN:95    NaN
hydroph_interaction:GLN:95     -1
Name: 85, dtype: object

>  <halogenbond:GLN:95>  (86) 
halogenbond:GLN:95    NaN
halogenbond:GLN:95     -1
Name: 85, dtype: object

>  <hbond:SER:96>  (86) 
hbond:SER:96    NaN
hbond:SER:96     -1
Name: 85, dtype: object

>  <halogenbond:HIS:97>  (86) 
halogenbond:HIS:97    NaN
halogenbond:HIS:97     -1
Name: 85, dtype: object

>  <hydroph_interaction:LEU:98>  (86) 
hydroph_interaction:LEU:98    NaN
hydroph_interaction:LEU:98     -1
Name: 85, dtype: object

>  <hbond:LEU:98>  (86) 
hbond:LEU:98    NaN
hbond:LEU:98     -1
Name: 85, dtype: object

>  <halogenbond:LEU:98>  (86) 
halogenbond:LEU:98    NaN
halogenbond:LEU:98     -1
Name: 85, dtype: object

>  <hbond:MET:99>  (86) 
hbond:MET:99    NaN
hbond:MET:99     -1
Name: 85, dtype: object

>  <hydroph_interaction:MET:99>  (86) 
hydroph_interaction:MET:99    NaN
hydroph_interaction:MET:99     -1
Name: 85, dtype: object

>  <halogenbond:MET:99>  (86) 
halogenbond:MET:99    NaN
halogenbond:MET:99     -1
Name: 85, dtype: object

>  <hydroph_interaction:LEU:100>  (86) 
hydroph_interaction:LEU:100    NaN
hydroph_interaction:LEU:100     -1
Name: 85, dtype: object

>  <hbond:LEU:100>  (86) 
hbond:LEU:100    NaN
hbond:LEU:100     -1
Name: 85, dtype: object

>  <hbond:ALA:101>  (86) 
hbond:ALA:101    NaN
hbond:ALA:101     -1
Name: 85, dtype: object

>  <hydroph_interaction:ALA:101>  (86) 
hydroph_interaction:ALA:101    NaN
hydroph_interaction:ALA:101     -1
Name: 85, dtype: object

>  <hydroph_interaction:VAL:102>  (86) 
hydroph_interaction:VAL:102    NaN
hydroph_interaction:VAL:102     -1
Name: 85, dtype: object

>  <hbond:VAL:102>  (86) 
hbond:VAL:102    NaN
hbond:VAL:102     -1
Name: 85, dtype: object

>  <hbond:GLY:103>  (86) 
hbond:GLY:103    NaN
hbond:GLY:103     -1
Name: 85, dtype: object

>  <halogenbond:GLY:103>  (86) 
halogenbond:GLY:103    NaN
halogenbond:GLY:103     -1
Name: 85, dtype: object

>  <hbond:HIS:104>  (86) 
hbond:HIS:104    NaN
hbond:HIS:104     -1
Name: 85, dtype: object

>  <saltbridge:HIS:104>  (86) 
saltbridge:HIS:104    NaN
saltbridge:HIS:104     -1
Name: 85, dtype: object

>  <pication:HIS:104>  (86) 
pication:HIS:104    NaN
pication:HIS:104     -1
Name: 85, dtype: object

>  <halogenbond:HIS:104>  (86) 
halogenbond:HIS:104    NaN
halogenbond:HIS:104     -1
Name: 85, dtype: object

>  <hydroph_interaction:HIS:104>  (86) 
hydroph_interaction:HIS:104    NaN
hydroph_interaction:HIS:104     -1
Name: 85, dtype: object

>  <pistack:HIS:104>  (86) 
pistack:HIS:104    NaN
pistack:HIS:104     -1
Name: 85, dtype: object

>  <halogenbond:SER:105>  (86) 
halogenbond:SER:105    0.0
halogenbond:SER:105      0
Name: 85, dtype: object

>  <hbond:SER:105>  (86) 
hbond:SER:105    0.0
hbond:SER:105      0
Name: 85, dtype: object

>  <hbond:GLU:106>  (86) 
hbond:GLU:106    0.0
hbond:GLU:106      0
Name: 85, dtype: object

>  <hydroph_interaction:GLU:106>  (86) 
hydroph_interaction:GLU:106    0.0
hydroph_interaction:GLU:106      0
Name: 85, dtype: object

>  <saltbridge:GLU:106>  (86) 
saltbridge:GLU:106    NaN
saltbridge:GLU:106     -1
Name: 85, dtype: object

>  <halogenbond:GLU:106>  (86) 
halogenbond:GLU:106    NaN
halogenbond:GLU:106     -1
Name: 85, dtype: object

>  <hydroph_interaction:PRO:107>  (86) 
hydroph_interaction:PRO:107    2
hydroph_interaction:PRO:107    2
Name: 85, dtype: object

>  <hbond:PRO:107>  (86) 
hbond:PRO:107    0.0
hbond:PRO:107      0
Name: 85, dtype: object

>  <halogenbond:PRO:107>  (86) 
halogenbond:PRO:107    NaN
halogenbond:PRO:107     -1
Name: 85, dtype: object

>  <hbond:GLY:108>  (86) 
hbond:GLY:108    NaN
hbond:GLY:108     -1
Name: 85, dtype: object

>  <halogenbond:GLY:108>  (86) 
halogenbond:GLY:108    NaN
halogenbond:GLY:108     -1
Name: 85, dtype: object

>  <hbond:ASP:109>  (86) 
hbond:ASP:109    NaN
hbond:ASP:109     -1
Name: 85, dtype: object

>  <hydroph_interaction:ASP:109>  (86) 
hydroph_interaction:ASP:109    NaN
hydroph_interaction:ASP:109     -1
Name: 85, dtype: object

>  <saltbridge:ASP:109>  (86) 
saltbridge:ASP:109    NaN
saltbridge:ASP:109     -1
Name: 85, dtype: object

>  <halogenbond:CYS:110>  (86) 
halogenbond:CYS:110    NaN
halogenbond:CYS:110     -1
Name: 85, dtype: object

>  <hbond:CYS:110>  (86) 
hbond:CYS:110    NaN
hbond:CYS:110     -1
Name: 85, dtype: object

>  <hbond:GLY:111>  (86) 
hbond:GLY:111    NaN
hbond:GLY:111     -1
Name: 85, dtype: object

>  <hbond:GLY:112>  (86) 
hbond:GLY:112    NaN
hbond:GLY:112     -1
Name: 85, dtype: object

>  <hbond:ILE:113>  (86) 
hbond:ILE:113    NaN
hbond:ILE:113     -1
Name: 85, dtype: object

>  <hydroph_interaction:LEU:114>  (86) 
hydroph_interaction:LEU:114    NaN
hydroph_interaction:LEU:114     -1
Name: 85, dtype: object

>  <hbond:LEU:114>  (86) 
hbond:LEU:114    NaN
hbond:LEU:114     -1
Name: 85, dtype: object

>  <hydroph_interaction:ILE:123>  (86) 
hydroph_interaction:ILE:123    NaN
hydroph_interaction:ILE:123     -1
Name: 85, dtype: object

>  <hbond:ILE:123>  (86) 
hbond:ILE:123    NaN
hbond:ILE:123     -1
Name: 85, dtype: object

>  <hydroph_interaction:VAL:124>  (86) 
hydroph_interaction:VAL:124    0.0
hydroph_interaction:VAL:124      0
Name: 85, dtype: object

>  <hbond:VAL:124>  (86) 
hbond:VAL:124    NaN
hbond:VAL:124     -1
Name: 85, dtype: object

>  <halogenbond:VAL:124>  (86) 
halogenbond:VAL:124    NaN
halogenbond:VAL:124     -1
Name: 85, dtype: object

>  <hbond:SER:125>  (86) 
hbond:SER:125    0
hbond:SER:125    0
Name: 85, dtype: object

>  <halogenbond:SER:125>  (86) 
halogenbond:SER:125    NaN
halogenbond:SER:125     -1
Name: 85, dtype: object

>  <hydroph_interaction:THR:126>  (86) 
hydroph_interaction:THR:126    0.0
hydroph_interaction:THR:126      0
Name: 85, dtype: object

>  <hbond:THR:126>  (86) 
hbond:THR:126    0.0
hbond:THR:126      0
Name: 85, dtype: object

>  <halogenbond:THR:126>  (86) 
halogenbond:THR:126    NaN
halogenbond:THR:126     -1
Name: 85, dtype: object

>  <hbond:GLY:127>  (86) 
hbond:GLY:127    0
hbond:GLY:127    0
Name: 85, dtype: object

>  <halogenbond:GLY:127>  (86) 
halogenbond:GLY:127    NaN
halogenbond:GLY:127     -1
Name: 85, dtype: object

>  <hydroph_interaction:GLY:127>  (86) 
hydroph_interaction:GLY:127    NaN
hydroph_interaction:GLY:127     -1
Name: 85, dtype: object

>  <hbond:GLY:128>  (86) 
hbond:GLY:128    NaN
hbond:GLY:128     -1
Name: 85, dtype: object

>  <halogenbond:GLY:128>  (86) 
halogenbond:GLY:128    NaN
halogenbond:GLY:128     -1
Name: 85, dtype: object

>  <hydroph_interaction:GLY:128>  (86) 
hydroph_interaction:GLY:128    NaN
hydroph_interaction:GLY:128     -1
Name: 85, dtype: object

>  <hbond:ASN:129>  (86) 
hbond:ASN:129    NaN
hbond:ASN:129     -1
Name: 85, dtype: object

>  <hydroph_interaction:ASN:129>  (86) 
hydroph_interaction:ASN:129    NaN
hydroph_interaction:ASN:129     -1
Name: 85, dtype: object

>  <halogenbond:ASN:129>  (86) 
halogenbond:ASN:129    NaN
halogenbond:ASN:129     -1
Name: 85, dtype: object

>  <hbond:GLY:130>  (86) 
hbond:GLY:130    NaN
hbond:GLY:130     -1
Name: 85, dtype: object

>  <hbond:LEU:131>  (86) 
hbond:LEU:131    NaN
hbond:LEU:131     -1
Name: 85, dtype: object

>  <hydroph_interaction:LEU:131>  (86) 
hydroph_interaction:LEU:131    NaN
hydroph_interaction:LEU:131     -1
Name: 85, dtype: object

>  <halogenbond:LEU:131>  (86) 
halogenbond:LEU:131    NaN
halogenbond:LEU:131     -1
Name: 85, dtype: object

>  <hydroph_interaction:VAL:132>  (86) 
hydroph_interaction:VAL:132    NaN
hydroph_interaction:VAL:132     -1
Name: 85, dtype: object

>  <hbond:VAL:132>  (86) 
hbond:VAL:132    NaN
hbond:VAL:132     -1
Name: 85, dtype: object

>  <hbond:GLY:133>  (86) 
hbond:GLY:133    NaN
hbond:GLY:133     -1
Name: 85, dtype: object

>  <halogenbond:GLY:133>  (86) 
halogenbond:GLY:133    NaN
halogenbond:GLY:133     -1
Name: 85, dtype: object

>  <hydroph_interaction:PHE:134>  (86) 
hydroph_interaction:PHE:134    NaN
hydroph_interaction:PHE:134     -1
Name: 85, dtype: object

>  <hbond:PHE:134>  (86) 
hbond:PHE:134    NaN
hbond:PHE:134     -1
Name: 85, dtype: object

>  <pistack:PHE:134>  (86) 
pistack:PHE:134    NaN
pistack:PHE:134     -1
Name: 85, dtype: object

>  <pication:PHE:134>  (86) 
pication:PHE:134    NaN
pication:PHE:134     -1
Name: 85, dtype: object

>  <halogenbond:PHE:134>  (86) 
halogenbond:PHE:134    NaN
halogenbond:PHE:134     -1
Name: 85, dtype: object

>  <hydroph_interaction:ALA:135>  (86) 
hydroph_interaction:ALA:135    NaN
hydroph_interaction:ALA:135     -1
Name: 85, dtype: object

>  <hbond:ALA:135>  (86) 
hbond:ALA:135    NaN
hbond:ALA:135     -1
Name: 85, dtype: object

$$$$
Z4342066885
     RDKit          3D

 30 31  0  0  0  0  0  0  0  0999 V2000
   12.0820   15.7680   21.6030 C   0  0  0  0  0  0  0  0  0  0  0  0
   11.2750   14.5200   21.8230 C   0  0  0  0  0  0  0  0  0  0  0  0
   10.8770   13.9400   23.1380 C   0  0  0  0  0  0  0  0  0  0  0  0
   11.2720   14.5920   24.2880 C   0  0  0  0  0  0  0  0  0  0  0  0
   10.1390   12.7270   23.3880 C   0  0  0  0  0  0  0  0  0  0  0  0
   10.5070   11.6070   22.7750 N   0  0  0  0  0  0  0  0  0  0  0  0
    9.6990   10.6620   23.2260 N   0  0  0  0  0  0  0  0  0  0  0  0
    9.8800    9.3340   22.7370 C   0  0  0  0  0  0  0  0  0  0  0  0
    8.7840   11.1030   24.1260 C   0  0  0  0  0  0  0  0  0  0  0  0
    7.7690   10.4910   24.8640 C   0  0  0  0  0  0  0  0  0  0  0  0
    6.9720   11.2230   25.7250 C   0  0  0  0  0  0  0  0  0  0  0  0
    5.9730   10.5590   26.4490 N   0  0  0  0  0  0  0  0  0  0  0  0
    7.1800   12.5870   25.8520 C   0  0  0  0  0  0  0  0  0  0  0  0
    8.2030   13.2050   25.1180 C   0  0  0  0  0  0  0  0  0  0  0  0
    9.0210   12.4820   24.2560 C   0  0  0  0  0  0  0  0  0  0  0  0
   12.8670   15.5580   20.8710 H   0  0  0  0  0  0  0  0  0  0  0  0
   11.4350   16.5420   21.1900 H   0  0  0  0  0  0  0  0  0  0  0  0
   12.5660   16.1340   22.5130 H   0  0  0  0  0  0  0  0  0  0  0  0
   10.9820   14.0210   20.9050 H   0  0  0  0  0  0  0  0  0  0  0  0
   12.0300   14.0090   24.8040 H   0  0  0  0  0  0  0  0  0  0  0  0
   11.7150   15.5720   24.0850 H   0  0  0  0  0  0  0  0  0  0  0  0
   10.4330   14.7760   24.9690 H   0  0  0  0  0  0  0  0  0  0  0  0
   10.5090    8.7890   23.4220 H   0  0  0  0  0  0  0  0  0  0  0  0
    8.9060    8.8620   22.6240 H   0  0  0  0  0  0  0  0  0  0  0  0
   10.3340    9.3800   21.7430 H   0  0  0  0  0  0  0  0  0  0  0  0
    7.6050    9.4290   24.7610 H   0  0  0  0  0  0  0  0  0  0  0  0
    5.8670   10.8950   27.4010 H   0  0  0  0  0  0  0  0  0  0  0  0
    6.0840    9.5390   26.4130 H   0  0  0  0  0  0  0  0  0  0  0  0
    6.5570   13.1750   26.5200 H   0  0  0  0  0  0  0  0  0  0  0  0
    8.3540   14.2760   25.2380 H   0  0  0  0  0  0  0  0  0  0  0  0
  1  2  1  0
  2  3  2  3
  3  4  1  0
  3  5  1  0
  5  6  2  0
  6  7  1  0
  7  8  1  0
  7  9  1  0
  9 10  2  0
 10 11  1  0
 11 12  1  0
 11 13  2  0
 13 14  1  0
 14 15  2  0
 15  5  1  0
 15  9  1  0
  1 16  1  0
  1 17  1  0
  1 18  1  0
  2 19  1  0
  4 20  1  0
  4 21  1  0
  4 22  1  0
  8 23  1  0
  8 24  1  0
  8 25  1  0
 10 26  1  0
 12 27  1  0
 12 28  1  0
 13 29  1  0
 14 30  1  0
A    1
 C1 
A    2
 C2 
A    3
 C3 
A    4
 C4 
A    5
 C5 
A    6
 N1 
A    7
 N2 
A    8
 C6 
A    9
 C7 
A   10
 C8 
A   11
 C9 
A   12
 N3 
A   13
 C10
A   14
 C11
A   15
 C12
A   16
 H1 
A   17
 H2 
A   18
 H3 
A   19
 H4 
A   20
 H5 
A   21
 H6 
A   22
 H7 
A   23
 H8 
A   24
 H9 
A   25
 H10
A   26
 H11
A   27
 H12
A   28
 H13
A   29
 H14
A   30
 H15
M  END
>  <ref_pdb>  (87) 
x0310_0A

>  <ref_mols>  (87) 
x0451_0A,x0528_0A

>  <original SMILES>  (87) 
CC=C(C)c1nn(C)c2cc(N)ccc12

>  <rationale>  (87) 
info halogenbond:C110+G127+D39+A86+S125+E85+Q95+E106+E88+T126+P107+H104+Y64+C65+S87+N129+F83+R93+L131+I82+G128+P91+N19+H21+V84+G133+Y90+Y89+H97+L81+F134+L98+R20+G103+S66+S67+S7+G108+R38+V124+M99+S36; hbond:S105+Q95+A86+E85+G108+G103+G128+G130+L131+N129+N19+H104+R68+V124+R93+P91+F83+S67+S7+S66+G112+G133+V132+R20+Y89+S77+A135+Y63+A92+A101+M99+F134+L100+I82+Y64+S36+L98+V84+L81+Y94+S80+R38+S37+V102+G8+I123+G111+I113+L114+C65+L22+S96; hydroph_interaction:Y90+T126+P107+E85+E88+D109+N129+D39+L40+I123+A135+Q95+I82+L100+L98+L131+F83+R93+Y63+F134+H104+R20+A86+V74+P91+A101+F76+M99+L114+A92+Y94+R68+Y72+Y64+V18+V102+W28+G127+G128+L81; pication:H104+R93+Y63+F134+Y90+R68+F83+R20; pistack:H21+Y90+H104+F134+Y63+F83+Y94; saltbridge:D39+R93+H104+E106+D109+E85+E88+R68+R20; 

>  <intxn_cluster>  (87) 
-1

>  <intxn_cluster_rank>  (87) 
-1

>  <N_interactions>  (87) 
4

>  <∆∆G>  (87) 
-10.92139

>  <$/mg>  (87) 
163.0

>  <comRMSD>  (87) 
0.67556

>  <N_rotatable_bonds>  (87) 
5

>  <deep_P1_sidechain>  (87) 
nan

>  <farthest_distance_to_substrate>  (87) 
3.620608

>  <hbond:SER:7>  (87) 
hbond:SER:7    NaN
hbond:SER:7     -1
Name: 86, dtype: object

>  <halogenbond:SER:7>  (87) 
halogenbond:SER:7    NaN
halogenbond:SER:7     -1
Name: 86, dtype: object

>  <hbond:GLY:8>  (87) 
hbond:GLY:8    NaN
hbond:GLY:8     -1
Name: 86, dtype: object

>  <hydroph_interaction:VAL:18>  (87) 
hydroph_interaction:VAL:18    NaN
hydroph_interaction:VAL:18     -1
Name: 86, dtype: object

>  <hbond:ASN:19>  (87) 
hbond:ASN:19    NaN
hbond:ASN:19     -1
Name: 86, dtype: object

>  <hydroph_interaction:ASN:19>  (87) 
hydroph_interaction:ASN:19    0.0
hydroph_interaction:ASN:19      0
Name: 86, dtype: object

>  <halogenbond:ASN:19>  (87) 
halogenbond:ASN:19    NaN
halogenbond:ASN:19     -1
Name: 86, dtype: object

>  <hbond:ARG:20>  (87) 
hbond:ARG:20    NaN
hbond:ARG:20     -1
Name: 86, dtype: object

>  <hydroph_interaction:ARG:20>  (87) 
hydroph_interaction:ARG:20    NaN
hydroph_interaction:ARG:20     -1
Name: 86, dtype: object

>  <saltbridge:ARG:20>  (87) 
saltbridge:ARG:20    NaN
saltbridge:ARG:20     -1
Name: 86, dtype: object

>  <halogenbond:ARG:20>  (87) 
halogenbond:ARG:20    NaN
halogenbond:ARG:20     -1
Name: 86, dtype: object

>  <pication:ARG:20>  (87) 
pication:ARG:20    NaN
pication:ARG:20     -1
Name: 86, dtype: object

>  <hbond:HIS:21>  (87) 
hbond:HIS:21    0.0
hbond:HIS:21      0
Name: 86, dtype: object

>  <hydroph_interaction:HIS:21>  (87) 
hydroph_interaction:HIS:21    0.0
hydroph_interaction:HIS:21      0
Name: 86, dtype: object

>  <pistack:HIS:21>  (87) 
pistack:HIS:21    NaN
pistack:HIS:21     -1
Name: 86, dtype: object

>  <pication:HIS:21>  (87) 
pication:HIS:21    0.0
pication:HIS:21      0
Name: 86, dtype: object

>  <saltbridge:HIS:21>  (87) 
saltbridge:HIS:21    0.0
saltbridge:HIS:21      0
Name: 86, dtype: object

>  <halogenbond:HIS:21>  (87) 
halogenbond:HIS:21    NaN
halogenbond:HIS:21     -1
Name: 86, dtype: object

>  <hydroph_interaction:LEU:22>  (87) 
hydroph_interaction:LEU:22    0.0
hydroph_interaction:LEU:22      0
Name: 86, dtype: object

>  <hbond:LEU:22>  (87) 
hbond:LEU:22    NaN
hbond:LEU:22     -1
Name: 86, dtype: object

>  <hydroph_interaction:TRP:28>  (87) 
hydroph_interaction:TRP:28    NaN
hydroph_interaction:TRP:28     -1
Name: 86, dtype: object

>  <hbond:SER:36>  (87) 
hbond:SER:36    NaN
hbond:SER:36     -1
Name: 86, dtype: object

>  <halogenbond:SER:36>  (87) 
halogenbond:SER:36    NaN
halogenbond:SER:36     -1
Name: 86, dtype: object

>  <hbond:SER:37>  (87) 
hbond:SER:37    NaN
hbond:SER:37     -1
Name: 86, dtype: object

>  <hbond:ARG:38>  (87) 
hbond:ARG:38    NaN
hbond:ARG:38     -1
Name: 86, dtype: object

>  <halogenbond:ARG:38>  (87) 
halogenbond:ARG:38    NaN
halogenbond:ARG:38     -1
Name: 86, dtype: object

>  <saltbridge:ASP:39>  (87) 
saltbridge:ASP:39    NaN
saltbridge:ASP:39     -1
Name: 86, dtype: object

>  <halogenbond:ASP:39>  (87) 
halogenbond:ASP:39    NaN
halogenbond:ASP:39     -1
Name: 86, dtype: object

>  <hbond:ASP:39>  (87) 
hbond:ASP:39    0.0
hbond:ASP:39      0
Name: 86, dtype: object

>  <hydroph_interaction:ASP:39>  (87) 
hydroph_interaction:ASP:39    NaN
hydroph_interaction:ASP:39     -1
Name: 86, dtype: object

>  <hydroph_interaction:LEU:40>  (87) 
hydroph_interaction:LEU:40    NaN
hydroph_interaction:LEU:40     -1
Name: 86, dtype: object

>  <hydroph_interaction:TYR:63>  (87) 
hydroph_interaction:TYR:63    NaN
hydroph_interaction:TYR:63     -1
Name: 86, dtype: object

>  <hbond:TYR:63>  (87) 
hbond:TYR:63    NaN
hbond:TYR:63     -1
Name: 86, dtype: object

>  <pistack:TYR:63>  (87) 
pistack:TYR:63    NaN
pistack:TYR:63     -1
Name: 86, dtype: object

>  <pication:TYR:63>  (87) 
pication:TYR:63    NaN
pication:TYR:63     -1
Name: 86, dtype: object

>  <halogenbond:TYR:64>  (87) 
halogenbond:TYR:64    NaN
halogenbond:TYR:64     -1
Name: 86, dtype: object

>  <hbond:TYR:64>  (87) 
hbond:TYR:64    NaN
hbond:TYR:64     -1
Name: 86, dtype: object

>  <hydroph_interaction:TYR:64>  (87) 
hydroph_interaction:TYR:64    NaN
hydroph_interaction:TYR:64     -1
Name: 86, dtype: object

>  <halogenbond:CYS:65>  (87) 
halogenbond:CYS:65    NaN
halogenbond:CYS:65     -1
Name: 86, dtype: object

>  <hbond:CYS:65>  (87) 
hbond:CYS:65    NaN
hbond:CYS:65     -1
Name: 86, dtype: object

>  <hbond:SER:66>  (87) 
hbond:SER:66    NaN
hbond:SER:66     -1
Name: 86, dtype: object

>  <halogenbond:SER:66>  (87) 
halogenbond:SER:66    NaN
halogenbond:SER:66     -1
Name: 86, dtype: object

>  <hbond:SER:67>  (87) 
hbond:SER:67    NaN
hbond:SER:67     -1
Name: 86, dtype: object

>  <halogenbond:SER:67>  (87) 
halogenbond:SER:67    NaN
halogenbond:SER:67     -1
Name: 86, dtype: object

>  <hbond:ARG:68>  (87) 
hbond:ARG:68    NaN
hbond:ARG:68     -1
Name: 86, dtype: object

>  <saltbridge:ARG:68>  (87) 
saltbridge:ARG:68    NaN
saltbridge:ARG:68     -1
Name: 86, dtype: object

>  <hydroph_interaction:ARG:68>  (87) 
hydroph_interaction:ARG:68    NaN
hydroph_interaction:ARG:68     -1
Name: 86, dtype: object

>  <pication:ARG:68>  (87) 
pication:ARG:68    NaN
pication:ARG:68     -1
Name: 86, dtype: object

>  <hydroph_interaction:TYR:72>  (87) 
hydroph_interaction:TYR:72    NaN
hydroph_interaction:TYR:72     -1
Name: 86, dtype: object

>  <hydroph_interaction:VAL:74>  (87) 
hydroph_interaction:VAL:74    NaN
hydroph_interaction:VAL:74     -1
Name: 86, dtype: object

>  <hydroph_interaction:PHE:76>  (87) 
hydroph_interaction:PHE:76    NaN
hydroph_interaction:PHE:76     -1
Name: 86, dtype: object

>  <hbond:SER:77>  (87) 
hbond:SER:77    NaN
hbond:SER:77     -1
Name: 86, dtype: object

>  <hbond:SER:80>  (87) 
hbond:SER:80    NaN
hbond:SER:80     -1
Name: 86, dtype: object

>  <hbond:LEU:81>  (87) 
hbond:LEU:81    NaN
hbond:LEU:81     -1
Name: 86, dtype: object

>  <halogenbond:LEU:81>  (87) 
halogenbond:LEU:81    NaN
halogenbond:LEU:81     -1
Name: 86, dtype: object

>  <hydroph_interaction:LEU:81>  (87) 
hydroph_interaction:LEU:81    NaN
hydroph_interaction:LEU:81     -1
Name: 86, dtype: object

>  <hydroph_interaction:ILE:82>  (87) 
hydroph_interaction:ILE:82    NaN
hydroph_interaction:ILE:82     -1
Name: 86, dtype: object

>  <halogenbond:ILE:82>  (87) 
halogenbond:ILE:82    NaN
halogenbond:ILE:82     -1
Name: 86, dtype: object

>  <hbond:ILE:82>  (87) 
hbond:ILE:82    NaN
hbond:ILE:82     -1
Name: 86, dtype: object

>  <hbond:PHE:83>  (87) 
hbond:PHE:83    NaN
hbond:PHE:83     -1
Name: 86, dtype: object

>  <hydroph_interaction:PHE:83>  (87) 
hydroph_interaction:PHE:83    NaN
hydroph_interaction:PHE:83     -1
Name: 86, dtype: object

>  <halogenbond:PHE:83>  (87) 
halogenbond:PHE:83    NaN
halogenbond:PHE:83     -1
Name: 86, dtype: object

>  <pistack:PHE:83>  (87) 
pistack:PHE:83    NaN
pistack:PHE:83     -1
Name: 86, dtype: object

>  <pication:PHE:83>  (87) 
pication:PHE:83    NaN
pication:PHE:83     -1
Name: 86, dtype: object

>  <hydroph_interaction:VAL:84>  (87) 
hydroph_interaction:VAL:84    0.0
hydroph_interaction:VAL:84      0
Name: 86, dtype: object

>  <halogenbond:VAL:84>  (87) 
halogenbond:VAL:84    NaN
halogenbond:VAL:84     -1
Name: 86, dtype: object

>  <hbond:VAL:84>  (87) 
hbond:VAL:84    NaN
hbond:VAL:84     -1
Name: 86, dtype: object

>  <hydroph_interaction:GLU:85>  (87) 
hydroph_interaction:GLU:85    NaN
hydroph_interaction:GLU:85     -1
Name: 86, dtype: object

>  <hbond:GLU:85>  (87) 
hbond:GLU:85    NaN
hbond:GLU:85     -1
Name: 86, dtype: object

>  <halogenbond:GLU:85>  (87) 
halogenbond:GLU:85    NaN
halogenbond:GLU:85     -1
Name: 86, dtype: object

>  <saltbridge:GLU:85>  (87) 
saltbridge:GLU:85    NaN
saltbridge:GLU:85     -1
Name: 86, dtype: object

>  <halogenbond:ALA:86>  (87) 
halogenbond:ALA:86    NaN
halogenbond:ALA:86     -1
Name: 86, dtype: object

>  <hbond:ALA:86>  (87) 
hbond:ALA:86    NaN
hbond:ALA:86     -1
Name: 86, dtype: object

>  <hydroph_interaction:ALA:86>  (87) 
hydroph_interaction:ALA:86    NaN
hydroph_interaction:ALA:86     -1
Name: 86, dtype: object

>  <hbond:SER:87>  (87) 
hbond:SER:87    0
hbond:SER:87    0
Name: 86, dtype: object

>  <halogenbond:SER:87>  (87) 
halogenbond:SER:87    NaN
halogenbond:SER:87     -1
Name: 86, dtype: object

>  <hbond:GLU:88>  (87) 
hbond:GLU:88    0.0
hbond:GLU:88      0
Name: 86, dtype: object

>  <hydroph_interaction:GLU:88>  (87) 
hydroph_interaction:GLU:88    NaN
hydroph_interaction:GLU:88     -1
Name: 86, dtype: object

>  <halogenbond:GLU:88>  (87) 
halogenbond:GLU:88    NaN
halogenbond:GLU:88     -1
Name: 86, dtype: object

>  <saltbridge:GLU:88>  (87) 
saltbridge:GLU:88    NaN
saltbridge:GLU:88     -1
Name: 86, dtype: object

>  <hydroph_interaction:TYR:89>  (87) 
hydroph_interaction:TYR:89    0.0
hydroph_interaction:TYR:89      0
Name: 86, dtype: object

>  <pistack:TYR:89>  (87) 
pistack:TYR:89    0.0
pistack:TYR:89      0
Name: 86, dtype: object

>  <hbond:TYR:89>  (87) 
hbond:TYR:89    NaN
hbond:TYR:89     -1
Name: 86, dtype: object

>  <halogenbond:TYR:89>  (87) 
halogenbond:TYR:89    NaN
halogenbond:TYR:89     -1
Name: 86, dtype: object

>  <hydroph_interaction:TYR:90>  (87) 
hydroph_interaction:TYR:90    1.0
hydroph_interaction:TYR:90      1
Name: 86, dtype: object

>  <hbond:TYR:90>  (87) 
hbond:TYR:90    0.0
hbond:TYR:90      0
Name: 86, dtype: object

>  <pistack:TYR:90>  (87) 
pistack:TYR:90    NaN
pistack:TYR:90     -1
Name: 86, dtype: object

>  <halogenbond:TYR:90>  (87) 
halogenbond:TYR:90    NaN
halogenbond:TYR:90     -1
Name: 86, dtype: object

>  <pication:TYR:90>  (87) 
pication:TYR:90    NaN
pication:TYR:90     -1
Name: 86, dtype: object

>  <hbond:PRO:91>  (87) 
hbond:PRO:91    NaN
hbond:PRO:91     -1
Name: 86, dtype: object

>  <hydroph_interaction:PRO:91>  (87) 
hydroph_interaction:PRO:91    NaN
hydroph_interaction:PRO:91     -1
Name: 86, dtype: object

>  <halogenbond:PRO:91>  (87) 
halogenbond:PRO:91    NaN
halogenbond:PRO:91     -1
Name: 86, dtype: object

>  <hbond:ALA:92>  (87) 
hbond:ALA:92    NaN
hbond:ALA:92     -1
Name: 86, dtype: object

>  <hydroph_interaction:ALA:92>  (87) 
hydroph_interaction:ALA:92    NaN
hydroph_interaction:ALA:92     -1
Name: 86, dtype: object

>  <saltbridge:ARG:93>  (87) 
saltbridge:ARG:93    NaN
saltbridge:ARG:93     -1
Name: 86, dtype: object

>  <hbond:ARG:93>  (87) 
hbond:ARG:93    NaN
hbond:ARG:93     -1
Name: 86, dtype: object

>  <hydroph_interaction:ARG:93>  (87) 
hydroph_interaction:ARG:93    NaN
hydroph_interaction:ARG:93     -1
Name: 86, dtype: object

>  <halogenbond:ARG:93>  (87) 
halogenbond:ARG:93    NaN
halogenbond:ARG:93     -1
Name: 86, dtype: object

>  <pication:ARG:93>  (87) 
pication:ARG:93    NaN
pication:ARG:93     -1
Name: 86, dtype: object

>  <hydroph_interaction:TYR:94>  (87) 
hydroph_interaction:TYR:94    NaN
hydroph_interaction:TYR:94     -1
Name: 86, dtype: object

>  <pistack:TYR:94>  (87) 
pistack:TYR:94    NaN
pistack:TYR:94     -1
Name: 86, dtype: object

>  <hbond:TYR:94>  (87) 
hbond:TYR:94    NaN
hbond:TYR:94     -1
Name: 86, dtype: object

>  <hbond:GLN:95>  (87) 
hbond:GLN:95    NaN
hbond:GLN:95     -1
Name: 86, dtype: object

>  <hydroph_interaction:GLN:95>  (87) 
hydroph_interaction:GLN:95    NaN
hydroph_interaction:GLN:95     -1
Name: 86, dtype: object

>  <halogenbond:GLN:95>  (87) 
halogenbond:GLN:95    NaN
halogenbond:GLN:95     -1
Name: 86, dtype: object

>  <hbond:SER:96>  (87) 
hbond:SER:96    NaN
hbond:SER:96     -1
Name: 86, dtype: object

>  <halogenbond:HIS:97>  (87) 
halogenbond:HIS:97    NaN
halogenbond:HIS:97     -1
Name: 86, dtype: object

>  <hydroph_interaction:LEU:98>  (87) 
hydroph_interaction:LEU:98    NaN
hydroph_interaction:LEU:98     -1
Name: 86, dtype: object

>  <hbond:LEU:98>  (87) 
hbond:LEU:98    NaN
hbond:LEU:98     -1
Name: 86, dtype: object

>  <halogenbond:LEU:98>  (87) 
halogenbond:LEU:98    NaN
halogenbond:LEU:98     -1
Name: 86, dtype: object

>  <hbond:MET:99>  (87) 
hbond:MET:99    NaN
hbond:MET:99     -1
Name: 86, dtype: object

>  <hydroph_interaction:MET:99>  (87) 
hydroph_interaction:MET:99    NaN
hydroph_interaction:MET:99     -1
Name: 86, dtype: object

>  <halogenbond:MET:99>  (87) 
halogenbond:MET:99    NaN
halogenbond:MET:99     -1
Name: 86, dtype: object

>  <hydroph_interaction:LEU:100>  (87) 
hydroph_interaction:LEU:100    NaN
hydroph_interaction:LEU:100     -1
Name: 86, dtype: object

>  <hbond:LEU:100>  (87) 
hbond:LEU:100    NaN
hbond:LEU:100     -1
Name: 86, dtype: object

>  <hbond:ALA:101>  (87) 
hbond:ALA:101    NaN
hbond:ALA:101     -1
Name: 86, dtype: object

>  <hydroph_interaction:ALA:101>  (87) 
hydroph_interaction:ALA:101    NaN
hydroph_interaction:ALA:101     -1
Name: 86, dtype: object

>  <hydroph_interaction:VAL:102>  (87) 
hydroph_interaction:VAL:102    NaN
hydroph_interaction:VAL:102     -1
Name: 86, dtype: object

>  <hbond:VAL:102>  (87) 
hbond:VAL:102    NaN
hbond:VAL:102     -1
Name: 86, dtype: object

>  <hbond:GLY:103>  (87) 
hbond:GLY:103    NaN
hbond:GLY:103     -1
Name: 86, dtype: object

>  <halogenbond:GLY:103>  (87) 
halogenbond:GLY:103    NaN
halogenbond:GLY:103     -1
Name: 86, dtype: object

>  <hbond:HIS:104>  (87) 
hbond:HIS:104    NaN
hbond:HIS:104     -1
Name: 86, dtype: object

>  <saltbridge:HIS:104>  (87) 
saltbridge:HIS:104    NaN
saltbridge:HIS:104     -1
Name: 86, dtype: object

>  <pication:HIS:104>  (87) 
pication:HIS:104    NaN
pication:HIS:104     -1
Name: 86, dtype: object

>  <halogenbond:HIS:104>  (87) 
halogenbond:HIS:104    NaN
halogenbond:HIS:104     -1
Name: 86, dtype: object

>  <hydroph_interaction:HIS:104>  (87) 
hydroph_interaction:HIS:104    NaN
hydroph_interaction:HIS:104     -1
Name: 86, dtype: object

>  <pistack:HIS:104>  (87) 
pistack:HIS:104    NaN
pistack:HIS:104     -1
Name: 86, dtype: object

>  <halogenbond:SER:105>  (87) 
halogenbond:SER:105    0.0
halogenbond:SER:105      0
Name: 86, dtype: object

>  <hbond:SER:105>  (87) 
hbond:SER:105    1.0
hbond:SER:105      1
Name: 86, dtype: object

>  <hbond:GLU:106>  (87) 
hbond:GLU:106    0.0
hbond:GLU:106      0
Name: 86, dtype: object

>  <hydroph_interaction:GLU:106>  (87) 
hydroph_interaction:GLU:106    0.0
hydroph_interaction:GLU:106      0
Name: 86, dtype: object

>  <saltbridge:GLU:106>  (87) 
saltbridge:GLU:106    NaN
saltbridge:GLU:106     -1
Name: 86, dtype: object

>  <halogenbond:GLU:106>  (87) 
halogenbond:GLU:106    NaN
halogenbond:GLU:106     -1
Name: 86, dtype: object

>  <hydroph_interaction:PRO:107>  (87) 
hydroph_interaction:PRO:107    2
hydroph_interaction:PRO:107    2
Name: 86, dtype: object

>  <hbond:PRO:107>  (87) 
hbond:PRO:107    0.0
hbond:PRO:107      0
Name: 86, dtype: object

>  <halogenbond:PRO:107>  (87) 
halogenbond:PRO:107    NaN
halogenbond:PRO:107     -1
Name: 86, dtype: object

>  <hbond:GLY:108>  (87) 
hbond:GLY:108    NaN
hbond:GLY:108     -1
Name: 86, dtype: object

>  <halogenbond:GLY:108>  (87) 
halogenbond:GLY:108    NaN
halogenbond:GLY:108     -1
Name: 86, dtype: object

>  <hbond:ASP:109>  (87) 
hbond:ASP:109    0.0
hbond:ASP:109      0
Name: 86, dtype: object

>  <hydroph_interaction:ASP:109>  (87) 
hydroph_interaction:ASP:109    NaN
hydroph_interaction:ASP:109     -1
Name: 86, dtype: object

>  <saltbridge:ASP:109>  (87) 
saltbridge:ASP:109    NaN
saltbridge:ASP:109     -1
Name: 86, dtype: object

>  <halogenbond:CYS:110>  (87) 
halogenbond:CYS:110    NaN
halogenbond:CYS:110     -1
Name: 86, dtype: object

>  <hbond:CYS:110>  (87) 
hbond:CYS:110    0.0
hbond:CYS:110      0
Name: 86, dtype: object

>  <hbond:GLY:111>  (87) 
hbond:GLY:111    NaN
hbond:GLY:111     -1
Name: 86, dtype: object

>  <hbond:GLY:112>  (87) 
hbond:GLY:112    NaN
hbond:GLY:112     -1
Name: 86, dtype: object

>  <hbond:ILE:113>  (87) 
hbond:ILE:113    NaN
hbond:ILE:113     -1
Name: 86, dtype: object

>  <hydroph_interaction:LEU:114>  (87) 
hydroph_interaction:LEU:114    NaN
hydroph_interaction:LEU:114     -1
Name: 86, dtype: object

>  <hbond:LEU:114>  (87) 
hbond:LEU:114    NaN
hbond:LEU:114     -1
Name: 86, dtype: object

>  <hydroph_interaction:ILE:123>  (87) 
hydroph_interaction:ILE:123    NaN
hydroph_interaction:ILE:123     -1
Name: 86, dtype: object

>  <hbond:ILE:123>  (87) 
hbond:ILE:123    NaN
hbond:ILE:123     -1
Name: 86, dtype: object

>  <hydroph_interaction:VAL:124>  (87) 
hydroph_interaction:VAL:124    0.0
hydroph_interaction:VAL:124      0
Name: 86, dtype: object

>  <hbond:VAL:124>  (87) 
hbond:VAL:124    NaN
hbond:VAL:124     -1
Name: 86, dtype: object

>  <halogenbond:VAL:124>  (87) 
halogenbond:VAL:124    NaN
halogenbond:VAL:124     -1
Name: 86, dtype: object

>  <hbond:SER:125>  (87) 
hbond:SER:125    0
hbond:SER:125    0
Name: 86, dtype: object

>  <halogenbond:SER:125>  (87) 
halogenbond:SER:125    NaN
halogenbond:SER:125     -1
Name: 86, dtype: object

>  <hydroph_interaction:THR:126>  (87) 
hydroph_interaction:THR:126    NaN
hydroph_interaction:THR:126     -1
Name: 86, dtype: object

>  <hbond:THR:126>  (87) 
hbond:THR:126    0.0
hbond:THR:126      0
Name: 86, dtype: object

>  <halogenbond:THR:126>  (87) 
halogenbond:THR:126    NaN
halogenbond:THR:126     -1
Name: 86, dtype: object

>  <hbond:GLY:127>  (87) 
hbond:GLY:127    0
hbond:GLY:127    0
Name: 86, dtype: object

>  <halogenbond:GLY:127>  (87) 
halogenbond:GLY:127    NaN
halogenbond:GLY:127     -1
Name: 86, dtype: object

>  <hydroph_interaction:GLY:127>  (87) 
hydroph_interaction:GLY:127    NaN
hydroph_interaction:GLY:127     -1
Name: 86, dtype: object

>  <hbond:GLY:128>  (87) 
hbond:GLY:128    NaN
hbond:GLY:128     -1
Name: 86, dtype: object

>  <halogenbond:GLY:128>  (87) 
halogenbond:GLY:128    NaN
halogenbond:GLY:128     -1
Name: 86, dtype: object

>  <hydroph_interaction:GLY:128>  (87) 
hydroph_interaction:GLY:128    NaN
hydroph_interaction:GLY:128     -1
Name: 86, dtype: object

>  <hbond:ASN:129>  (87) 
hbond:ASN:129    NaN
hbond:ASN:129     -1
Name: 86, dtype: object

>  <hydroph_interaction:ASN:129>  (87) 
hydroph_interaction:ASN:129    NaN
hydroph_interaction:ASN:129     -1
Name: 86, dtype: object

>  <halogenbond:ASN:129>  (87) 
halogenbond:ASN:129    NaN
halogenbond:ASN:129     -1
Name: 86, dtype: object

>  <hbond:GLY:130>  (87) 
hbond:GLY:130    NaN
hbond:GLY:130     -1
Name: 86, dtype: object

>  <hbond:LEU:131>  (87) 
hbond:LEU:131    NaN
hbond:LEU:131     -1
Name: 86, dtype: object

>  <hydroph_interaction:LEU:131>  (87) 
hydroph_interaction:LEU:131    NaN
hydroph_interaction:LEU:131     -1
Name: 86, dtype: object

>  <halogenbond:LEU:131>  (87) 
halogenbond:LEU:131    NaN
halogenbond:LEU:131     -1
Name: 86, dtype: object

>  <hydroph_interaction:VAL:132>  (87) 
hydroph_interaction:VAL:132    0.0
hydroph_interaction:VAL:132      0
Name: 86, dtype: object

>  <hbond:VAL:132>  (87) 
hbond:VAL:132    NaN
hbond:VAL:132     -1
Name: 86, dtype: object

>  <hbond:GLY:133>  (87) 
hbond:GLY:133    NaN
hbond:GLY:133     -1
Name: 86, dtype: object

>  <halogenbond:GLY:133>  (87) 
halogenbond:GLY:133    NaN
halogenbond:GLY:133     -1
Name: 86, dtype: object

>  <hydroph_interaction:PHE:134>  (87) 
hydroph_interaction:PHE:134    NaN
hydroph_interaction:PHE:134     -1
Name: 86, dtype: object

>  <hbond:PHE:134>  (87) 
hbond:PHE:134    NaN
hbond:PHE:134     -1
Name: 86, dtype: object

>  <pistack:PHE:134>  (87) 
pistack:PHE:134    NaN
pistack:PHE:134     -1
Name: 86, dtype: object

>  <pication:PHE:134>  (87) 
pication:PHE:134    NaN
pication:PHE:134     -1
Name: 86, dtype: object

>  <halogenbond:PHE:134>  (87) 
halogenbond:PHE:134    NaN
halogenbond:PHE:134     -1
Name: 86, dtype: object

>  <hydroph_interaction:ALA:135>  (87) 
hydroph_interaction:ALA:135    NaN
hydroph_interaction:ALA:135     -1
Name: 86, dtype: object

>  <hbond:ALA:135>  (87) 
hbond:ALA:135    NaN
hbond:ALA:135     -1
Name: 86, dtype: object

$$$$
Z4646473011
     RDKit          3D

 33 33  0  0  0  0  0  0  0  0999 V2000
   13.3780   15.7300   20.7570 C   0  0  0  0  0  0  0  0  0  0  0  0
   12.4280   14.5690   20.9260 C   0  0  0  0  0  0  0  0  0  0  0  0
   11.7570   14.6120   22.2920 C   0  0  2  0  0  0  0  0  0  0  0  0
   12.3770   13.6710   23.3240 C   0  0  0  0  0  0  0  0  0  0  0  0
   10.2740   14.3310   22.1280 C   0  0  0  0  0  0  0  0  0  0  0  0
    9.6360   14.4010   21.0860 O   0  0  0  0  0  0  0  0  0  0  0  0
    9.7710   13.9990   23.3730 O   0  0  0  0  0  0  0  0  0  0  0  0
    9.4290   12.6630   23.5610 C   0  0  0  0  0  0  0  0  0  0  0  0
    8.4000   12.4220   24.4550 C   0  0  0  0  0  0  0  0  0  0  0  0
    8.0030   11.1190   24.7080 C   0  0  0  0  0  0  0  0  0  0  0  0
    6.8840   10.8520   25.6640 C   0  0  0  0  0  0  0  0  0  0  0  0
    8.6590   10.0740   24.0510 C   0  0  0  0  0  0  0  0  0  0  0  0
    9.6870   10.3160   23.1430 C   0  0  0  0  0  0  0  0  0  0  0  0
   10.3520    9.1840   22.4410 C   0  0  0  0  0  0  0  0  0  0  0  0
   10.0770   11.6290   22.8990 C   0  0  0  0  0  0  0  0  0  0  0  0
   12.8440   16.6830   20.7730 H   0  0  0  0  0  0  0  0  0  0  0  0
   14.0890   15.7330   21.5850 H   0  0  0  0  0  0  0  0  0  0  0  0
   13.9490   15.6520   19.8330 H   0  0  0  0  0  0  0  0  0  0  0  0
   12.9680   13.6240   20.7910 H   0  0  0  0  0  0  0  0  0  0  0  0
   11.6720   14.6080   20.1300 H   0  0  0  0  0  0  0  0  0  0  0  0
   11.8500   15.6270   22.7020 H   0  0  0  0  0  0  0  0  0  0  0  0
   12.3560   14.1100   24.3270 H   0  0  0  0  0  0  0  0  0  0  0  0
   11.8560   12.7140   23.3620 H   0  0  0  0  0  0  0  0  0  0  0  0
   13.4280   13.4680   23.0820 H   0  0  0  0  0  0  0  0  0  0  0  0
    7.9100   13.2520   24.9530 H   0  0  0  0  0  0  0  0  0  0  0  0
    7.2470   10.7670   26.6810 H   0  0  0  0  0  0  0  0  0  0  0  0
    6.3650    9.9300   25.4040 H   0  0  0  0  0  0  0  0  0  0  0  0
    6.1440   11.6570   25.6240 H   0  0  0  0  0  0  0  0  0  0  0  0
    8.3540    9.0520   24.2460 H   0  0  0  0  0  0  0  0  0  0  0  0
   10.9700    9.5490   21.6260 H   0  0  0  0  0  0  0  0  0  0  0  0
    9.6090    8.5310   21.9850 H   0  0  0  0  0  0  0  0  0  0  0  0
   10.9730    8.6100   23.1350 H   0  0  0  0  0  0  0  0  0  0  0  0
   10.8750   11.8490   22.2020 H   0  0  0  0  0  0  0  0  0  0  0  0
  1  2  1  0
  2  3  1  0
  3  4  1  0
  3  5  1  0
  5  6  2  0
  5  7  1  0
  7  8  1  0
  8  9  2  0
  9 10  1  0
 10 11  1  0
 10 12  2  0
 12 13  1  0
 13 14  1  0
 13 15  2  0
 15  8  1  0
  1 16  1  0
  1 17  1  0
  1 18  1  0
  2 19  1  0
  2 20  1  0
  3 21  1  1
  4 22  1  0
  4 23  1  0
  4 24  1  0
  9 25  1  0
 11 26  1  0
 11 27  1  0
 11 28  1  0
 12 29  1  0
 14 30  1  0
 14 31  1  0
 14 32  1  0
 15 33  1  0
A    1
 C1 
A    2
 C2 
A    3
 C3 
A    4
 C4 
A    5
 C5 
A    6
 O1 
A    7
 O2 
A    8
 C6 
A    9
 C7 
A   10
 C8 
A   11
 C9 
A   12
 C10
A   13
 C11
A   14
 C12
A   15
 C13
A   16
 H1 
A   17
 H2 
A   18
 H3 
A   19
 H4 
A   20
 H5 
A   21
 H6 
A   22
 H7 
A   23
 H8 
A   24
 H9 
A   25
 H10
A   26
 H11
A   27
 H12
A   28
 H13
A   29
 H14
A   30
 H15
A   31
 H16
A   32
 H17
A   33
 H18
M  END
>  <ref_pdb>  (88) 
x0310_0A

>  <ref_mols>  (88) 
x0451_0A,x0739_0A

>  <original SMILES>  (88) 
CC[C@H](C)C(=O)Oc1cc(C)cc(C)c1

>  <rationale>  (88) 
info halogenbond:C110+G127+D39+A86+E85+Q95+E106+E88+T126+P107+H104+Y64+C65+S87+N129+F83+R93+L131+I82+G128+P91+N19+H21+V84+G133+Y90+Y89+H97+L81+F134+L98+R20+G103+S66+S67+S7+G108+R38+V124+M99+S36; hbond:S87+P107+Q95+T126+C110+D109+E85+G108+G103+G128+G130+L131+N129+N19+H104+R68+V124+R93+P91+F83+S67+S7+S66+G112+G133+V132+R20+Y89+S77+A135+Y63+A92+A101+M99+F134+L100+I82+Y64+S36+L98+V84+L81+Y94+S80+R38+S37+V102+G8+I123+G111+I113+L114+C65+L22+S96; hydroph_interaction:V124+Y90+Y89+H21+P107+L22+D109+N129+N19+L40+I123+A135+Q95+I82+L100+L98+L131+F83+R93+V132+Y63+F134+H104+R20+A86+V74+P91+A101+F76+M99+L114+A92+Y94+R68+Y72+Y64+V18+V102+W28+G127+G128+L81; pication:H104+R93+Y63+F134+Y90+R68+F83+R20; pistack:H21+Y89+Y90+H104+F134+Y63+F83+Y94; saltbridge:D39+H21+R93+H104+E106+D109+E85+E88+R68+R20; 

>  <intxn_cluster>  (88) 
-1

>  <intxn_cluster_rank>  (88) 
-1

>  <N_interactions>  (88) 
6

>  <∆∆G>  (88) 
-13.728619

>  <$/mg>  (88) 
163.0

>  <comRMSD>  (88) 
0.923474

>  <N_rotatable_bonds>  (88) 
7

>  <deep_P1_sidechain>  (88) 
nan

>  <farthest_distance_to_substrate>  (88) 
2.663289

>  <hbond:SER:7>  (88) 
hbond:SER:7    NaN
hbond:SER:7     -1
Name: 87, dtype: object

>  <halogenbond:SER:7>  (88) 
halogenbond:SER:7    NaN
halogenbond:SER:7     -1
Name: 87, dtype: object

>  <hbond:GLY:8>  (88) 
hbond:GLY:8    NaN
hbond:GLY:8     -1
Name: 87, dtype: object

>  <hydroph_interaction:VAL:18>  (88) 
hydroph_interaction:VAL:18    NaN
hydroph_interaction:VAL:18     -1
Name: 87, dtype: object

>  <hbond:ASN:19>  (88) 
hbond:ASN:19    NaN
hbond:ASN:19     -1
Name: 87, dtype: object

>  <hydroph_interaction:ASN:19>  (88) 
hydroph_interaction:ASN:19    NaN
hydroph_interaction:ASN:19     -1
Name: 87, dtype: object

>  <halogenbond:ASN:19>  (88) 
halogenbond:ASN:19    NaN
halogenbond:ASN:19     -1
Name: 87, dtype: object

>  <hbond:ARG:20>  (88) 
hbond:ARG:20    NaN
hbond:ARG:20     -1
Name: 87, dtype: object

>  <hydroph_interaction:ARG:20>  (88) 
hydroph_interaction:ARG:20    NaN
hydroph_interaction:ARG:20     -1
Name: 87, dtype: object

>  <saltbridge:ARG:20>  (88) 
saltbridge:ARG:20    NaN
saltbridge:ARG:20     -1
Name: 87, dtype: object

>  <halogenbond:ARG:20>  (88) 
halogenbond:ARG:20    NaN
halogenbond:ARG:20     -1
Name: 87, dtype: object

>  <pication:ARG:20>  (88) 
pication:ARG:20    NaN
pication:ARG:20     -1
Name: 87, dtype: object

>  <hbond:HIS:21>  (88) 
hbond:HIS:21    0.0
hbond:HIS:21      0
Name: 87, dtype: object

>  <hydroph_interaction:HIS:21>  (88) 
hydroph_interaction:HIS:21    1.0
hydroph_interaction:HIS:21      1
Name: 87, dtype: object

>  <pistack:HIS:21>  (88) 
pistack:HIS:21    NaN
pistack:HIS:21     -1
Name: 87, dtype: object

>  <pication:HIS:21>  (88) 
pication:HIS:21    0.0
pication:HIS:21      0
Name: 87, dtype: object

>  <saltbridge:HIS:21>  (88) 
saltbridge:HIS:21    NaN
saltbridge:HIS:21     -1
Name: 87, dtype: object

>  <halogenbond:HIS:21>  (88) 
halogenbond:HIS:21    NaN
halogenbond:HIS:21     -1
Name: 87, dtype: object

>  <hydroph_interaction:LEU:22>  (88) 
hydroph_interaction:LEU:22    NaN
hydroph_interaction:LEU:22     -1
Name: 87, dtype: object

>  <hbond:LEU:22>  (88) 
hbond:LEU:22    NaN
hbond:LEU:22     -1
Name: 87, dtype: object

>  <hydroph_interaction:TRP:28>  (88) 
hydroph_interaction:TRP:28    NaN
hydroph_interaction:TRP:28     -1
Name: 87, dtype: object

>  <hbond:SER:36>  (88) 
hbond:SER:36    NaN
hbond:SER:36     -1
Name: 87, dtype: object

>  <halogenbond:SER:36>  (88) 
halogenbond:SER:36    NaN
halogenbond:SER:36     -1
Name: 87, dtype: object

>  <hbond:SER:37>  (88) 
hbond:SER:37    NaN
hbond:SER:37     -1
Name: 87, dtype: object

>  <hbond:ARG:38>  (88) 
hbond:ARG:38    NaN
hbond:ARG:38     -1
Name: 87, dtype: object

>  <halogenbond:ARG:38>  (88) 
halogenbond:ARG:38    NaN
halogenbond:ARG:38     -1
Name: 87, dtype: object

>  <saltbridge:ASP:39>  (88) 
saltbridge:ASP:39    NaN
saltbridge:ASP:39     -1
Name: 87, dtype: object

>  <halogenbond:ASP:39>  (88) 
halogenbond:ASP:39    NaN
halogenbond:ASP:39     -1
Name: 87, dtype: object

>  <hbond:ASP:39>  (88) 
hbond:ASP:39    0.0
hbond:ASP:39      0
Name: 87, dtype: object

>  <hydroph_interaction:ASP:39>  (88) 
hydroph_interaction:ASP:39    0.0
hydroph_interaction:ASP:39      0
Name: 87, dtype: object

>  <hydroph_interaction:LEU:40>  (88) 
hydroph_interaction:LEU:40    NaN
hydroph_interaction:LEU:40     -1
Name: 87, dtype: object

>  <hydroph_interaction:TYR:63>  (88) 
hydroph_interaction:TYR:63    NaN
hydroph_interaction:TYR:63     -1
Name: 87, dtype: object

>  <hbond:TYR:63>  (88) 
hbond:TYR:63    NaN
hbond:TYR:63     -1
Name: 87, dtype: object

>  <pistack:TYR:63>  (88) 
pistack:TYR:63    NaN
pistack:TYR:63     -1
Name: 87, dtype: object

>  <pication:TYR:63>  (88) 
pication:TYR:63    NaN
pication:TYR:63     -1
Name: 87, dtype: object

>  <halogenbond:TYR:64>  (88) 
halogenbond:TYR:64    NaN
halogenbond:TYR:64     -1
Name: 87, dtype: object

>  <hbond:TYR:64>  (88) 
hbond:TYR:64    NaN
hbond:TYR:64     -1
Name: 87, dtype: object

>  <hydroph_interaction:TYR:64>  (88) 
hydroph_interaction:TYR:64    NaN
hydroph_interaction:TYR:64     -1
Name: 87, dtype: object

>  <halogenbond:CYS:65>  (88) 
halogenbond:CYS:65    NaN
halogenbond:CYS:65     -1
Name: 87, dtype: object

>  <hbond:CYS:65>  (88) 
hbond:CYS:65    NaN
hbond:CYS:65     -1
Name: 87, dtype: object

>  <hbond:SER:66>  (88) 
hbond:SER:66    NaN
hbond:SER:66     -1
Name: 87, dtype: object

>  <halogenbond:SER:66>  (88) 
halogenbond:SER:66    NaN
halogenbond:SER:66     -1
Name: 87, dtype: object

>  <hbond:SER:67>  (88) 
hbond:SER:67    NaN
hbond:SER:67     -1
Name: 87, dtype: object

>  <halogenbond:SER:67>  (88) 
halogenbond:SER:67    NaN
halogenbond:SER:67     -1
Name: 87, dtype: object

>  <hbond:ARG:68>  (88) 
hbond:ARG:68    NaN
hbond:ARG:68     -1
Name: 87, dtype: object

>  <saltbridge:ARG:68>  (88) 
saltbridge:ARG:68    NaN
saltbridge:ARG:68     -1
Name: 87, dtype: object

>  <hydroph_interaction:ARG:68>  (88) 
hydroph_interaction:ARG:68    NaN
hydroph_interaction:ARG:68     -1
Name: 87, dtype: object

>  <pication:ARG:68>  (88) 
pication:ARG:68    NaN
pication:ARG:68     -1
Name: 87, dtype: object

>  <hydroph_interaction:TYR:72>  (88) 
hydroph_interaction:TYR:72    NaN
hydroph_interaction:TYR:72     -1
Name: 87, dtype: object

>  <hydroph_interaction:VAL:74>  (88) 
hydroph_interaction:VAL:74    NaN
hydroph_interaction:VAL:74     -1
Name: 87, dtype: object

>  <hydroph_interaction:PHE:76>  (88) 
hydroph_interaction:PHE:76    NaN
hydroph_interaction:PHE:76     -1
Name: 87, dtype: object

>  <hbond:SER:77>  (88) 
hbond:SER:77    NaN
hbond:SER:77     -1
Name: 87, dtype: object

>  <hbond:SER:80>  (88) 
hbond:SER:80    NaN
hbond:SER:80     -1
Name: 87, dtype: object

>  <hbond:LEU:81>  (88) 
hbond:LEU:81    NaN
hbond:LEU:81     -1
Name: 87, dtype: object

>  <halogenbond:LEU:81>  (88) 
halogenbond:LEU:81    NaN
halogenbond:LEU:81     -1
Name: 87, dtype: object

>  <hydroph_interaction:LEU:81>  (88) 
hydroph_interaction:LEU:81    NaN
hydroph_interaction:LEU:81     -1
Name: 87, dtype: object

>  <hydroph_interaction:ILE:82>  (88) 
hydroph_interaction:ILE:82    NaN
hydroph_interaction:ILE:82     -1
Name: 87, dtype: object

>  <halogenbond:ILE:82>  (88) 
halogenbond:ILE:82    NaN
halogenbond:ILE:82     -1
Name: 87, dtype: object

>  <hbond:ILE:82>  (88) 
hbond:ILE:82    NaN
hbond:ILE:82     -1
Name: 87, dtype: object

>  <hbond:PHE:83>  (88) 
hbond:PHE:83    NaN
hbond:PHE:83     -1
Name: 87, dtype: object

>  <hydroph_interaction:PHE:83>  (88) 
hydroph_interaction:PHE:83    NaN
hydroph_interaction:PHE:83     -1
Name: 87, dtype: object

>  <halogenbond:PHE:83>  (88) 
halogenbond:PHE:83    NaN
halogenbond:PHE:83     -1
Name: 87, dtype: object

>  <pistack:PHE:83>  (88) 
pistack:PHE:83    NaN
pistack:PHE:83     -1
Name: 87, dtype: object

>  <pication:PHE:83>  (88) 
pication:PHE:83    NaN
pication:PHE:83     -1
Name: 87, dtype: object

>  <hydroph_interaction:VAL:84>  (88) 
hydroph_interaction:VAL:84    0.0
hydroph_interaction:VAL:84      0
Name: 87, dtype: object

>  <halogenbond:VAL:84>  (88) 
halogenbond:VAL:84    NaN
halogenbond:VAL:84     -1
Name: 87, dtype: object

>  <hbond:VAL:84>  (88) 
hbond:VAL:84    NaN
hbond:VAL:84     -1
Name: 87, dtype: object

>  <hydroph_interaction:GLU:85>  (88) 
hydroph_interaction:GLU:85    0.0
hydroph_interaction:GLU:85      0
Name: 87, dtype: object

>  <hbond:GLU:85>  (88) 
hbond:GLU:85    NaN
hbond:GLU:85     -1
Name: 87, dtype: object

>  <halogenbond:GLU:85>  (88) 
halogenbond:GLU:85    NaN
halogenbond:GLU:85     -1
Name: 87, dtype: object

>  <saltbridge:GLU:85>  (88) 
saltbridge:GLU:85    NaN
saltbridge:GLU:85     -1
Name: 87, dtype: object

>  <halogenbond:ALA:86>  (88) 
halogenbond:ALA:86    NaN
halogenbond:ALA:86     -1
Name: 87, dtype: object

>  <hbond:ALA:86>  (88) 
hbond:ALA:86    0.0
hbond:ALA:86      0
Name: 87, dtype: object

>  <hydroph_interaction:ALA:86>  (88) 
hydroph_interaction:ALA:86    NaN
hydroph_interaction:ALA:86     -1
Name: 87, dtype: object

>  <hbond:SER:87>  (88) 
hbond:SER:87    1
hbond:SER:87    1
Name: 87, dtype: object

>  <halogenbond:SER:87>  (88) 
halogenbond:SER:87    NaN
halogenbond:SER:87     -1
Name: 87, dtype: object

>  <hbond:GLU:88>  (88) 
hbond:GLU:88    0.0
hbond:GLU:88      0
Name: 87, dtype: object

>  <hydroph_interaction:GLU:88>  (88) 
hydroph_interaction:GLU:88    0.0
hydroph_interaction:GLU:88      0
Name: 87, dtype: object

>  <halogenbond:GLU:88>  (88) 
halogenbond:GLU:88    NaN
halogenbond:GLU:88     -1
Name: 87, dtype: object

>  <saltbridge:GLU:88>  (88) 
saltbridge:GLU:88    NaN
saltbridge:GLU:88     -1
Name: 87, dtype: object

>  <hydroph_interaction:TYR:89>  (88) 
hydroph_interaction:TYR:89    1.0
hydroph_interaction:TYR:89      1
Name: 87, dtype: object

>  <pistack:TYR:89>  (88) 
pistack:TYR:89    NaN
pistack:TYR:89     -1
Name: 87, dtype: object

>  <hbond:TYR:89>  (88) 
hbond:TYR:89    NaN
hbond:TYR:89     -1
Name: 87, dtype: object

>  <halogenbond:TYR:89>  (88) 
halogenbond:TYR:89    NaN
halogenbond:TYR:89     -1
Name: 87, dtype: object

>  <hydroph_interaction:TYR:90>  (88) 
hydroph_interaction:TYR:90    1.0
hydroph_interaction:TYR:90      1
Name: 87, dtype: object

>  <hbond:TYR:90>  (88) 
hbond:TYR:90    0.0
hbond:TYR:90      0
Name: 87, dtype: object

>  <pistack:TYR:90>  (88) 
pistack:TYR:90    NaN
pistack:TYR:90     -1
Name: 87, dtype: object

>  <halogenbond:TYR:90>  (88) 
halogenbond:TYR:90    NaN
halogenbond:TYR:90     -1
Name: 87, dtype: object

>  <pication:TYR:90>  (88) 
pication:TYR:90    NaN
pication:TYR:90     -1
Name: 87, dtype: object

>  <hbond:PRO:91>  (88) 
hbond:PRO:91    NaN
hbond:PRO:91     -1
Name: 87, dtype: object

>  <hydroph_interaction:PRO:91>  (88) 
hydroph_interaction:PRO:91    NaN
hydroph_interaction:PRO:91     -1
Name: 87, dtype: object

>  <halogenbond:PRO:91>  (88) 
halogenbond:PRO:91    NaN
halogenbond:PRO:91     -1
Name: 87, dtype: object

>  <hbond:ALA:92>  (88) 
hbond:ALA:92    NaN
hbond:ALA:92     -1
Name: 87, dtype: object

>  <hydroph_interaction:ALA:92>  (88) 
hydroph_interaction:ALA:92    NaN
hydroph_interaction:ALA:92     -1
Name: 87, dtype: object

>  <saltbridge:ARG:93>  (88) 
saltbridge:ARG:93    NaN
saltbridge:ARG:93     -1
Name: 87, dtype: object

>  <hbond:ARG:93>  (88) 
hbond:ARG:93    NaN
hbond:ARG:93     -1
Name: 87, dtype: object

>  <hydroph_interaction:ARG:93>  (88) 
hydroph_interaction:ARG:93    NaN
hydroph_interaction:ARG:93     -1
Name: 87, dtype: object

>  <halogenbond:ARG:93>  (88) 
halogenbond:ARG:93    NaN
halogenbond:ARG:93     -1
Name: 87, dtype: object

>  <pication:ARG:93>  (88) 
pication:ARG:93    NaN
pication:ARG:93     -1
Name: 87, dtype: object

>  <hydroph_interaction:TYR:94>  (88) 
hydroph_interaction:TYR:94    NaN
hydroph_interaction:TYR:94     -1
Name: 87, dtype: object

>  <pistack:TYR:94>  (88) 
pistack:TYR:94    NaN
pistack:TYR:94     -1
Name: 87, dtype: object

>  <hbond:TYR:94>  (88) 
hbond:TYR:94    NaN
hbond:TYR:94     -1
Name: 87, dtype: object

>  <hbond:GLN:95>  (88) 
hbond:GLN:95    NaN
hbond:GLN:95     -1
Name: 87, dtype: object

>  <hydroph_interaction:GLN:95>  (88) 
hydroph_interaction:GLN:95    NaN
hydroph_interaction:GLN:95     -1
Name: 87, dtype: object

>  <halogenbond:GLN:95>  (88) 
halogenbond:GLN:95    NaN
halogenbond:GLN:95     -1
Name: 87, dtype: object

>  <hbond:SER:96>  (88) 
hbond:SER:96    NaN
hbond:SER:96     -1
Name: 87, dtype: object

>  <halogenbond:HIS:97>  (88) 
halogenbond:HIS:97    NaN
halogenbond:HIS:97     -1
Name: 87, dtype: object

>  <hydroph_interaction:LEU:98>  (88) 
hydroph_interaction:LEU:98    NaN
hydroph_interaction:LEU:98     -1
Name: 87, dtype: object

>  <hbond:LEU:98>  (88) 
hbond:LEU:98    NaN
hbond:LEU:98     -1
Name: 87, dtype: object

>  <halogenbond:LEU:98>  (88) 
halogenbond:LEU:98    NaN
halogenbond:LEU:98     -1
Name: 87, dtype: object

>  <hbond:MET:99>  (88) 
hbond:MET:99    NaN
hbond:MET:99     -1
Name: 87, dtype: object

>  <hydroph_interaction:MET:99>  (88) 
hydroph_interaction:MET:99    NaN
hydroph_interaction:MET:99     -1
Name: 87, dtype: object

>  <halogenbond:MET:99>  (88) 
halogenbond:MET:99    NaN
halogenbond:MET:99     -1
Name: 87, dtype: object

>  <hydroph_interaction:LEU:100>  (88) 
hydroph_interaction:LEU:100    NaN
hydroph_interaction:LEU:100     -1
Name: 87, dtype: object

>  <hbond:LEU:100>  (88) 
hbond:LEU:100    NaN
hbond:LEU:100     -1
Name: 87, dtype: object

>  <hbond:ALA:101>  (88) 
hbond:ALA:101    NaN
hbond:ALA:101     -1
Name: 87, dtype: object

>  <hydroph_interaction:ALA:101>  (88) 
hydroph_interaction:ALA:101    NaN
hydroph_interaction:ALA:101     -1
Name: 87, dtype: object

>  <hydroph_interaction:VAL:102>  (88) 
hydroph_interaction:VAL:102    NaN
hydroph_interaction:VAL:102     -1
Name: 87, dtype: object

>  <hbond:VAL:102>  (88) 
hbond:VAL:102    NaN
hbond:VAL:102     -1
Name: 87, dtype: object

>  <hbond:GLY:103>  (88) 
hbond:GLY:103    NaN
hbond:GLY:103     -1
Name: 87, dtype: object

>  <halogenbond:GLY:103>  (88) 
halogenbond:GLY:103    NaN
halogenbond:GLY:103     -1
Name: 87, dtype: object

>  <hbond:HIS:104>  (88) 
hbond:HIS:104    NaN
hbond:HIS:104     -1
Name: 87, dtype: object

>  <saltbridge:HIS:104>  (88) 
saltbridge:HIS:104    NaN
saltbridge:HIS:104     -1
Name: 87, dtype: object

>  <pication:HIS:104>  (88) 
pication:HIS:104    NaN
pication:HIS:104     -1
Name: 87, dtype: object

>  <halogenbond:HIS:104>  (88) 
halogenbond:HIS:104    NaN
halogenbond:HIS:104     -1
Name: 87, dtype: object

>  <hydroph_interaction:HIS:104>  (88) 
hydroph_interaction:HIS:104    NaN
hydroph_interaction:HIS:104     -1
Name: 87, dtype: object

>  <pistack:HIS:104>  (88) 
pistack:HIS:104    NaN
pistack:HIS:104     -1
Name: 87, dtype: object

>  <halogenbond:SER:105>  (88) 
halogenbond:SER:105    0.0
halogenbond:SER:105      0
Name: 87, dtype: object

>  <hbond:SER:105>  (88) 
hbond:SER:105    0.0
hbond:SER:105      0
Name: 87, dtype: object

>  <hbond:GLU:106>  (88) 
hbond:GLU:106    0.0
hbond:GLU:106      0
Name: 87, dtype: object

>  <hydroph_interaction:GLU:106>  (88) 
hydroph_interaction:GLU:106    0.0
hydroph_interaction:GLU:106      0
Name: 87, dtype: object

>  <saltbridge:GLU:106>  (88) 
saltbridge:GLU:106    NaN
saltbridge:GLU:106     -1
Name: 87, dtype: object

>  <halogenbond:GLU:106>  (88) 
halogenbond:GLU:106    NaN
halogenbond:GLU:106     -1
Name: 87, dtype: object

>  <hydroph_interaction:PRO:107>  (88) 
hydroph_interaction:PRO:107    1
hydroph_interaction:PRO:107    1
Name: 87, dtype: object

>  <hbond:PRO:107>  (88) 
hbond:PRO:107    NaN
hbond:PRO:107     -1
Name: 87, dtype: object

>  <halogenbond:PRO:107>  (88) 
halogenbond:PRO:107    NaN
halogenbond:PRO:107     -1
Name: 87, dtype: object

>  <hbond:GLY:108>  (88) 
hbond:GLY:108    NaN
hbond:GLY:108     -1
Name: 87, dtype: object

>  <halogenbond:GLY:108>  (88) 
halogenbond:GLY:108    NaN
halogenbond:GLY:108     -1
Name: 87, dtype: object

>  <hbond:ASP:109>  (88) 
hbond:ASP:109    NaN
hbond:ASP:109     -1
Name: 87, dtype: object

>  <hydroph_interaction:ASP:109>  (88) 
hydroph_interaction:ASP:109    NaN
hydroph_interaction:ASP:109     -1
Name: 87, dtype: object

>  <saltbridge:ASP:109>  (88) 
saltbridge:ASP:109    NaN
saltbridge:ASP:109     -1
Name: 87, dtype: object

>  <halogenbond:CYS:110>  (88) 
halogenbond:CYS:110    NaN
halogenbond:CYS:110     -1
Name: 87, dtype: object

>  <hbond:CYS:110>  (88) 
hbond:CYS:110    NaN
hbond:CYS:110     -1
Name: 87, dtype: object

>  <hbond:GLY:111>  (88) 
hbond:GLY:111    NaN
hbond:GLY:111     -1
Name: 87, dtype: object

>  <hbond:GLY:112>  (88) 
hbond:GLY:112    NaN
hbond:GLY:112     -1
Name: 87, dtype: object

>  <hbond:ILE:113>  (88) 
hbond:ILE:113    NaN
hbond:ILE:113     -1
Name: 87, dtype: object

>  <hydroph_interaction:LEU:114>  (88) 
hydroph_interaction:LEU:114    NaN
hydroph_interaction:LEU:114     -1
Name: 87, dtype: object

>  <hbond:LEU:114>  (88) 
hbond:LEU:114    NaN
hbond:LEU:114     -1
Name: 87, dtype: object

>  <hydroph_interaction:ILE:123>  (88) 
hydroph_interaction:ILE:123    NaN
hydroph_interaction:ILE:123     -1
Name: 87, dtype: object

>  <hbond:ILE:123>  (88) 
hbond:ILE:123    NaN
hbond:ILE:123     -1
Name: 87, dtype: object

>  <hydroph_interaction:VAL:124>  (88) 
hydroph_interaction:VAL:124    1.0
hydroph_interaction:VAL:124      1
Name: 87, dtype: object

>  <hbond:VAL:124>  (88) 
hbond:VAL:124    NaN
hbond:VAL:124     -1
Name: 87, dtype: object

>  <halogenbond:VAL:124>  (88) 
halogenbond:VAL:124    NaN
halogenbond:VAL:124     -1
Name: 87, dtype: object

>  <hbond:SER:125>  (88) 
hbond:SER:125    0
hbond:SER:125    0
Name: 87, dtype: object

>  <halogenbond:SER:125>  (88) 
halogenbond:SER:125    0.0
halogenbond:SER:125      0
Name: 87, dtype: object

>  <hydroph_interaction:THR:126>  (88) 
hydroph_interaction:THR:126    0.0
hydroph_interaction:THR:126      0
Name: 87, dtype: object

>  <hbond:THR:126>  (88) 
hbond:THR:126    NaN
hbond:THR:126     -1
Name: 87, dtype: object

>  <halogenbond:THR:126>  (88) 
halogenbond:THR:126    NaN
halogenbond:THR:126     -1
Name: 87, dtype: object

>  <hbond:GLY:127>  (88) 
hbond:GLY:127    0
hbond:GLY:127    0
Name: 87, dtype: object

>  <halogenbond:GLY:127>  (88) 
halogenbond:GLY:127    NaN
halogenbond:GLY:127     -1
Name: 87, dtype: object

>  <hydroph_interaction:GLY:127>  (88) 
hydroph_interaction:GLY:127    NaN
hydroph_interaction:GLY:127     -1
Name: 87, dtype: object

>  <hbond:GLY:128>  (88) 
hbond:GLY:128    NaN
hbond:GLY:128     -1
Name: 87, dtype: object

>  <halogenbond:GLY:128>  (88) 
halogenbond:GLY:128    NaN
halogenbond:GLY:128     -1
Name: 87, dtype: object

>  <hydroph_interaction:GLY:128>  (88) 
hydroph_interaction:GLY:128    NaN
hydroph_interaction:GLY:128     -1
Name: 87, dtype: object

>  <hbond:ASN:129>  (88) 
hbond:ASN:129    NaN
hbond:ASN:129     -1
Name: 87, dtype: object

>  <hydroph_interaction:ASN:129>  (88) 
hydroph_interaction:ASN:129    NaN
hydroph_interaction:ASN:129     -1
Name: 87, dtype: object

>  <halogenbond:ASN:129>  (88) 
halogenbond:ASN:129    NaN
halogenbond:ASN:129     -1
Name: 87, dtype: object

>  <hbond:GLY:130>  (88) 
hbond:GLY:130    NaN
hbond:GLY:130     -1
Name: 87, dtype: object

>  <hbond:LEU:131>  (88) 
hbond:LEU:131    NaN
hbond:LEU:131     -1
Name: 87, dtype: object

>  <hydroph_interaction:LEU:131>  (88) 
hydroph_interaction:LEU:131    NaN
hydroph_interaction:LEU:131     -1
Name: 87, dtype: object

>  <halogenbond:LEU:131>  (88) 
halogenbond:LEU:131    NaN
halogenbond:LEU:131     -1
Name: 87, dtype: object

>  <hydroph_interaction:VAL:132>  (88) 
hydroph_interaction:VAL:132    NaN
hydroph_interaction:VAL:132     -1
Name: 87, dtype: object

>  <hbond:VAL:132>  (88) 
hbond:VAL:132    NaN
hbond:VAL:132     -1
Name: 87, dtype: object

>  <hbond:GLY:133>  (88) 
hbond:GLY:133    NaN
hbond:GLY:133     -1
Name: 87, dtype: object

>  <halogenbond:GLY:133>  (88) 
halogenbond:GLY:133    NaN
halogenbond:GLY:133     -1
Name: 87, dtype: object

>  <hydroph_interaction:PHE:134>  (88) 
hydroph_interaction:PHE:134    NaN
hydroph_interaction:PHE:134     -1
Name: 87, dtype: object

>  <hbond:PHE:134>  (88) 
hbond:PHE:134    NaN
hbond:PHE:134     -1
Name: 87, dtype: object

>  <pistack:PHE:134>  (88) 
pistack:PHE:134    NaN
pistack:PHE:134     -1
Name: 87, dtype: object

>  <pication:PHE:134>  (88) 
pication:PHE:134    NaN
pication:PHE:134     -1
Name: 87, dtype: object

>  <halogenbond:PHE:134>  (88) 
halogenbond:PHE:134    NaN
halogenbond:PHE:134     -1
Name: 87, dtype: object

>  <hydroph_interaction:ALA:135>  (88) 
hydroph_interaction:ALA:135    NaN
hydroph_interaction:ALA:135     -1
Name: 87, dtype: object

>  <hbond:ALA:135>  (88) 
hbond:ALA:135    NaN
hbond:ALA:135     -1
Name: 87, dtype: object

$$$$
PV_002803505866
     RDKit          3D

 25 26  0  0  0  0  0  0  0  0999 V2000
   12.0560   15.1130   21.8820 C   0  0  0  0  0  0  0  0  0  0  0  0
   11.4660   14.1540   22.8720 C   0  0  0  0  0  0  0  0  0  0  0  0
   11.8620   14.1250   24.1950 C   0  0  0  0  0  0  0  0  0  0  0  0
   10.5280   13.3120   22.4080 C   0  0  0  0  0  0  0  0  0  0  0  0
    9.8370   12.3110   23.0870 C   0  0  0  0  0  0  0  0  0  0  0  0
   10.1320   10.9790   22.8210 C   0  0  0  0  0  0  0  0  0  0  0  0
    9.4370    9.8900   23.5070 C   0  0  0  0  0  0  0  0  0  0  0  0
    8.4020   10.2800   24.4950 C   0  0  0  0  0  0  0  0  0  0  0  0
    8.1220   11.6120   24.7410 C   0  0  0  0  0  0  0  0  0  0  0  0
    8.8390   12.5900   24.0390 C   0  0  0  0  0  0  0  0  0  0  0  0
    8.4110   13.8270   24.4270 O   0  0  0  0  0  0  0  0  0  0  0  0
    7.4400   13.6400   25.3580 C   0  0  0  0  0  0  0  0  0  0  0  0
    7.2270   12.3040   25.5860 C   0  0  0  0  0  0  0  0  0  0  0  0
   12.7260   14.5680   21.2090 H   0  0  0  0  0  0  0  0  0  0  0  0
   11.3120   15.6230   21.2640 H   0  0  0  0  0  0  0  0  0  0  0  0
   12.6670   15.8560   22.4080 H   0  0  0  0  0  0  0  0  0  0  0  0
   12.4070   14.9970   24.5570 H   0  0  0  0  0  0  0  0  0  0  0  0
   11.1030   13.9250   24.9380 H   0  0  0  0  0  0  0  0  0  0  0  0
   12.5550   13.2790   24.2690 H   0  0  0  0  0  0  0  0  0  0  0  0
   10.2510   13.3960   21.3580 H   0  0  0  0  0  0  0  0  0  0  0  0
   10.8880   10.7310   22.0940 H   0  0  0  0  0  0  0  0  0  0  0  0
    9.6770    8.8600   23.2960 H   0  0  0  0  0  0  0  0  0  0  0  0
    7.9030    9.4500   24.9850 H   0  0  0  0  0  0  0  0  0  0  0  0
    6.9950   14.5550   25.7660 H   0  0  0  0  0  0  0  0  0  0  0  0
    6.5120   11.8800   26.2750 H   0  0  0  0  0  0  0  0  0  0  0  0
  1  2  1  0
  2  3  1  0
  2  4  2  3
  4  5  1  0
  5  6  2  0
  6  7  1  0
  7  8  2  0
  8  9  1  0
  9 10  2  0
 10 11  1  0
 11 12  1  0
 12 13  2  0
 10  5  1  0
 13  9  1  0
  1 14  1  0
  1 15  1  0
  1 16  1  0
  3 17  1  0
  3 18  1  0
  3 19  1  0
  4 20  1  0
  6 21  1  0
  7 22  1  0
  8 23  1  0
 12 24  1  0
 13 25  1  0
A    1
 C1 
A    2
 C2 
A    3
 C3 
A    4
 C4 
A    5
 C5 
A    6
 C6 
A    7
 C7 
A    8
 C8 
A    9
 C9 
A   10
 C10
A   11
 O1 
A   12
 C11
A   13
 C12
A   14
 H1 
A   15
 H2 
A   16
 H3 
A   17
 H4 
A   18
 H5 
A   19
 H6 
A   20
 H7 
A   21
 H8 
A   22
 H9 
A   23
 H10
A   24
 H11
A   25
 H12
M  END
>  <ref_pdb>  (89) 
x0310_0A

>  <ref_mols>  (89) 
x0554_0A,x0739_0A

>  <original SMILES>  (89) 
CC(C)=Cc1cccc2ccoc12

>  <rationale>  (89) 
info halogenbond:C110+G127+D39+A86+S125+E85+Q95+E106+E88+T126+P107+H104+Y64+C65+S87+N129+F83+R93+L131+I82+G128+P91+N19+H21+V84+G133+Y90+Y89+H97+L81+F134+L98+R20+G103+S66+S67+S7+G108+R38+V124+M99+S36; hbond:Y90+Q95+D39+A86+E85+G108+G103+G128+G130+L131+N129+N19+H104+R68+V124+R93+P91+F83+S67+S7+S66+G112+G133+V132+R20+Y89+S77+A135+Y63+A92+A101+M99+F134+L100+I82+Y64+S36+L98+V84+L81+Y94+S80+R38+S37+V102+G8+I123+G111+I113+L114+C65+L22+S96; hydroph_interaction:V84+T126+H21+P107+L22+E85+E106+N129+D39+N19+L40+I123+A135+Q95+I82+L100+L98+L131+F83+R93+V132+Y63+F134+H104+R20+A86+V74+P91+A101+F76+M99+L114+A92+Y94+R68+Y72+Y64+V18+V102+W28+G127+G128+L81; pication:H21+H104+R93+Y63+F134+Y90+R68+F83+R20; pistack:H21+Y89+Y90+H104+F134+Y63+F83+Y94; saltbridge:D39+R93+H104+E106+D109+E85+E88+R68+R20; 

>  <intxn_cluster>  (89) 
-1

>  <intxn_cluster_rank>  (89) 
-1

>  <N_interactions>  (89) 
2

>  <∆∆G>  (89) 
-9.723362

>  <$/mg>  (89) 
163.0

>  <comRMSD>  (89) 
0.740888

>  <N_rotatable_bonds>  (89) 
3

>  <deep_P1_sidechain>  (89) 
nan

>  <farthest_distance_to_substrate>  (89) 
2.380422

>  <hbond:SER:7>  (89) 
hbond:SER:7    NaN
hbond:SER:7     -1
Name: 88, dtype: object

>  <halogenbond:SER:7>  (89) 
halogenbond:SER:7    NaN
halogenbond:SER:7     -1
Name: 88, dtype: object

>  <hbond:GLY:8>  (89) 
hbond:GLY:8    NaN
hbond:GLY:8     -1
Name: 88, dtype: object

>  <hydroph_interaction:VAL:18>  (89) 
hydroph_interaction:VAL:18    NaN
hydroph_interaction:VAL:18     -1
Name: 88, dtype: object

>  <hbond:ASN:19>  (89) 
hbond:ASN:19    NaN
hbond:ASN:19     -1
Name: 88, dtype: object

>  <hydroph_interaction:ASN:19>  (89) 
hydroph_interaction:ASN:19    NaN
hydroph_interaction:ASN:19     -1
Name: 88, dtype: object

>  <halogenbond:ASN:19>  (89) 
halogenbond:ASN:19    NaN
halogenbond:ASN:19     -1
Name: 88, dtype: object

>  <hbond:ARG:20>  (89) 
hbond:ARG:20    NaN
hbond:ARG:20     -1
Name: 88, dtype: object

>  <hydroph_interaction:ARG:20>  (89) 
hydroph_interaction:ARG:20    NaN
hydroph_interaction:ARG:20     -1
Name: 88, dtype: object

>  <saltbridge:ARG:20>  (89) 
saltbridge:ARG:20    NaN
saltbridge:ARG:20     -1
Name: 88, dtype: object

>  <halogenbond:ARG:20>  (89) 
halogenbond:ARG:20    NaN
halogenbond:ARG:20     -1
Name: 88, dtype: object

>  <pication:ARG:20>  (89) 
pication:ARG:20    NaN
pication:ARG:20     -1
Name: 88, dtype: object

>  <hbond:HIS:21>  (89) 
hbond:HIS:21    0.0
hbond:HIS:21      0
Name: 88, dtype: object

>  <hydroph_interaction:HIS:21>  (89) 
hydroph_interaction:HIS:21    NaN
hydroph_interaction:HIS:21     -1
Name: 88, dtype: object

>  <pistack:HIS:21>  (89) 
pistack:HIS:21    NaN
pistack:HIS:21     -1
Name: 88, dtype: object

>  <pication:HIS:21>  (89) 
pication:HIS:21    NaN
pication:HIS:21     -1
Name: 88, dtype: object

>  <saltbridge:HIS:21>  (89) 
saltbridge:HIS:21    0.0
saltbridge:HIS:21      0
Name: 88, dtype: object

>  <halogenbond:HIS:21>  (89) 
halogenbond:HIS:21    NaN
halogenbond:HIS:21     -1
Name: 88, dtype: object

>  <hydroph_interaction:LEU:22>  (89) 
hydroph_interaction:LEU:22    NaN
hydroph_interaction:LEU:22     -1
Name: 88, dtype: object

>  <hbond:LEU:22>  (89) 
hbond:LEU:22    NaN
hbond:LEU:22     -1
Name: 88, dtype: object

>  <hydroph_interaction:TRP:28>  (89) 
hydroph_interaction:TRP:28    NaN
hydroph_interaction:TRP:28     -1
Name: 88, dtype: object

>  <hbond:SER:36>  (89) 
hbond:SER:36    NaN
hbond:SER:36     -1
Name: 88, dtype: object

>  <halogenbond:SER:36>  (89) 
halogenbond:SER:36    NaN
halogenbond:SER:36     -1
Name: 88, dtype: object

>  <hbond:SER:37>  (89) 
hbond:SER:37    NaN
hbond:SER:37     -1
Name: 88, dtype: object

>  <hbond:ARG:38>  (89) 
hbond:ARG:38    NaN
hbond:ARG:38     -1
Name: 88, dtype: object

>  <halogenbond:ARG:38>  (89) 
halogenbond:ARG:38    NaN
halogenbond:ARG:38     -1
Name: 88, dtype: object

>  <saltbridge:ASP:39>  (89) 
saltbridge:ASP:39    NaN
saltbridge:ASP:39     -1
Name: 88, dtype: object

>  <halogenbond:ASP:39>  (89) 
halogenbond:ASP:39    NaN
halogenbond:ASP:39     -1
Name: 88, dtype: object

>  <hbond:ASP:39>  (89) 
hbond:ASP:39    NaN
hbond:ASP:39     -1
Name: 88, dtype: object

>  <hydroph_interaction:ASP:39>  (89) 
hydroph_interaction:ASP:39    NaN
hydroph_interaction:ASP:39     -1
Name: 88, dtype: object

>  <hydroph_interaction:LEU:40>  (89) 
hydroph_interaction:LEU:40    NaN
hydroph_interaction:LEU:40     -1
Name: 88, dtype: object

>  <hydroph_interaction:TYR:63>  (89) 
hydroph_interaction:TYR:63    NaN
hydroph_interaction:TYR:63     -1
Name: 88, dtype: object

>  <hbond:TYR:63>  (89) 
hbond:TYR:63    NaN
hbond:TYR:63     -1
Name: 88, dtype: object

>  <pistack:TYR:63>  (89) 
pistack:TYR:63    NaN
pistack:TYR:63     -1
Name: 88, dtype: object

>  <pication:TYR:63>  (89) 
pication:TYR:63    NaN
pication:TYR:63     -1
Name: 88, dtype: object

>  <halogenbond:TYR:64>  (89) 
halogenbond:TYR:64    NaN
halogenbond:TYR:64     -1
Name: 88, dtype: object

>  <hbond:TYR:64>  (89) 
hbond:TYR:64    NaN
hbond:TYR:64     -1
Name: 88, dtype: object

>  <hydroph_interaction:TYR:64>  (89) 
hydroph_interaction:TYR:64    NaN
hydroph_interaction:TYR:64     -1
Name: 88, dtype: object

>  <halogenbond:CYS:65>  (89) 
halogenbond:CYS:65    NaN
halogenbond:CYS:65     -1
Name: 88, dtype: object

>  <hbond:CYS:65>  (89) 
hbond:CYS:65    NaN
hbond:CYS:65     -1
Name: 88, dtype: object

>  <hbond:SER:66>  (89) 
hbond:SER:66    NaN
hbond:SER:66     -1
Name: 88, dtype: object

>  <halogenbond:SER:66>  (89) 
halogenbond:SER:66    NaN
halogenbond:SER:66     -1
Name: 88, dtype: object

>  <hbond:SER:67>  (89) 
hbond:SER:67    NaN
hbond:SER:67     -1
Name: 88, dtype: object

>  <halogenbond:SER:67>  (89) 
halogenbond:SER:67    NaN
halogenbond:SER:67     -1
Name: 88, dtype: object

>  <hbond:ARG:68>  (89) 
hbond:ARG:68    NaN
hbond:ARG:68     -1
Name: 88, dtype: object

>  <saltbridge:ARG:68>  (89) 
saltbridge:ARG:68    NaN
saltbridge:ARG:68     -1
Name: 88, dtype: object

>  <hydroph_interaction:ARG:68>  (89) 
hydroph_interaction:ARG:68    NaN
hydroph_interaction:ARG:68     -1
Name: 88, dtype: object

>  <pication:ARG:68>  (89) 
pication:ARG:68    NaN
pication:ARG:68     -1
Name: 88, dtype: object

>  <hydroph_interaction:TYR:72>  (89) 
hydroph_interaction:TYR:72    NaN
hydroph_interaction:TYR:72     -1
Name: 88, dtype: object

>  <hydroph_interaction:VAL:74>  (89) 
hydroph_interaction:VAL:74    NaN
hydroph_interaction:VAL:74     -1
Name: 88, dtype: object

>  <hydroph_interaction:PHE:76>  (89) 
hydroph_interaction:PHE:76    NaN
hydroph_interaction:PHE:76     -1
Name: 88, dtype: object

>  <hbond:SER:77>  (89) 
hbond:SER:77    NaN
hbond:SER:77     -1
Name: 88, dtype: object

>  <hbond:SER:80>  (89) 
hbond:SER:80    NaN
hbond:SER:80     -1
Name: 88, dtype: object

>  <hbond:LEU:81>  (89) 
hbond:LEU:81    NaN
hbond:LEU:81     -1
Name: 88, dtype: object

>  <halogenbond:LEU:81>  (89) 
halogenbond:LEU:81    NaN
halogenbond:LEU:81     -1
Name: 88, dtype: object

>  <hydroph_interaction:LEU:81>  (89) 
hydroph_interaction:LEU:81    NaN
hydroph_interaction:LEU:81     -1
Name: 88, dtype: object

>  <hydroph_interaction:ILE:82>  (89) 
hydroph_interaction:ILE:82    NaN
hydroph_interaction:ILE:82     -1
Name: 88, dtype: object

>  <halogenbond:ILE:82>  (89) 
halogenbond:ILE:82    NaN
halogenbond:ILE:82     -1
Name: 88, dtype: object

>  <hbond:ILE:82>  (89) 
hbond:ILE:82    NaN
hbond:ILE:82     -1
Name: 88, dtype: object

>  <hbond:PHE:83>  (89) 
hbond:PHE:83    NaN
hbond:PHE:83     -1
Name: 88, dtype: object

>  <hydroph_interaction:PHE:83>  (89) 
hydroph_interaction:PHE:83    NaN
hydroph_interaction:PHE:83     -1
Name: 88, dtype: object

>  <halogenbond:PHE:83>  (89) 
halogenbond:PHE:83    NaN
halogenbond:PHE:83     -1
Name: 88, dtype: object

>  <pistack:PHE:83>  (89) 
pistack:PHE:83    NaN
pistack:PHE:83     -1
Name: 88, dtype: object

>  <pication:PHE:83>  (89) 
pication:PHE:83    NaN
pication:PHE:83     -1
Name: 88, dtype: object

>  <hydroph_interaction:VAL:84>  (89) 
hydroph_interaction:VAL:84    NaN
hydroph_interaction:VAL:84     -1
Name: 88, dtype: object

>  <halogenbond:VAL:84>  (89) 
halogenbond:VAL:84    NaN
halogenbond:VAL:84     -1
Name: 88, dtype: object

>  <hbond:VAL:84>  (89) 
hbond:VAL:84    NaN
hbond:VAL:84     -1
Name: 88, dtype: object

>  <hydroph_interaction:GLU:85>  (89) 
hydroph_interaction:GLU:85    NaN
hydroph_interaction:GLU:85     -1
Name: 88, dtype: object

>  <hbond:GLU:85>  (89) 
hbond:GLU:85    NaN
hbond:GLU:85     -1
Name: 88, dtype: object

>  <halogenbond:GLU:85>  (89) 
halogenbond:GLU:85    NaN
halogenbond:GLU:85     -1
Name: 88, dtype: object

>  <saltbridge:GLU:85>  (89) 
saltbridge:GLU:85    NaN
saltbridge:GLU:85     -1
Name: 88, dtype: object

>  <halogenbond:ALA:86>  (89) 
halogenbond:ALA:86    NaN
halogenbond:ALA:86     -1
Name: 88, dtype: object

>  <hbond:ALA:86>  (89) 
hbond:ALA:86    NaN
hbond:ALA:86     -1
Name: 88, dtype: object

>  <hydroph_interaction:ALA:86>  (89) 
hydroph_interaction:ALA:86    NaN
hydroph_interaction:ALA:86     -1
Name: 88, dtype: object

>  <hbond:SER:87>  (89) 
hbond:SER:87    0
hbond:SER:87    0
Name: 88, dtype: object

>  <halogenbond:SER:87>  (89) 
halogenbond:SER:87    NaN
halogenbond:SER:87     -1
Name: 88, dtype: object

>  <hbond:GLU:88>  (89) 
hbond:GLU:88    0.0
hbond:GLU:88      0
Name: 88, dtype: object

>  <hydroph_interaction:GLU:88>  (89) 
hydroph_interaction:GLU:88    0.0
hydroph_interaction:GLU:88      0
Name: 88, dtype: object

>  <halogenbond:GLU:88>  (89) 
halogenbond:GLU:88    NaN
halogenbond:GLU:88     -1
Name: 88, dtype: object

>  <saltbridge:GLU:88>  (89) 
saltbridge:GLU:88    NaN
saltbridge:GLU:88     -1
Name: 88, dtype: object

>  <hydroph_interaction:TYR:89>  (89) 
hydroph_interaction:TYR:89    0.0
hydroph_interaction:TYR:89      0
Name: 88, dtype: object

>  <pistack:TYR:89>  (89) 
pistack:TYR:89    NaN
pistack:TYR:89     -1
Name: 88, dtype: object

>  <hbond:TYR:89>  (89) 
hbond:TYR:89    NaN
hbond:TYR:89     -1
Name: 88, dtype: object

>  <halogenbond:TYR:89>  (89) 
halogenbond:TYR:89    NaN
halogenbond:TYR:89     -1
Name: 88, dtype: object

>  <hydroph_interaction:TYR:90>  (89) 
hydroph_interaction:TYR:90    0.0
hydroph_interaction:TYR:90      0
Name: 88, dtype: object

>  <hbond:TYR:90>  (89) 
hbond:TYR:90    NaN
hbond:TYR:90     -1
Name: 88, dtype: object

>  <pistack:TYR:90>  (89) 
pistack:TYR:90    NaN
pistack:TYR:90     -1
Name: 88, dtype: object

>  <halogenbond:TYR:90>  (89) 
halogenbond:TYR:90    NaN
halogenbond:TYR:90     -1
Name: 88, dtype: object

>  <pication:TYR:90>  (89) 
pication:TYR:90    NaN
pication:TYR:90     -1
Name: 88, dtype: object

>  <hbond:PRO:91>  (89) 
hbond:PRO:91    NaN
hbond:PRO:91     -1
Name: 88, dtype: object

>  <hydroph_interaction:PRO:91>  (89) 
hydroph_interaction:PRO:91    NaN
hydroph_interaction:PRO:91     -1
Name: 88, dtype: object

>  <halogenbond:PRO:91>  (89) 
halogenbond:PRO:91    NaN
halogenbond:PRO:91     -1
Name: 88, dtype: object

>  <hbond:ALA:92>  (89) 
hbond:ALA:92    NaN
hbond:ALA:92     -1
Name: 88, dtype: object

>  <hydroph_interaction:ALA:92>  (89) 
hydroph_interaction:ALA:92    NaN
hydroph_interaction:ALA:92     -1
Name: 88, dtype: object

>  <saltbridge:ARG:93>  (89) 
saltbridge:ARG:93    NaN
saltbridge:ARG:93     -1
Name: 88, dtype: object

>  <hbond:ARG:93>  (89) 
hbond:ARG:93    NaN
hbond:ARG:93     -1
Name: 88, dtype: object

>  <hydroph_interaction:ARG:93>  (89) 
hydroph_interaction:ARG:93    NaN
hydroph_interaction:ARG:93     -1
Name: 88, dtype: object

>  <halogenbond:ARG:93>  (89) 
halogenbond:ARG:93    NaN
halogenbond:ARG:93     -1
Name: 88, dtype: object

>  <pication:ARG:93>  (89) 
pication:ARG:93    NaN
pication:ARG:93     -1
Name: 88, dtype: object

>  <hydroph_interaction:TYR:94>  (89) 
hydroph_interaction:TYR:94    NaN
hydroph_interaction:TYR:94     -1
Name: 88, dtype: object

>  <pistack:TYR:94>  (89) 
pistack:TYR:94    NaN
pistack:TYR:94     -1
Name: 88, dtype: object

>  <hbond:TYR:94>  (89) 
hbond:TYR:94    NaN
hbond:TYR:94     -1
Name: 88, dtype: object

>  <hbond:GLN:95>  (89) 
hbond:GLN:95    NaN
hbond:GLN:95     -1
Name: 88, dtype: object

>  <hydroph_interaction:GLN:95>  (89) 
hydroph_interaction:GLN:95    NaN
hydroph_interaction:GLN:95     -1
Name: 88, dtype: object

>  <halogenbond:GLN:95>  (89) 
halogenbond:GLN:95    NaN
halogenbond:GLN:95     -1
Name: 88, dtype: object

>  <hbond:SER:96>  (89) 
hbond:SER:96    NaN
hbond:SER:96     -1
Name: 88, dtype: object

>  <halogenbond:HIS:97>  (89) 
halogenbond:HIS:97    NaN
halogenbond:HIS:97     -1
Name: 88, dtype: object

>  <hydroph_interaction:LEU:98>  (89) 
hydroph_interaction:LEU:98    NaN
hydroph_interaction:LEU:98     -1
Name: 88, dtype: object

>  <hbond:LEU:98>  (89) 
hbond:LEU:98    NaN
hbond:LEU:98     -1
Name: 88, dtype: object

>  <halogenbond:LEU:98>  (89) 
halogenbond:LEU:98    NaN
halogenbond:LEU:98     -1
Name: 88, dtype: object

>  <hbond:MET:99>  (89) 
hbond:MET:99    NaN
hbond:MET:99     -1
Name: 88, dtype: object

>  <hydroph_interaction:MET:99>  (89) 
hydroph_interaction:MET:99    NaN
hydroph_interaction:MET:99     -1
Name: 88, dtype: object

>  <halogenbond:MET:99>  (89) 
halogenbond:MET:99    NaN
halogenbond:MET:99     -1
Name: 88, dtype: object

>  <hydroph_interaction:LEU:100>  (89) 
hydroph_interaction:LEU:100    NaN
hydroph_interaction:LEU:100     -1
Name: 88, dtype: object

>  <hbond:LEU:100>  (89) 
hbond:LEU:100    NaN
hbond:LEU:100     -1
Name: 88, dtype: object

>  <hbond:ALA:101>  (89) 
hbond:ALA:101    NaN
hbond:ALA:101     -1
Name: 88, dtype: object

>  <hydroph_interaction:ALA:101>  (89) 
hydroph_interaction:ALA:101    NaN
hydroph_interaction:ALA:101     -1
Name: 88, dtype: object

>  <hydroph_interaction:VAL:102>  (89) 
hydroph_interaction:VAL:102    NaN
hydroph_interaction:VAL:102     -1
Name: 88, dtype: object

>  <hbond:VAL:102>  (89) 
hbond:VAL:102    NaN
hbond:VAL:102     -1
Name: 88, dtype: object

>  <hbond:GLY:103>  (89) 
hbond:GLY:103    NaN
hbond:GLY:103     -1
Name: 88, dtype: object

>  <halogenbond:GLY:103>  (89) 
halogenbond:GLY:103    NaN
halogenbond:GLY:103     -1
Name: 88, dtype: object

>  <hbond:HIS:104>  (89) 
hbond:HIS:104    NaN
hbond:HIS:104     -1
Name: 88, dtype: object

>  <saltbridge:HIS:104>  (89) 
saltbridge:HIS:104    NaN
saltbridge:HIS:104     -1
Name: 88, dtype: object

>  <pication:HIS:104>  (89) 
pication:HIS:104    NaN
pication:HIS:104     -1
Name: 88, dtype: object

>  <halogenbond:HIS:104>  (89) 
halogenbond:HIS:104    NaN
halogenbond:HIS:104     -1
Name: 88, dtype: object

>  <hydroph_interaction:HIS:104>  (89) 
hydroph_interaction:HIS:104    NaN
hydroph_interaction:HIS:104     -1
Name: 88, dtype: object

>  <pistack:HIS:104>  (89) 
pistack:HIS:104    NaN
pistack:HIS:104     -1
Name: 88, dtype: object

>  <halogenbond:SER:105>  (89) 
halogenbond:SER:105    0.0
halogenbond:SER:105      0
Name: 88, dtype: object

>  <hbond:SER:105>  (89) 
hbond:SER:105    0.0
hbond:SER:105      0
Name: 88, dtype: object

>  <hbond:GLU:106>  (89) 
hbond:GLU:106    0.0
hbond:GLU:106      0
Name: 88, dtype: object

>  <hydroph_interaction:GLU:106>  (89) 
hydroph_interaction:GLU:106    NaN
hydroph_interaction:GLU:106     -1
Name: 88, dtype: object

>  <saltbridge:GLU:106>  (89) 
saltbridge:GLU:106    NaN
saltbridge:GLU:106     -1
Name: 88, dtype: object

>  <halogenbond:GLU:106>  (89) 
halogenbond:GLU:106    NaN
halogenbond:GLU:106     -1
Name: 88, dtype: object

>  <hydroph_interaction:PRO:107>  (89) 
hydroph_interaction:PRO:107    2
hydroph_interaction:PRO:107    2
Name: 88, dtype: object

>  <hbond:PRO:107>  (89) 
hbond:PRO:107    0.0
hbond:PRO:107      0
Name: 88, dtype: object

>  <halogenbond:PRO:107>  (89) 
halogenbond:PRO:107    NaN
halogenbond:PRO:107     -1
Name: 88, dtype: object

>  <hbond:GLY:108>  (89) 
hbond:GLY:108    NaN
hbond:GLY:108     -1
Name: 88, dtype: object

>  <halogenbond:GLY:108>  (89) 
halogenbond:GLY:108    NaN
halogenbond:GLY:108     -1
Name: 88, dtype: object

>  <hbond:ASP:109>  (89) 
hbond:ASP:109    0.0
hbond:ASP:109      0
Name: 88, dtype: object

>  <hydroph_interaction:ASP:109>  (89) 
hydroph_interaction:ASP:109    0.0
hydroph_interaction:ASP:109      0
Name: 88, dtype: object

>  <saltbridge:ASP:109>  (89) 
saltbridge:ASP:109    NaN
saltbridge:ASP:109     -1
Name: 88, dtype: object

>  <halogenbond:CYS:110>  (89) 
halogenbond:CYS:110    NaN
halogenbond:CYS:110     -1
Name: 88, dtype: object

>  <hbond:CYS:110>  (89) 
hbond:CYS:110    0.0
hbond:CYS:110      0
Name: 88, dtype: object

>  <hbond:GLY:111>  (89) 
hbond:GLY:111    NaN
hbond:GLY:111     -1
Name: 88, dtype: object

>  <hbond:GLY:112>  (89) 
hbond:GLY:112    NaN
hbond:GLY:112     -1
Name: 88, dtype: object

>  <hbond:ILE:113>  (89) 
hbond:ILE:113    NaN
hbond:ILE:113     -1
Name: 88, dtype: object

>  <hydroph_interaction:LEU:114>  (89) 
hydroph_interaction:LEU:114    NaN
hydroph_interaction:LEU:114     -1
Name: 88, dtype: object

>  <hbond:LEU:114>  (89) 
hbond:LEU:114    NaN
hbond:LEU:114     -1
Name: 88, dtype: object

>  <hydroph_interaction:ILE:123>  (89) 
hydroph_interaction:ILE:123    NaN
hydroph_interaction:ILE:123     -1
Name: 88, dtype: object

>  <hbond:ILE:123>  (89) 
hbond:ILE:123    NaN
hbond:ILE:123     -1
Name: 88, dtype: object

>  <hydroph_interaction:VAL:124>  (89) 
hydroph_interaction:VAL:124    0.0
hydroph_interaction:VAL:124      0
Name: 88, dtype: object

>  <hbond:VAL:124>  (89) 
hbond:VAL:124    NaN
hbond:VAL:124     -1
Name: 88, dtype: object

>  <halogenbond:VAL:124>  (89) 
halogenbond:VAL:124    NaN
halogenbond:VAL:124     -1
Name: 88, dtype: object

>  <hbond:SER:125>  (89) 
hbond:SER:125    0
hbond:SER:125    0
Name: 88, dtype: object

>  <halogenbond:SER:125>  (89) 
halogenbond:SER:125    NaN
halogenbond:SER:125     -1
Name: 88, dtype: object

>  <hydroph_interaction:THR:126>  (89) 
hydroph_interaction:THR:126    NaN
hydroph_interaction:THR:126     -1
Name: 88, dtype: object

>  <hbond:THR:126>  (89) 
hbond:THR:126    0.0
hbond:THR:126      0
Name: 88, dtype: object

>  <halogenbond:THR:126>  (89) 
halogenbond:THR:126    NaN
halogenbond:THR:126     -1
Name: 88, dtype: object

>  <hbond:GLY:127>  (89) 
hbond:GLY:127    0
hbond:GLY:127    0
Name: 88, dtype: object

>  <halogenbond:GLY:127>  (89) 
halogenbond:GLY:127    NaN
halogenbond:GLY:127     -1
Name: 88, dtype: object

>  <hydroph_interaction:GLY:127>  (89) 
hydroph_interaction:GLY:127    NaN
hydroph_interaction:GLY:127     -1
Name: 88, dtype: object

>  <hbond:GLY:128>  (89) 
hbond:GLY:128    NaN
hbond:GLY:128     -1
Name: 88, dtype: object

>  <halogenbond:GLY:128>  (89) 
halogenbond:GLY:128    NaN
halogenbond:GLY:128     -1
Name: 88, dtype: object

>  <hydroph_interaction:GLY:128>  (89) 
hydroph_interaction:GLY:128    NaN
hydroph_interaction:GLY:128     -1
Name: 88, dtype: object

>  <hbond:ASN:129>  (89) 
hbond:ASN:129    NaN
hbond:ASN:129     -1
Name: 88, dtype: object

>  <hydroph_interaction:ASN:129>  (89) 
hydroph_interaction:ASN:129    NaN
hydroph_interaction:ASN:129     -1
Name: 88, dtype: object

>  <halogenbond:ASN:129>  (89) 
halogenbond:ASN:129    NaN
halogenbond:ASN:129     -1
Name: 88, dtype: object

>  <hbond:GLY:130>  (89) 
hbond:GLY:130    NaN
hbond:GLY:130     -1
Name: 88, dtype: object

>  <hbond:LEU:131>  (89) 
hbond:LEU:131    NaN
hbond:LEU:131     -1
Name: 88, dtype: object

>  <hydroph_interaction:LEU:131>  (89) 
hydroph_interaction:LEU:131    NaN
hydroph_interaction:LEU:131     -1
Name: 88, dtype: object

>  <halogenbond:LEU:131>  (89) 
halogenbond:LEU:131    NaN
halogenbond:LEU:131     -1
Name: 88, dtype: object

>  <hydroph_interaction:VAL:132>  (89) 
hydroph_interaction:VAL:132    NaN
hydroph_interaction:VAL:132     -1
Name: 88, dtype: object

>  <hbond:VAL:132>  (89) 
hbond:VAL:132    NaN
hbond:VAL:132     -1
Name: 88, dtype: object

>  <hbond:GLY:133>  (89) 
hbond:GLY:133    NaN
hbond:GLY:133     -1
Name: 88, dtype: object

>  <halogenbond:GLY:133>  (89) 
halogenbond:GLY:133    NaN
halogenbond:GLY:133     -1
Name: 88, dtype: object

>  <hydroph_interaction:PHE:134>  (89) 
hydroph_interaction:PHE:134    NaN
hydroph_interaction:PHE:134     -1
Name: 88, dtype: object

>  <hbond:PHE:134>  (89) 
hbond:PHE:134    NaN
hbond:PHE:134     -1
Name: 88, dtype: object

>  <pistack:PHE:134>  (89) 
pistack:PHE:134    NaN
pistack:PHE:134     -1
Name: 88, dtype: object

>  <pication:PHE:134>  (89) 
pication:PHE:134    NaN
pication:PHE:134     -1
Name: 88, dtype: object

>  <halogenbond:PHE:134>  (89) 
halogenbond:PHE:134    NaN
halogenbond:PHE:134     -1
Name: 88, dtype: object

>  <hydroph_interaction:ALA:135>  (89) 
hydroph_interaction:ALA:135    NaN
hydroph_interaction:ALA:135     -1
Name: 88, dtype: object

>  <hbond:ALA:135>  (89) 
hbond:ALA:135    NaN
hbond:ALA:135     -1
Name: 88, dtype: object

$$$$
Z133624838
     RDKit          3D

 25 25  0  0  0  0  0  0  0  0999 V2000
   10.3440    9.1690   22.4770 C   0  0  0  0  0  0  0  0  0  0  0  0
    9.7330   10.3690   23.1160 C   0  0  0  0  0  0  0  0  0  0  0  0
    8.6960   10.2440   24.0340 C   0  0  0  0  0  0  0  0  0  0  0  0
    8.1210   11.3820   24.6070 C   0  0  0  0  0  0  0  0  0  0  0  0
    7.0000   11.2450   25.5860 C   0  0  0  0  0  0  0  0  0  0  0  0
    8.6070   12.6460   24.2470 C   0  0  0  0  0  0  0  0  0  0  0  0
    9.6540   12.7760   23.3310 C   0  0  0  0  0  0  0  0  0  0  0  0
   10.0540   14.0710   23.0500 O   0  0  0  0  0  0  0  0  0  0  0  0
   11.3600   14.4530   22.1330 S   0  0  0  0  0  6  0  0  0  0  0  0
   12.2620   15.3750   23.3540 C   0  0  0  0  0  0  0  0  0  0  0  0
   12.1750   13.3010   21.8930 O   0  0  0  0  0  0  0  0  0  0  0  0
   10.9890   15.3830   21.0730 O   0  0  0  0  0  0  0  0  0  0  0  0
   10.2030   11.6330   22.7810 C   0  0  0  0  0  0  0  0  0  0  0  0
    9.5730    8.5510   22.0220 H   0  0  0  0  0  0  0  0  0  0  0  0
   11.0170    9.4860   21.6850 H   0  0  0  0  0  0  0  0  0  0  0  0
   10.8960    8.5630   23.2000 H   0  0  0  0  0  0  0  0  0  0  0  0
    8.3280    9.2580   24.3030 H   0  0  0  0  0  0  0  0  0  0  0  0
    6.6980   10.1940   25.6700 H   0  0  0  0  0  0  0  0  0  0  0  0
    7.2890   11.6120   26.5720 H   0  0  0  0  0  0  0  0  0  0  0  0
    6.1390   11.8410   25.2750 H   0  0  0  0  0  0  0  0  0  0  0  0
    8.1640   13.5340   24.6870 H   0  0  0  0  0  0  0  0  0  0  0  0
   12.3820   16.3970   22.9910 H   0  0  0  0  0  0  0  0  0  0  0  0
   11.7180   15.3570   24.2970 H   0  0  0  0  0  0  0  0  0  0  0  0
   13.2400   14.9070   23.4770 H   0  0  0  0  0  0  0  0  0  0  0  0
   11.0110   11.6980   22.0740 H   0  0  0  0  0  0  0  0  0  0  0  0
  1  2  1  0
  2  3  2  0
  3  4  1  0
  4  5  1  0
  4  6  2  0
  6  7  1  0
  7  8  1  0
  8  9  1  0
  9 10  1  0
  9 11  2  0
  9 12  2  0
  7 13  2  0
 13  2  1  0
  1 14  1  0
  1 15  1  0
  1 16  1  0
  3 17  1  0
  5 18  1  0
  5 19  1  0
  5 20  1  0
  6 21  1  0
 10 22  1  0
 10 23  1  0
 10 24  1  0
 13 25  1  0
A    1
 C1 
A    2
 C2 
A    3
 C3 
A    4
 C4 
A    5
 C5 
A    6
 C6 
A    7
 C7 
A    8
 O1 
A    9
 S1 
A   10
 C8 
A   11
 O2 
A   12
 O3 
A   13
 C9 
A   14
 H1 
A   15
 H2 
A   16
 H3 
A   17
 H4 
A   18
 H5 
A   19
 H6 
A   20
 H7 
A   21
 H8 
A   22
 H9 
A   23
 H10
A   24
 H11
A   25
 H12
M  END
>  <ref_pdb>  (90) 
x0310_0A

>  <ref_mols>  (90) 
x0554_0A,x0739_0A

>  <original SMILES>  (90) 
Cc1cc(C)cc(OS(C)(=O)=O)c1

>  <rationale>  (90) 
info halogenbond:G127+D39+Q95+E106+E88+T126+P107+H104+Y64+C65+S87+N129+F83+R93+L131+I82+G128+P91+N19+H21+V84+G133+Y90+Y89+H97+L81+F134+L98+R20+G103+S66+S67+S7+G108+R38+V124+M99+S36; hbond:S87+S125+Y90+Q95+G108+G103+G128+G130+L131+N129+N19+H104+R68+R93+P91+F83+S67+S7+S66+G112+V132+R20+Y89+S77+A135+Y63+A92+A101+M99+F134+L100+I82+Y64+S36+L98+V84+L81+Y94+S80+R38+S37+V102+G8+I123+G111+I113+L114+C65+L22+S96; hydroph_interaction:V124+L22+E106+E88+N129+D39+N19+L40+I123+A135+Q95+I82+L100+L98+L131+F83+R93+Y63+F134+H104+R20+A86+V74+P91+A101+F76+M99+L114+A92+Y94+R68+Y72+Y64+V18+V102+W28+G127+G128+L81; pication:H104+R93+Y63+F134+Y90+R68+F83+R20; pistack:H21+Y89+Y90+H104+F134+Y63+F83+Y94; saltbridge:D39+H21+R93+H104+E106+E85+E88+R68+R20; 

>  <intxn_cluster>  (90) 
-1

>  <intxn_cluster_rank>  (90) 
-1

>  <N_interactions>  (90) 
5

>  <∆∆G>  (90) 
-11.386434

>  <$/mg>  (90) 
163.0

>  <comRMSD>  (90) 
0.907461

>  <N_rotatable_bonds>  (90) 
5

>  <deep_P1_sidechain>  (90) 
nan

>  <farthest_distance_to_substrate>  (90) 
2.280362

>  <hbond:SER:7>  (90) 
hbond:SER:7    NaN
hbond:SER:7     -1
Name: 89, dtype: object

>  <halogenbond:SER:7>  (90) 
halogenbond:SER:7    NaN
halogenbond:SER:7     -1
Name: 89, dtype: object

>  <hbond:GLY:8>  (90) 
hbond:GLY:8    NaN
hbond:GLY:8     -1
Name: 89, dtype: object

>  <hydroph_interaction:VAL:18>  (90) 
hydroph_interaction:VAL:18    NaN
hydroph_interaction:VAL:18     -1
Name: 89, dtype: object

>  <hbond:ASN:19>  (90) 
hbond:ASN:19    NaN
hbond:ASN:19     -1
Name: 89, dtype: object

>  <hydroph_interaction:ASN:19>  (90) 
hydroph_interaction:ASN:19    NaN
hydroph_interaction:ASN:19     -1
Name: 89, dtype: object

>  <halogenbond:ASN:19>  (90) 
halogenbond:ASN:19    NaN
halogenbond:ASN:19     -1
Name: 89, dtype: object

>  <hbond:ARG:20>  (90) 
hbond:ARG:20    NaN
hbond:ARG:20     -1
Name: 89, dtype: object

>  <hydroph_interaction:ARG:20>  (90) 
hydroph_interaction:ARG:20    NaN
hydroph_interaction:ARG:20     -1
Name: 89, dtype: object

>  <saltbridge:ARG:20>  (90) 
saltbridge:ARG:20    NaN
saltbridge:ARG:20     -1
Name: 89, dtype: object

>  <halogenbond:ARG:20>  (90) 
halogenbond:ARG:20    NaN
halogenbond:ARG:20     -1
Name: 89, dtype: object

>  <pication:ARG:20>  (90) 
pication:ARG:20    NaN
pication:ARG:20     -1
Name: 89, dtype: object

>  <hbond:HIS:21>  (90) 
hbond:HIS:21    0.0
hbond:HIS:21      0
Name: 89, dtype: object

>  <hydroph_interaction:HIS:21>  (90) 
hydroph_interaction:HIS:21    0.0
hydroph_interaction:HIS:21      0
Name: 89, dtype: object

>  <pistack:HIS:21>  (90) 
pistack:HIS:21    NaN
pistack:HIS:21     -1
Name: 89, dtype: object

>  <pication:HIS:21>  (90) 
pication:HIS:21    0.0
pication:HIS:21      0
Name: 89, dtype: object

>  <saltbridge:HIS:21>  (90) 
saltbridge:HIS:21    1.0
saltbridge:HIS:21      1
Name: 89, dtype: object

>  <halogenbond:HIS:21>  (90) 
halogenbond:HIS:21    NaN
halogenbond:HIS:21     -1
Name: 89, dtype: object

>  <hydroph_interaction:LEU:22>  (90) 
hydroph_interaction:LEU:22    NaN
hydroph_interaction:LEU:22     -1
Name: 89, dtype: object

>  <hbond:LEU:22>  (90) 
hbond:LEU:22    NaN
hbond:LEU:22     -1
Name: 89, dtype: object

>  <hydroph_interaction:TRP:28>  (90) 
hydroph_interaction:TRP:28    NaN
hydroph_interaction:TRP:28     -1
Name: 89, dtype: object

>  <hbond:SER:36>  (90) 
hbond:SER:36    NaN
hbond:SER:36     -1
Name: 89, dtype: object

>  <halogenbond:SER:36>  (90) 
halogenbond:SER:36    NaN
halogenbond:SER:36     -1
Name: 89, dtype: object

>  <hbond:SER:37>  (90) 
hbond:SER:37    NaN
hbond:SER:37     -1
Name: 89, dtype: object

>  <hbond:ARG:38>  (90) 
hbond:ARG:38    NaN
hbond:ARG:38     -1
Name: 89, dtype: object

>  <halogenbond:ARG:38>  (90) 
halogenbond:ARG:38    NaN
halogenbond:ARG:38     -1
Name: 89, dtype: object

>  <saltbridge:ASP:39>  (90) 
saltbridge:ASP:39    NaN
saltbridge:ASP:39     -1
Name: 89, dtype: object

>  <halogenbond:ASP:39>  (90) 
halogenbond:ASP:39    NaN
halogenbond:ASP:39     -1
Name: 89, dtype: object

>  <hbond:ASP:39>  (90) 
hbond:ASP:39    0.0
hbond:ASP:39      0
Name: 89, dtype: object

>  <hydroph_interaction:ASP:39>  (90) 
hydroph_interaction:ASP:39    NaN
hydroph_interaction:ASP:39     -1
Name: 89, dtype: object

>  <hydroph_interaction:LEU:40>  (90) 
hydroph_interaction:LEU:40    NaN
hydroph_interaction:LEU:40     -1
Name: 89, dtype: object

>  <hydroph_interaction:TYR:63>  (90) 
hydroph_interaction:TYR:63    NaN
hydroph_interaction:TYR:63     -1
Name: 89, dtype: object

>  <hbond:TYR:63>  (90) 
hbond:TYR:63    NaN
hbond:TYR:63     -1
Name: 89, dtype: object

>  <pistack:TYR:63>  (90) 
pistack:TYR:63    NaN
pistack:TYR:63     -1
Name: 89, dtype: object

>  <pication:TYR:63>  (90) 
pication:TYR:63    NaN
pication:TYR:63     -1
Name: 89, dtype: object

>  <halogenbond:TYR:64>  (90) 
halogenbond:TYR:64    NaN
halogenbond:TYR:64     -1
Name: 89, dtype: object

>  <hbond:TYR:64>  (90) 
hbond:TYR:64    NaN
hbond:TYR:64     -1
Name: 89, dtype: object

>  <hydroph_interaction:TYR:64>  (90) 
hydroph_interaction:TYR:64    NaN
hydroph_interaction:TYR:64     -1
Name: 89, dtype: object

>  <halogenbond:CYS:65>  (90) 
halogenbond:CYS:65    NaN
halogenbond:CYS:65     -1
Name: 89, dtype: object

>  <hbond:CYS:65>  (90) 
hbond:CYS:65    NaN
hbond:CYS:65     -1
Name: 89, dtype: object

>  <hbond:SER:66>  (90) 
hbond:SER:66    NaN
hbond:SER:66     -1
Name: 89, dtype: object

>  <halogenbond:SER:66>  (90) 
halogenbond:SER:66    NaN
halogenbond:SER:66     -1
Name: 89, dtype: object

>  <hbond:SER:67>  (90) 
hbond:SER:67    NaN
hbond:SER:67     -1
Name: 89, dtype: object

>  <halogenbond:SER:67>  (90) 
halogenbond:SER:67    NaN
halogenbond:SER:67     -1
Name: 89, dtype: object

>  <hbond:ARG:68>  (90) 
hbond:ARG:68    NaN
hbond:ARG:68     -1
Name: 89, dtype: object

>  <saltbridge:ARG:68>  (90) 
saltbridge:ARG:68    NaN
saltbridge:ARG:68     -1
Name: 89, dtype: object

>  <hydroph_interaction:ARG:68>  (90) 
hydroph_interaction:ARG:68    NaN
hydroph_interaction:ARG:68     -1
Name: 89, dtype: object

>  <pication:ARG:68>  (90) 
pication:ARG:68    NaN
pication:ARG:68     -1
Name: 89, dtype: object

>  <hydroph_interaction:TYR:72>  (90) 
hydroph_interaction:TYR:72    NaN
hydroph_interaction:TYR:72     -1
Name: 89, dtype: object

>  <hydroph_interaction:VAL:74>  (90) 
hydroph_interaction:VAL:74    NaN
hydroph_interaction:VAL:74     -1
Name: 89, dtype: object

>  <hydroph_interaction:PHE:76>  (90) 
hydroph_interaction:PHE:76    NaN
hydroph_interaction:PHE:76     -1
Name: 89, dtype: object

>  <hbond:SER:77>  (90) 
hbond:SER:77    NaN
hbond:SER:77     -1
Name: 89, dtype: object

>  <hbond:SER:80>  (90) 
hbond:SER:80    NaN
hbond:SER:80     -1
Name: 89, dtype: object

>  <hbond:LEU:81>  (90) 
hbond:LEU:81    NaN
hbond:LEU:81     -1
Name: 89, dtype: object

>  <halogenbond:LEU:81>  (90) 
halogenbond:LEU:81    NaN
halogenbond:LEU:81     -1
Name: 89, dtype: object

>  <hydroph_interaction:LEU:81>  (90) 
hydroph_interaction:LEU:81    NaN
hydroph_interaction:LEU:81     -1
Name: 89, dtype: object

>  <hydroph_interaction:ILE:82>  (90) 
hydroph_interaction:ILE:82    NaN
hydroph_interaction:ILE:82     -1
Name: 89, dtype: object

>  <halogenbond:ILE:82>  (90) 
halogenbond:ILE:82    NaN
halogenbond:ILE:82     -1
Name: 89, dtype: object

>  <hbond:ILE:82>  (90) 
hbond:ILE:82    NaN
hbond:ILE:82     -1
Name: 89, dtype: object

>  <hbond:PHE:83>  (90) 
hbond:PHE:83    NaN
hbond:PHE:83     -1
Name: 89, dtype: object

>  <hydroph_interaction:PHE:83>  (90) 
hydroph_interaction:PHE:83    NaN
hydroph_interaction:PHE:83     -1
Name: 89, dtype: object

>  <halogenbond:PHE:83>  (90) 
halogenbond:PHE:83    NaN
halogenbond:PHE:83     -1
Name: 89, dtype: object

>  <pistack:PHE:83>  (90) 
pistack:PHE:83    NaN
pistack:PHE:83     -1
Name: 89, dtype: object

>  <pication:PHE:83>  (90) 
pication:PHE:83    NaN
pication:PHE:83     -1
Name: 89, dtype: object

>  <hydroph_interaction:VAL:84>  (90) 
hydroph_interaction:VAL:84    0.0
hydroph_interaction:VAL:84      0
Name: 89, dtype: object

>  <halogenbond:VAL:84>  (90) 
halogenbond:VAL:84    NaN
halogenbond:VAL:84     -1
Name: 89, dtype: object

>  <hbond:VAL:84>  (90) 
hbond:VAL:84    NaN
hbond:VAL:84     -1
Name: 89, dtype: object

>  <hydroph_interaction:GLU:85>  (90) 
hydroph_interaction:GLU:85    0.0
hydroph_interaction:GLU:85      0
Name: 89, dtype: object

>  <hbond:GLU:85>  (90) 
hbond:GLU:85    0.0
hbond:GLU:85      0
Name: 89, dtype: object

>  <halogenbond:GLU:85>  (90) 
halogenbond:GLU:85    0.0
halogenbond:GLU:85      0
Name: 89, dtype: object

>  <saltbridge:GLU:85>  (90) 
saltbridge:GLU:85    NaN
saltbridge:GLU:85     -1
Name: 89, dtype: object

>  <halogenbond:ALA:86>  (90) 
halogenbond:ALA:86    0.0
halogenbond:ALA:86      0
Name: 89, dtype: object

>  <hbond:ALA:86>  (90) 
hbond:ALA:86    0.0
hbond:ALA:86      0
Name: 89, dtype: object

>  <hydroph_interaction:ALA:86>  (90) 
hydroph_interaction:ALA:86    NaN
hydroph_interaction:ALA:86     -1
Name: 89, dtype: object

>  <hbond:SER:87>  (90) 
hbond:SER:87    1
hbond:SER:87    1
Name: 89, dtype: object

>  <halogenbond:SER:87>  (90) 
halogenbond:SER:87    NaN
halogenbond:SER:87     -1
Name: 89, dtype: object

>  <hbond:GLU:88>  (90) 
hbond:GLU:88    0.0
hbond:GLU:88      0
Name: 89, dtype: object

>  <hydroph_interaction:GLU:88>  (90) 
hydroph_interaction:GLU:88    NaN
hydroph_interaction:GLU:88     -1
Name: 89, dtype: object

>  <halogenbond:GLU:88>  (90) 
halogenbond:GLU:88    NaN
halogenbond:GLU:88     -1
Name: 89, dtype: object

>  <saltbridge:GLU:88>  (90) 
saltbridge:GLU:88    NaN
saltbridge:GLU:88     -1
Name: 89, dtype: object

>  <hydroph_interaction:TYR:89>  (90) 
hydroph_interaction:TYR:89    0.0
hydroph_interaction:TYR:89      0
Name: 89, dtype: object

>  <pistack:TYR:89>  (90) 
pistack:TYR:89    NaN
pistack:TYR:89     -1
Name: 89, dtype: object

>  <hbond:TYR:89>  (90) 
hbond:TYR:89    NaN
hbond:TYR:89     -1
Name: 89, dtype: object

>  <halogenbond:TYR:89>  (90) 
halogenbond:TYR:89    NaN
halogenbond:TYR:89     -1
Name: 89, dtype: object

>  <hydroph_interaction:TYR:90>  (90) 
hydroph_interaction:TYR:90    0.0
hydroph_interaction:TYR:90      0
Name: 89, dtype: object

>  <hbond:TYR:90>  (90) 
hbond:TYR:90    NaN
hbond:TYR:90     -1
Name: 89, dtype: object

>  <pistack:TYR:90>  (90) 
pistack:TYR:90    NaN
pistack:TYR:90     -1
Name: 89, dtype: object

>  <halogenbond:TYR:90>  (90) 
halogenbond:TYR:90    NaN
halogenbond:TYR:90     -1
Name: 89, dtype: object

>  <pication:TYR:90>  (90) 
pication:TYR:90    NaN
pication:TYR:90     -1
Name: 89, dtype: object

>  <hbond:PRO:91>  (90) 
hbond:PRO:91    NaN
hbond:PRO:91     -1
Name: 89, dtype: object

>  <hydroph_interaction:PRO:91>  (90) 
hydroph_interaction:PRO:91    NaN
hydroph_interaction:PRO:91     -1
Name: 89, dtype: object

>  <halogenbond:PRO:91>  (90) 
halogenbond:PRO:91    NaN
halogenbond:PRO:91     -1
Name: 89, dtype: object

>  <hbond:ALA:92>  (90) 
hbond:ALA:92    NaN
hbond:ALA:92     -1
Name: 89, dtype: object

>  <hydroph_interaction:ALA:92>  (90) 
hydroph_interaction:ALA:92    NaN
hydroph_interaction:ALA:92     -1
Name: 89, dtype: object

>  <saltbridge:ARG:93>  (90) 
saltbridge:ARG:93    NaN
saltbridge:ARG:93     -1
Name: 89, dtype: object

>  <hbond:ARG:93>  (90) 
hbond:ARG:93    NaN
hbond:ARG:93     -1
Name: 89, dtype: object

>  <hydroph_interaction:ARG:93>  (90) 
hydroph_interaction:ARG:93    NaN
hydroph_interaction:ARG:93     -1
Name: 89, dtype: object

>  <halogenbond:ARG:93>  (90) 
halogenbond:ARG:93    NaN
halogenbond:ARG:93     -1
Name: 89, dtype: object

>  <pication:ARG:93>  (90) 
pication:ARG:93    NaN
pication:ARG:93     -1
Name: 89, dtype: object

>  <hydroph_interaction:TYR:94>  (90) 
hydroph_interaction:TYR:94    NaN
hydroph_interaction:TYR:94     -1
Name: 89, dtype: object

>  <pistack:TYR:94>  (90) 
pistack:TYR:94    NaN
pistack:TYR:94     -1
Name: 89, dtype: object

>  <hbond:TYR:94>  (90) 
hbond:TYR:94    NaN
hbond:TYR:94     -1
Name: 89, dtype: object

>  <hbond:GLN:95>  (90) 
hbond:GLN:95    NaN
hbond:GLN:95     -1
Name: 89, dtype: object

>  <hydroph_interaction:GLN:95>  (90) 
hydroph_interaction:GLN:95    NaN
hydroph_interaction:GLN:95     -1
Name: 89, dtype: object

>  <halogenbond:GLN:95>  (90) 
halogenbond:GLN:95    NaN
halogenbond:GLN:95     -1
Name: 89, dtype: object

>  <hbond:SER:96>  (90) 
hbond:SER:96    NaN
hbond:SER:96     -1
Name: 89, dtype: object

>  <halogenbond:HIS:97>  (90) 
halogenbond:HIS:97    NaN
halogenbond:HIS:97     -1
Name: 89, dtype: object

>  <hydroph_interaction:LEU:98>  (90) 
hydroph_interaction:LEU:98    NaN
hydroph_interaction:LEU:98     -1
Name: 89, dtype: object

>  <hbond:LEU:98>  (90) 
hbond:LEU:98    NaN
hbond:LEU:98     -1
Name: 89, dtype: object

>  <halogenbond:LEU:98>  (90) 
halogenbond:LEU:98    NaN
halogenbond:LEU:98     -1
Name: 89, dtype: object

>  <hbond:MET:99>  (90) 
hbond:MET:99    NaN
hbond:MET:99     -1
Name: 89, dtype: object

>  <hydroph_interaction:MET:99>  (90) 
hydroph_interaction:MET:99    NaN
hydroph_interaction:MET:99     -1
Name: 89, dtype: object

>  <halogenbond:MET:99>  (90) 
halogenbond:MET:99    NaN
halogenbond:MET:99     -1
Name: 89, dtype: object

>  <hydroph_interaction:LEU:100>  (90) 
hydroph_interaction:LEU:100    NaN
hydroph_interaction:LEU:100     -1
Name: 89, dtype: object

>  <hbond:LEU:100>  (90) 
hbond:LEU:100    NaN
hbond:LEU:100     -1
Name: 89, dtype: object

>  <hbond:ALA:101>  (90) 
hbond:ALA:101    NaN
hbond:ALA:101     -1
Name: 89, dtype: object

>  <hydroph_interaction:ALA:101>  (90) 
hydroph_interaction:ALA:101    NaN
hydroph_interaction:ALA:101     -1
Name: 89, dtype: object

>  <hydroph_interaction:VAL:102>  (90) 
hydroph_interaction:VAL:102    NaN
hydroph_interaction:VAL:102     -1
Name: 89, dtype: object

>  <hbond:VAL:102>  (90) 
hbond:VAL:102    NaN
hbond:VAL:102     -1
Name: 89, dtype: object

>  <hbond:GLY:103>  (90) 
hbond:GLY:103    NaN
hbond:GLY:103     -1
Name: 89, dtype: object

>  <halogenbond:GLY:103>  (90) 
halogenbond:GLY:103    NaN
halogenbond:GLY:103     -1
Name: 89, dtype: object

>  <hbond:HIS:104>  (90) 
hbond:HIS:104    NaN
hbond:HIS:104     -1
Name: 89, dtype: object

>  <saltbridge:HIS:104>  (90) 
saltbridge:HIS:104    NaN
saltbridge:HIS:104     -1
Name: 89, dtype: object

>  <pication:HIS:104>  (90) 
pication:HIS:104    NaN
pication:HIS:104     -1
Name: 89, dtype: object

>  <halogenbond:HIS:104>  (90) 
halogenbond:HIS:104    NaN
halogenbond:HIS:104     -1
Name: 89, dtype: object

>  <hydroph_interaction:HIS:104>  (90) 
hydroph_interaction:HIS:104    NaN
hydroph_interaction:HIS:104     -1
Name: 89, dtype: object

>  <pistack:HIS:104>  (90) 
pistack:HIS:104    NaN
pistack:HIS:104     -1
Name: 89, dtype: object

>  <halogenbond:SER:105>  (90) 
halogenbond:SER:105    0.0
halogenbond:SER:105      0
Name: 89, dtype: object

>  <hbond:SER:105>  (90) 
hbond:SER:105    0.0
hbond:SER:105      0
Name: 89, dtype: object

>  <hbond:GLU:106>  (90) 
hbond:GLU:106    0.0
hbond:GLU:106      0
Name: 89, dtype: object

>  <hydroph_interaction:GLU:106>  (90) 
hydroph_interaction:GLU:106    NaN
hydroph_interaction:GLU:106     -1
Name: 89, dtype: object

>  <saltbridge:GLU:106>  (90) 
saltbridge:GLU:106    NaN
saltbridge:GLU:106     -1
Name: 89, dtype: object

>  <halogenbond:GLU:106>  (90) 
halogenbond:GLU:106    NaN
halogenbond:GLU:106     -1
Name: 89, dtype: object

>  <hydroph_interaction:PRO:107>  (90) 
hydroph_interaction:PRO:107    0
hydroph_interaction:PRO:107    0
Name: 89, dtype: object

>  <hbond:PRO:107>  (90) 
hbond:PRO:107    0.0
hbond:PRO:107      0
Name: 89, dtype: object

>  <halogenbond:PRO:107>  (90) 
halogenbond:PRO:107    NaN
halogenbond:PRO:107     -1
Name: 89, dtype: object

>  <hbond:GLY:108>  (90) 
hbond:GLY:108    NaN
hbond:GLY:108     -1
Name: 89, dtype: object

>  <halogenbond:GLY:108>  (90) 
halogenbond:GLY:108    NaN
halogenbond:GLY:108     -1
Name: 89, dtype: object

>  <hbond:ASP:109>  (90) 
hbond:ASP:109    0.0
hbond:ASP:109      0
Name: 89, dtype: object

>  <hydroph_interaction:ASP:109>  (90) 
hydroph_interaction:ASP:109    0.0
hydroph_interaction:ASP:109      0
Name: 89, dtype: object

>  <saltbridge:ASP:109>  (90) 
saltbridge:ASP:109    0.0
saltbridge:ASP:109      0
Name: 89, dtype: object

>  <halogenbond:CYS:110>  (90) 
halogenbond:CYS:110    0.0
halogenbond:CYS:110      0
Name: 89, dtype: object

>  <hbond:CYS:110>  (90) 
hbond:CYS:110    0.0
hbond:CYS:110      0
Name: 89, dtype: object

>  <hbond:GLY:111>  (90) 
hbond:GLY:111    NaN
hbond:GLY:111     -1
Name: 89, dtype: object

>  <hbond:GLY:112>  (90) 
hbond:GLY:112    NaN
hbond:GLY:112     -1
Name: 89, dtype: object

>  <hbond:ILE:113>  (90) 
hbond:ILE:113    NaN
hbond:ILE:113     -1
Name: 89, dtype: object

>  <hydroph_interaction:LEU:114>  (90) 
hydroph_interaction:LEU:114    NaN
hydroph_interaction:LEU:114     -1
Name: 89, dtype: object

>  <hbond:LEU:114>  (90) 
hbond:LEU:114    NaN
hbond:LEU:114     -1
Name: 89, dtype: object

>  <hydroph_interaction:ILE:123>  (90) 
hydroph_interaction:ILE:123    NaN
hydroph_interaction:ILE:123     -1
Name: 89, dtype: object

>  <hbond:ILE:123>  (90) 
hbond:ILE:123    NaN
hbond:ILE:123     -1
Name: 89, dtype: object

>  <hydroph_interaction:VAL:124>  (90) 
hydroph_interaction:VAL:124    1.0
hydroph_interaction:VAL:124      1
Name: 89, dtype: object

>  <hbond:VAL:124>  (90) 
hbond:VAL:124    0.0
hbond:VAL:124      0
Name: 89, dtype: object

>  <halogenbond:VAL:124>  (90) 
halogenbond:VAL:124    NaN
halogenbond:VAL:124     -1
Name: 89, dtype: object

>  <hbond:SER:125>  (90) 
hbond:SER:125    2
hbond:SER:125    2
Name: 89, dtype: object

>  <halogenbond:SER:125>  (90) 
halogenbond:SER:125    0.0
halogenbond:SER:125      0
Name: 89, dtype: object

>  <hydroph_interaction:THR:126>  (90) 
hydroph_interaction:THR:126    0.0
hydroph_interaction:THR:126      0
Name: 89, dtype: object

>  <hbond:THR:126>  (90) 
hbond:THR:126    0.0
hbond:THR:126      0
Name: 89, dtype: object

>  <halogenbond:THR:126>  (90) 
halogenbond:THR:126    NaN
halogenbond:THR:126     -1
Name: 89, dtype: object

>  <hbond:GLY:127>  (90) 
hbond:GLY:127    0
hbond:GLY:127    0
Name: 89, dtype: object

>  <halogenbond:GLY:127>  (90) 
halogenbond:GLY:127    NaN
halogenbond:GLY:127     -1
Name: 89, dtype: object

>  <hydroph_interaction:GLY:127>  (90) 
hydroph_interaction:GLY:127    NaN
hydroph_interaction:GLY:127     -1
Name: 89, dtype: object

>  <hbond:GLY:128>  (90) 
hbond:GLY:128    NaN
hbond:GLY:128     -1
Name: 89, dtype: object

>  <halogenbond:GLY:128>  (90) 
halogenbond:GLY:128    NaN
halogenbond:GLY:128     -1
Name: 89, dtype: object

>  <hydroph_interaction:GLY:128>  (90) 
hydroph_interaction:GLY:128    NaN
hydroph_interaction:GLY:128     -1
Name: 89, dtype: object

>  <hbond:ASN:129>  (90) 
hbond:ASN:129    NaN
hbond:ASN:129     -1
Name: 89, dtype: object

>  <hydroph_interaction:ASN:129>  (90) 
hydroph_interaction:ASN:129    NaN
hydroph_interaction:ASN:129     -1
Name: 89, dtype: object

>  <halogenbond:ASN:129>  (90) 
halogenbond:ASN:129    NaN
halogenbond:ASN:129     -1
Name: 89, dtype: object

>  <hbond:GLY:130>  (90) 
hbond:GLY:130    NaN
hbond:GLY:130     -1
Name: 89, dtype: object

>  <hbond:LEU:131>  (90) 
hbond:LEU:131    NaN
hbond:LEU:131     -1
Name: 89, dtype: object

>  <hydroph_interaction:LEU:131>  (90) 
hydroph_interaction:LEU:131    NaN
hydroph_interaction:LEU:131     -1
Name: 89, dtype: object

>  <halogenbond:LEU:131>  (90) 
halogenbond:LEU:131    NaN
halogenbond:LEU:131     -1
Name: 89, dtype: object

>  <hydroph_interaction:VAL:132>  (90) 
hydroph_interaction:VAL:132    0.0
hydroph_interaction:VAL:132      0
Name: 89, dtype: object

>  <hbond:VAL:132>  (90) 
hbond:VAL:132    NaN
hbond:VAL:132     -1
Name: 89, dtype: object

>  <hbond:GLY:133>  (90) 
hbond:GLY:133    0.0
hbond:GLY:133      0
Name: 89, dtype: object

>  <halogenbond:GLY:133>  (90) 
halogenbond:GLY:133    NaN
halogenbond:GLY:133     -1
Name: 89, dtype: object

>  <hydroph_interaction:PHE:134>  (90) 
hydroph_interaction:PHE:134    NaN
hydroph_interaction:PHE:134     -1
Name: 89, dtype: object

>  <hbond:PHE:134>  (90) 
hbond:PHE:134    NaN
hbond:PHE:134     -1
Name: 89, dtype: object

>  <pistack:PHE:134>  (90) 
pistack:PHE:134    NaN
pistack:PHE:134     -1
Name: 89, dtype: object

>  <pication:PHE:134>  (90) 
pication:PHE:134    NaN
pication:PHE:134     -1
Name: 89, dtype: object

>  <halogenbond:PHE:134>  (90) 
halogenbond:PHE:134    NaN
halogenbond:PHE:134     -1
Name: 89, dtype: object

>  <hydroph_interaction:ALA:135>  (90) 
hydroph_interaction:ALA:135    NaN
hydroph_interaction:ALA:135     -1
Name: 89, dtype: object

>  <hbond:ALA:135>  (90) 
hbond:ALA:135    NaN
hbond:ALA:135     -1
Name: 89, dtype: object

$$$$
Z2511835122
     RDKit          3D

 20 20  0  0  0  0  0  0  0  0999 V2000
   11.6610   14.0270   22.2450 C   0  0  0  0  0  0  0  0  0  0  0  0
   10.2660   13.9200   22.6850 N   0  0  0  0  0  0  0  0  0  0  0  0
    9.7280   12.6840   23.1610 C   0  0  0  0  0  0  0  0  0  0  0  0
   10.2210   11.4700   22.7140 C   0  0  0  0  0  0  0  0  0  0  0  0
    9.7300   10.2330   23.1250 C   0  0  0  0  0  0  0  0  0  0  0  0
   10.3320    9.0060   22.5490 C   0  0  0  0  0  0  0  0  0  0  0  0
    8.7020   10.1750   24.0420 C   0  0  0  0  0  0  0  0  0  0  0  0
    8.1670   11.3540   24.5330 C   0  0  0  0  0  0  0  0  0  0  0  0
    8.6690   12.5850   24.0960 C   0  0  0  0  0  0  0  0  0  0  0  0
    7.7330   14.2640   24.9240 I   0  0  0  0  0  0  0  0  0  0  0  0
   11.7410   14.0470   21.1500 H   0  0  0  0  0  0  0  0  0  0  0  0
   12.1460   14.9140   22.6690 H   0  0  0  0  0  0  0  0  0  0  0  0
   12.2210   13.1540   22.6030 H   0  0  0  0  0  0  0  0  0  0  0  0
    9.6300   14.3130   21.9910 H   0  0  0  0  0  0  0  0  0  0  0  0
   11.0230   11.4630   22.0110 H   0  0  0  0  0  0  0  0  0  0  0  0
    9.5450    8.3140   22.2520 H   0  0  0  0  0  0  0  0  0  0  0  0
   11.0140    8.5150   23.2480 H   0  0  0  0  0  0  0  0  0  0  0  0
   10.9110    9.2810   21.6640 H   0  0  0  0  0  0  0  0  0  0  0  0
    8.3080    9.2190   24.3790 H   0  0  0  0  0  0  0  0  0  0  0  0
    7.3550   11.3050   25.2550 H   0  0  0  0  0  0  0  0  0  0  0  0
  1  2  1  0
  2  3  1  0
  3  4  2  0
  4  5  1  0
  5  6  1  0
  5  7  2  0
  7  8  1  0
  8  9  2  0
  9 10  1  0
  9  3  1  0
  1 11  1  0
  1 12  1  0
  1 13  1  0
  2 14  1  0
  4 15  1  0
  6 16  1  0
  6 17  1  0
  6 18  1  0
  7 19  1  0
  8 20  1  0
A    1
 C1 
A    2
 N1 
A    3
 C2 
A    4
 C3 
A    5
 C4 
A    6
 C5 
A    7
 C6 
A    8
 C7 
A    9
 C8 
A   10
 I1 
A   11
 H1 
A   12
 H2 
A   13
 H3 
A   14
 H4 
A   15
 H5 
A   16
 H6 
A   17
 H7 
A   18
 H8 
A   19
 H9 
A   20
 H10
M  END
>  <ref_pdb>  (91) 
x0310_0A

>  <ref_mols>  (91) 
x0451_0A,x0739_0A

>  <original SMILES>  (91) 
CNc1cc(C)ccc1I

>  <rationale>  (91) 
info halogenbond:C110+D39+A86+S125+E85+Q95+E106+E88+T126+P107+H104+Y64+C65+S87+N129+F83+R93+L131+I82+G128+P91+N19+H21+V84+G133+Y90+Y89+H97+L81+F134+L98+R20+G103+S66+S67+S7+G108+R38+V124+M99+S36; hbond:S87+Y90+P107+Q95+D39+A86+C110+E85+G108+G103+G128+G130+L131+N129+N19+H104+R68+V124+R93+P91+F83+S67+S7+S66+G112+G133+V132+R20+Y89+S77+A135+Y63+A92+A101+M99+F134+L100+I82+Y64+S36+L98+V84+L81+Y94+S80+R38+S37+V102+G8+I123+G111+I113+L114+C65+L22+S96; hydroph_interaction:V124+T126+H21+L22+E85+E106+E88+N129+D39+N19+L40+I123+A135+Q95+I82+L100+L98+L131+F83+R93+V132+Y63+F134+H104+R20+A86+V74+P91+A101+F76+M99+L114+A92+Y94+R68+Y72+Y64+V18+V102+W28+G127+G128+L81; pication:H21+H104+R93+Y63+F134+Y90+R68+F83+R20; pistack:H21+Y89+Y90+H104+F134+Y63+F83+Y94; saltbridge:D39+H21+R93+H104+E106+D109+E85+E88+R68+R20; 

>  <intxn_cluster>  (91) 
-1

>  <intxn_cluster_rank>  (91) 
-1

>  <N_interactions>  (91) 
3

>  <∆∆G>  (91) 
-9.544612

>  <$/mg>  (91) 
0.0

>  <comRMSD>  (91) 
0.815246

>  <N_rotatable_bonds>  (91) 
3

>  <deep_P1_sidechain>  (91) 
nan

>  <farthest_distance_to_substrate>  (91) 
2.326393

>  <hbond:SER:7>  (91) 
hbond:SER:7    NaN
hbond:SER:7     -1
Name: 90, dtype: object

>  <halogenbond:SER:7>  (91) 
halogenbond:SER:7    NaN
halogenbond:SER:7     -1
Name: 90, dtype: object

>  <hbond:GLY:8>  (91) 
hbond:GLY:8    NaN
hbond:GLY:8     -1
Name: 90, dtype: object

>  <hydroph_interaction:VAL:18>  (91) 
hydroph_interaction:VAL:18    NaN
hydroph_interaction:VAL:18     -1
Name: 90, dtype: object

>  <hbond:ASN:19>  (91) 
hbond:ASN:19    NaN
hbond:ASN:19     -1
Name: 90, dtype: object

>  <hydroph_interaction:ASN:19>  (91) 
hydroph_interaction:ASN:19    NaN
hydroph_interaction:ASN:19     -1
Name: 90, dtype: object

>  <halogenbond:ASN:19>  (91) 
halogenbond:ASN:19    NaN
halogenbond:ASN:19     -1
Name: 90, dtype: object

>  <hbond:ARG:20>  (91) 
hbond:ARG:20    NaN
hbond:ARG:20     -1
Name: 90, dtype: object

>  <hydroph_interaction:ARG:20>  (91) 
hydroph_interaction:ARG:20    NaN
hydroph_interaction:ARG:20     -1
Name: 90, dtype: object

>  <saltbridge:ARG:20>  (91) 
saltbridge:ARG:20    NaN
saltbridge:ARG:20     -1
Name: 90, dtype: object

>  <halogenbond:ARG:20>  (91) 
halogenbond:ARG:20    NaN
halogenbond:ARG:20     -1
Name: 90, dtype: object

>  <pication:ARG:20>  (91) 
pication:ARG:20    NaN
pication:ARG:20     -1
Name: 90, dtype: object

>  <hbond:HIS:21>  (91) 
hbond:HIS:21    0.0
hbond:HIS:21      0
Name: 90, dtype: object

>  <hydroph_interaction:HIS:21>  (91) 
hydroph_interaction:HIS:21    NaN
hydroph_interaction:HIS:21     -1
Name: 90, dtype: object

>  <pistack:HIS:21>  (91) 
pistack:HIS:21    NaN
pistack:HIS:21     -1
Name: 90, dtype: object

>  <pication:HIS:21>  (91) 
pication:HIS:21    NaN
pication:HIS:21     -1
Name: 90, dtype: object

>  <saltbridge:HIS:21>  (91) 
saltbridge:HIS:21    NaN
saltbridge:HIS:21     -1
Name: 90, dtype: object

>  <halogenbond:HIS:21>  (91) 
halogenbond:HIS:21    NaN
halogenbond:HIS:21     -1
Name: 90, dtype: object

>  <hydroph_interaction:LEU:22>  (91) 
hydroph_interaction:LEU:22    NaN
hydroph_interaction:LEU:22     -1
Name: 90, dtype: object

>  <hbond:LEU:22>  (91) 
hbond:LEU:22    NaN
hbond:LEU:22     -1
Name: 90, dtype: object

>  <hydroph_interaction:TRP:28>  (91) 
hydroph_interaction:TRP:28    NaN
hydroph_interaction:TRP:28     -1
Name: 90, dtype: object

>  <hbond:SER:36>  (91) 
hbond:SER:36    NaN
hbond:SER:36     -1
Name: 90, dtype: object

>  <halogenbond:SER:36>  (91) 
halogenbond:SER:36    NaN
halogenbond:SER:36     -1
Name: 90, dtype: object

>  <hbond:SER:37>  (91) 
hbond:SER:37    NaN
hbond:SER:37     -1
Name: 90, dtype: object

>  <hbond:ARG:38>  (91) 
hbond:ARG:38    NaN
hbond:ARG:38     -1
Name: 90, dtype: object

>  <halogenbond:ARG:38>  (91) 
halogenbond:ARG:38    NaN
halogenbond:ARG:38     -1
Name: 90, dtype: object

>  <saltbridge:ASP:39>  (91) 
saltbridge:ASP:39    NaN
saltbridge:ASP:39     -1
Name: 90, dtype: object

>  <halogenbond:ASP:39>  (91) 
halogenbond:ASP:39    NaN
halogenbond:ASP:39     -1
Name: 90, dtype: object

>  <hbond:ASP:39>  (91) 
hbond:ASP:39    NaN
hbond:ASP:39     -1
Name: 90, dtype: object

>  <hydroph_interaction:ASP:39>  (91) 
hydroph_interaction:ASP:39    NaN
hydroph_interaction:ASP:39     -1
Name: 90, dtype: object

>  <hydroph_interaction:LEU:40>  (91) 
hydroph_interaction:LEU:40    NaN
hydroph_interaction:LEU:40     -1
Name: 90, dtype: object

>  <hydroph_interaction:TYR:63>  (91) 
hydroph_interaction:TYR:63    NaN
hydroph_interaction:TYR:63     -1
Name: 90, dtype: object

>  <hbond:TYR:63>  (91) 
hbond:TYR:63    NaN
hbond:TYR:63     -1
Name: 90, dtype: object

>  <pistack:TYR:63>  (91) 
pistack:TYR:63    NaN
pistack:TYR:63     -1
Name: 90, dtype: object

>  <pication:TYR:63>  (91) 
pication:TYR:63    NaN
pication:TYR:63     -1
Name: 90, dtype: object

>  <halogenbond:TYR:64>  (91) 
halogenbond:TYR:64    NaN
halogenbond:TYR:64     -1
Name: 90, dtype: object

>  <hbond:TYR:64>  (91) 
hbond:TYR:64    NaN
hbond:TYR:64     -1
Name: 90, dtype: object

>  <hydroph_interaction:TYR:64>  (91) 
hydroph_interaction:TYR:64    NaN
hydroph_interaction:TYR:64     -1
Name: 90, dtype: object

>  <halogenbond:CYS:65>  (91) 
halogenbond:CYS:65    NaN
halogenbond:CYS:65     -1
Name: 90, dtype: object

>  <hbond:CYS:65>  (91) 
hbond:CYS:65    NaN
hbond:CYS:65     -1
Name: 90, dtype: object

>  <hbond:SER:66>  (91) 
hbond:SER:66    NaN
hbond:SER:66     -1
Name: 90, dtype: object

>  <halogenbond:SER:66>  (91) 
halogenbond:SER:66    NaN
halogenbond:SER:66     -1
Name: 90, dtype: object

>  <hbond:SER:67>  (91) 
hbond:SER:67    NaN
hbond:SER:67     -1
Name: 90, dtype: object

>  <halogenbond:SER:67>  (91) 
halogenbond:SER:67    NaN
halogenbond:SER:67     -1
Name: 90, dtype: object

>  <hbond:ARG:68>  (91) 
hbond:ARG:68    NaN
hbond:ARG:68     -1
Name: 90, dtype: object

>  <saltbridge:ARG:68>  (91) 
saltbridge:ARG:68    NaN
saltbridge:ARG:68     -1
Name: 90, dtype: object

>  <hydroph_interaction:ARG:68>  (91) 
hydroph_interaction:ARG:68    NaN
hydroph_interaction:ARG:68     -1
Name: 90, dtype: object

>  <pication:ARG:68>  (91) 
pication:ARG:68    NaN
pication:ARG:68     -1
Name: 90, dtype: object

>  <hydroph_interaction:TYR:72>  (91) 
hydroph_interaction:TYR:72    NaN
hydroph_interaction:TYR:72     -1
Name: 90, dtype: object

>  <hydroph_interaction:VAL:74>  (91) 
hydroph_interaction:VAL:74    NaN
hydroph_interaction:VAL:74     -1
Name: 90, dtype: object

>  <hydroph_interaction:PHE:76>  (91) 
hydroph_interaction:PHE:76    NaN
hydroph_interaction:PHE:76     -1
Name: 90, dtype: object

>  <hbond:SER:77>  (91) 
hbond:SER:77    NaN
hbond:SER:77     -1
Name: 90, dtype: object

>  <hbond:SER:80>  (91) 
hbond:SER:80    NaN
hbond:SER:80     -1
Name: 90, dtype: object

>  <hbond:LEU:81>  (91) 
hbond:LEU:81    NaN
hbond:LEU:81     -1
Name: 90, dtype: object

>  <halogenbond:LEU:81>  (91) 
halogenbond:LEU:81    NaN
halogenbond:LEU:81     -1
Name: 90, dtype: object

>  <hydroph_interaction:LEU:81>  (91) 
hydroph_interaction:LEU:81    NaN
hydroph_interaction:LEU:81     -1
Name: 90, dtype: object

>  <hydroph_interaction:ILE:82>  (91) 
hydroph_interaction:ILE:82    NaN
hydroph_interaction:ILE:82     -1
Name: 90, dtype: object

>  <halogenbond:ILE:82>  (91) 
halogenbond:ILE:82    NaN
halogenbond:ILE:82     -1
Name: 90, dtype: object

>  <hbond:ILE:82>  (91) 
hbond:ILE:82    NaN
hbond:ILE:82     -1
Name: 90, dtype: object

>  <hbond:PHE:83>  (91) 
hbond:PHE:83    NaN
hbond:PHE:83     -1
Name: 90, dtype: object

>  <hydroph_interaction:PHE:83>  (91) 
hydroph_interaction:PHE:83    NaN
hydroph_interaction:PHE:83     -1
Name: 90, dtype: object

>  <halogenbond:PHE:83>  (91) 
halogenbond:PHE:83    NaN
halogenbond:PHE:83     -1
Name: 90, dtype: object

>  <pistack:PHE:83>  (91) 
pistack:PHE:83    NaN
pistack:PHE:83     -1
Name: 90, dtype: object

>  <pication:PHE:83>  (91) 
pication:PHE:83    NaN
pication:PHE:83     -1
Name: 90, dtype: object

>  <hydroph_interaction:VAL:84>  (91) 
hydroph_interaction:VAL:84    0.0
hydroph_interaction:VAL:84      0
Name: 90, dtype: object

>  <halogenbond:VAL:84>  (91) 
halogenbond:VAL:84    NaN
halogenbond:VAL:84     -1
Name: 90, dtype: object

>  <hbond:VAL:84>  (91) 
hbond:VAL:84    NaN
hbond:VAL:84     -1
Name: 90, dtype: object

>  <hydroph_interaction:GLU:85>  (91) 
hydroph_interaction:GLU:85    NaN
hydroph_interaction:GLU:85     -1
Name: 90, dtype: object

>  <hbond:GLU:85>  (91) 
hbond:GLU:85    NaN
hbond:GLU:85     -1
Name: 90, dtype: object

>  <halogenbond:GLU:85>  (91) 
halogenbond:GLU:85    NaN
halogenbond:GLU:85     -1
Name: 90, dtype: object

>  <saltbridge:GLU:85>  (91) 
saltbridge:GLU:85    NaN
saltbridge:GLU:85     -1
Name: 90, dtype: object

>  <halogenbond:ALA:86>  (91) 
halogenbond:ALA:86    NaN
halogenbond:ALA:86     -1
Name: 90, dtype: object

>  <hbond:ALA:86>  (91) 
hbond:ALA:86    NaN
hbond:ALA:86     -1
Name: 90, dtype: object

>  <hydroph_interaction:ALA:86>  (91) 
hydroph_interaction:ALA:86    NaN
hydroph_interaction:ALA:86     -1
Name: 90, dtype: object

>  <hbond:SER:87>  (91) 
hbond:SER:87    2
hbond:SER:87    2
Name: 90, dtype: object

>  <halogenbond:SER:87>  (91) 
halogenbond:SER:87    NaN
halogenbond:SER:87     -1
Name: 90, dtype: object

>  <hbond:GLU:88>  (91) 
hbond:GLU:88    0.0
hbond:GLU:88      0
Name: 90, dtype: object

>  <hydroph_interaction:GLU:88>  (91) 
hydroph_interaction:GLU:88    NaN
hydroph_interaction:GLU:88     -1
Name: 90, dtype: object

>  <halogenbond:GLU:88>  (91) 
halogenbond:GLU:88    NaN
halogenbond:GLU:88     -1
Name: 90, dtype: object

>  <saltbridge:GLU:88>  (91) 
saltbridge:GLU:88    NaN
saltbridge:GLU:88     -1
Name: 90, dtype: object

>  <hydroph_interaction:TYR:89>  (91) 
hydroph_interaction:TYR:89    0.0
hydroph_interaction:TYR:89      0
Name: 90, dtype: object

>  <pistack:TYR:89>  (91) 
pistack:TYR:89    NaN
pistack:TYR:89     -1
Name: 90, dtype: object

>  <hbond:TYR:89>  (91) 
hbond:TYR:89    NaN
hbond:TYR:89     -1
Name: 90, dtype: object

>  <halogenbond:TYR:89>  (91) 
halogenbond:TYR:89    NaN
halogenbond:TYR:89     -1
Name: 90, dtype: object

>  <hydroph_interaction:TYR:90>  (91) 
hydroph_interaction:TYR:90    0.0
hydroph_interaction:TYR:90      0
Name: 90, dtype: object

>  <hbond:TYR:90>  (91) 
hbond:TYR:90    NaN
hbond:TYR:90     -1
Name: 90, dtype: object

>  <pistack:TYR:90>  (91) 
pistack:TYR:90    NaN
pistack:TYR:90     -1
Name: 90, dtype: object

>  <halogenbond:TYR:90>  (91) 
halogenbond:TYR:90    NaN
halogenbond:TYR:90     -1
Name: 90, dtype: object

>  <pication:TYR:90>  (91) 
pication:TYR:90    NaN
pication:TYR:90     -1
Name: 90, dtype: object

>  <hbond:PRO:91>  (91) 
hbond:PRO:91    NaN
hbond:PRO:91     -1
Name: 90, dtype: object

>  <hydroph_interaction:PRO:91>  (91) 
hydroph_interaction:PRO:91    NaN
hydroph_interaction:PRO:91     -1
Name: 90, dtype: object

>  <halogenbond:PRO:91>  (91) 
halogenbond:PRO:91    NaN
halogenbond:PRO:91     -1
Name: 90, dtype: object

>  <hbond:ALA:92>  (91) 
hbond:ALA:92    NaN
hbond:ALA:92     -1
Name: 90, dtype: object

>  <hydroph_interaction:ALA:92>  (91) 
hydroph_interaction:ALA:92    NaN
hydroph_interaction:ALA:92     -1
Name: 90, dtype: object

>  <saltbridge:ARG:93>  (91) 
saltbridge:ARG:93    NaN
saltbridge:ARG:93     -1
Name: 90, dtype: object

>  <hbond:ARG:93>  (91) 
hbond:ARG:93    NaN
hbond:ARG:93     -1
Name: 90, dtype: object

>  <hydroph_interaction:ARG:93>  (91) 
hydroph_interaction:ARG:93    NaN
hydroph_interaction:ARG:93     -1
Name: 90, dtype: object

>  <halogenbond:ARG:93>  (91) 
halogenbond:ARG:93    NaN
halogenbond:ARG:93     -1
Name: 90, dtype: object

>  <pication:ARG:93>  (91) 
pication:ARG:93    NaN
pication:ARG:93     -1
Name: 90, dtype: object

>  <hydroph_interaction:TYR:94>  (91) 
hydroph_interaction:TYR:94    NaN
hydroph_interaction:TYR:94     -1
Name: 90, dtype: object

>  <pistack:TYR:94>  (91) 
pistack:TYR:94    NaN
pistack:TYR:94     -1
Name: 90, dtype: object

>  <hbond:TYR:94>  (91) 
hbond:TYR:94    NaN
hbond:TYR:94     -1
Name: 90, dtype: object

>  <hbond:GLN:95>  (91) 
hbond:GLN:95    NaN
hbond:GLN:95     -1
Name: 90, dtype: object

>  <hydroph_interaction:GLN:95>  (91) 
hydroph_interaction:GLN:95    NaN
hydroph_interaction:GLN:95     -1
Name: 90, dtype: object

>  <halogenbond:GLN:95>  (91) 
halogenbond:GLN:95    NaN
halogenbond:GLN:95     -1
Name: 90, dtype: object

>  <hbond:SER:96>  (91) 
hbond:SER:96    NaN
hbond:SER:96     -1
Name: 90, dtype: object

>  <halogenbond:HIS:97>  (91) 
halogenbond:HIS:97    NaN
halogenbond:HIS:97     -1
Name: 90, dtype: object

>  <hydroph_interaction:LEU:98>  (91) 
hydroph_interaction:LEU:98    NaN
hydroph_interaction:LEU:98     -1
Name: 90, dtype: object

>  <hbond:LEU:98>  (91) 
hbond:LEU:98    NaN
hbond:LEU:98     -1
Name: 90, dtype: object

>  <halogenbond:LEU:98>  (91) 
halogenbond:LEU:98    NaN
halogenbond:LEU:98     -1
Name: 90, dtype: object

>  <hbond:MET:99>  (91) 
hbond:MET:99    NaN
hbond:MET:99     -1
Name: 90, dtype: object

>  <hydroph_interaction:MET:99>  (91) 
hydroph_interaction:MET:99    NaN
hydroph_interaction:MET:99     -1
Name: 90, dtype: object

>  <halogenbond:MET:99>  (91) 
halogenbond:MET:99    NaN
halogenbond:MET:99     -1
Name: 90, dtype: object

>  <hydroph_interaction:LEU:100>  (91) 
hydroph_interaction:LEU:100    NaN
hydroph_interaction:LEU:100     -1
Name: 90, dtype: object

>  <hbond:LEU:100>  (91) 
hbond:LEU:100    NaN
hbond:LEU:100     -1
Name: 90, dtype: object

>  <hbond:ALA:101>  (91) 
hbond:ALA:101    NaN
hbond:ALA:101     -1
Name: 90, dtype: object

>  <hydroph_interaction:ALA:101>  (91) 
hydroph_interaction:ALA:101    NaN
hydroph_interaction:ALA:101     -1
Name: 90, dtype: object

>  <hydroph_interaction:VAL:102>  (91) 
hydroph_interaction:VAL:102    NaN
hydroph_interaction:VAL:102     -1
Name: 90, dtype: object

>  <hbond:VAL:102>  (91) 
hbond:VAL:102    NaN
hbond:VAL:102     -1
Name: 90, dtype: object

>  <hbond:GLY:103>  (91) 
hbond:GLY:103    NaN
hbond:GLY:103     -1
Name: 90, dtype: object

>  <halogenbond:GLY:103>  (91) 
halogenbond:GLY:103    NaN
halogenbond:GLY:103     -1
Name: 90, dtype: object

>  <hbond:HIS:104>  (91) 
hbond:HIS:104    NaN
hbond:HIS:104     -1
Name: 90, dtype: object

>  <saltbridge:HIS:104>  (91) 
saltbridge:HIS:104    NaN
saltbridge:HIS:104     -1
Name: 90, dtype: object

>  <pication:HIS:104>  (91) 
pication:HIS:104    NaN
pication:HIS:104     -1
Name: 90, dtype: object

>  <halogenbond:HIS:104>  (91) 
halogenbond:HIS:104    NaN
halogenbond:HIS:104     -1
Name: 90, dtype: object

>  <hydroph_interaction:HIS:104>  (91) 
hydroph_interaction:HIS:104    NaN
hydroph_interaction:HIS:104     -1
Name: 90, dtype: object

>  <pistack:HIS:104>  (91) 
pistack:HIS:104    NaN
pistack:HIS:104     -1
Name: 90, dtype: object

>  <halogenbond:SER:105>  (91) 
halogenbond:SER:105    0.0
halogenbond:SER:105      0
Name: 90, dtype: object

>  <hbond:SER:105>  (91) 
hbond:SER:105    0.0
hbond:SER:105      0
Name: 90, dtype: object

>  <hbond:GLU:106>  (91) 
hbond:GLU:106    0.0
hbond:GLU:106      0
Name: 90, dtype: object

>  <hydroph_interaction:GLU:106>  (91) 
hydroph_interaction:GLU:106    NaN
hydroph_interaction:GLU:106     -1
Name: 90, dtype: object

>  <saltbridge:GLU:106>  (91) 
saltbridge:GLU:106    NaN
saltbridge:GLU:106     -1
Name: 90, dtype: object

>  <halogenbond:GLU:106>  (91) 
halogenbond:GLU:106    NaN
halogenbond:GLU:106     -1
Name: 90, dtype: object

>  <hydroph_interaction:PRO:107>  (91) 
hydroph_interaction:PRO:107    0
hydroph_interaction:PRO:107    0
Name: 90, dtype: object

>  <hbond:PRO:107>  (91) 
hbond:PRO:107    NaN
hbond:PRO:107     -1
Name: 90, dtype: object

>  <halogenbond:PRO:107>  (91) 
halogenbond:PRO:107    NaN
halogenbond:PRO:107     -1
Name: 90, dtype: object

>  <hbond:GLY:108>  (91) 
hbond:GLY:108    NaN
hbond:GLY:108     -1
Name: 90, dtype: object

>  <halogenbond:GLY:108>  (91) 
halogenbond:GLY:108    NaN
halogenbond:GLY:108     -1
Name: 90, dtype: object

>  <hbond:ASP:109>  (91) 
hbond:ASP:109    0.0
hbond:ASP:109      0
Name: 90, dtype: object

>  <hydroph_interaction:ASP:109>  (91) 
hydroph_interaction:ASP:109    0.0
hydroph_interaction:ASP:109      0
Name: 90, dtype: object

>  <saltbridge:ASP:109>  (91) 
saltbridge:ASP:109    NaN
saltbridge:ASP:109     -1
Name: 90, dtype: object

>  <halogenbond:CYS:110>  (91) 
halogenbond:CYS:110    NaN
halogenbond:CYS:110     -1
Name: 90, dtype: object

>  <hbond:CYS:110>  (91) 
hbond:CYS:110    NaN
hbond:CYS:110     -1
Name: 90, dtype: object

>  <hbond:GLY:111>  (91) 
hbond:GLY:111    NaN
hbond:GLY:111     -1
Name: 90, dtype: object

>  <hbond:GLY:112>  (91) 
hbond:GLY:112    NaN
hbond:GLY:112     -1
Name: 90, dtype: object

>  <hbond:ILE:113>  (91) 
hbond:ILE:113    NaN
hbond:ILE:113     -1
Name: 90, dtype: object

>  <hydroph_interaction:LEU:114>  (91) 
hydroph_interaction:LEU:114    NaN
hydroph_interaction:LEU:114     -1
Name: 90, dtype: object

>  <hbond:LEU:114>  (91) 
hbond:LEU:114    NaN
hbond:LEU:114     -1
Name: 90, dtype: object

>  <hydroph_interaction:ILE:123>  (91) 
hydroph_interaction:ILE:123    NaN
hydroph_interaction:ILE:123     -1
Name: 90, dtype: object

>  <hbond:ILE:123>  (91) 
hbond:ILE:123    NaN
hbond:ILE:123     -1
Name: 90, dtype: object

>  <hydroph_interaction:VAL:124>  (91) 
hydroph_interaction:VAL:124    1.0
hydroph_interaction:VAL:124      1
Name: 90, dtype: object

>  <hbond:VAL:124>  (91) 
hbond:VAL:124    NaN
hbond:VAL:124     -1
Name: 90, dtype: object

>  <halogenbond:VAL:124>  (91) 
halogenbond:VAL:124    NaN
halogenbond:VAL:124     -1
Name: 90, dtype: object

>  <hbond:SER:125>  (91) 
hbond:SER:125    0
hbond:SER:125    0
Name: 90, dtype: object

>  <halogenbond:SER:125>  (91) 
halogenbond:SER:125    NaN
halogenbond:SER:125     -1
Name: 90, dtype: object

>  <hydroph_interaction:THR:126>  (91) 
hydroph_interaction:THR:126    NaN
hydroph_interaction:THR:126     -1
Name: 90, dtype: object

>  <hbond:THR:126>  (91) 
hbond:THR:126    0.0
hbond:THR:126      0
Name: 90, dtype: object

>  <halogenbond:THR:126>  (91) 
halogenbond:THR:126    NaN
halogenbond:THR:126     -1
Name: 90, dtype: object

>  <hbond:GLY:127>  (91) 
hbond:GLY:127    0
hbond:GLY:127    0
Name: 90, dtype: object

>  <halogenbond:GLY:127>  (91) 
halogenbond:GLY:127    0.0
halogenbond:GLY:127      0
Name: 90, dtype: object

>  <hydroph_interaction:GLY:127>  (91) 
hydroph_interaction:GLY:127    NaN
hydroph_interaction:GLY:127     -1
Name: 90, dtype: object

>  <hbond:GLY:128>  (91) 
hbond:GLY:128    NaN
hbond:GLY:128     -1
Name: 90, dtype: object

>  <halogenbond:GLY:128>  (91) 
halogenbond:GLY:128    NaN
halogenbond:GLY:128     -1
Name: 90, dtype: object

>  <hydroph_interaction:GLY:128>  (91) 
hydroph_interaction:GLY:128    NaN
hydroph_interaction:GLY:128     -1
Name: 90, dtype: object

>  <hbond:ASN:129>  (91) 
hbond:ASN:129    NaN
hbond:ASN:129     -1
Name: 90, dtype: object

>  <hydroph_interaction:ASN:129>  (91) 
hydroph_interaction:ASN:129    NaN
hydroph_interaction:ASN:129     -1
Name: 90, dtype: object

>  <halogenbond:ASN:129>  (91) 
halogenbond:ASN:129    NaN
halogenbond:ASN:129     -1
Name: 90, dtype: object

>  <hbond:GLY:130>  (91) 
hbond:GLY:130    NaN
hbond:GLY:130     -1
Name: 90, dtype: object

>  <hbond:LEU:131>  (91) 
hbond:LEU:131    NaN
hbond:LEU:131     -1
Name: 90, dtype: object

>  <hydroph_interaction:LEU:131>  (91) 
hydroph_interaction:LEU:131    NaN
hydroph_interaction:LEU:131     -1
Name: 90, dtype: object

>  <halogenbond:LEU:131>  (91) 
halogenbond:LEU:131    NaN
halogenbond:LEU:131     -1
Name: 90, dtype: object

>  <hydroph_interaction:VAL:132>  (91) 
hydroph_interaction:VAL:132    NaN
hydroph_interaction:VAL:132     -1
Name: 90, dtype: object

>  <hbond:VAL:132>  (91) 
hbond:VAL:132    NaN
hbond:VAL:132     -1
Name: 90, dtype: object

>  <hbond:GLY:133>  (91) 
hbond:GLY:133    NaN
hbond:GLY:133     -1
Name: 90, dtype: object

>  <halogenbond:GLY:133>  (91) 
halogenbond:GLY:133    NaN
halogenbond:GLY:133     -1
Name: 90, dtype: object

>  <hydroph_interaction:PHE:134>  (91) 
hydroph_interaction:PHE:134    NaN
hydroph_interaction:PHE:134     -1
Name: 90, dtype: object

>  <hbond:PHE:134>  (91) 
hbond:PHE:134    NaN
hbond:PHE:134     -1
Name: 90, dtype: object

>  <pistack:PHE:134>  (91) 
pistack:PHE:134    NaN
pistack:PHE:134     -1
Name: 90, dtype: object

>  <pication:PHE:134>  (91) 
pication:PHE:134    NaN
pication:PHE:134     -1
Name: 90, dtype: object

>  <halogenbond:PHE:134>  (91) 
halogenbond:PHE:134    NaN
halogenbond:PHE:134     -1
Name: 90, dtype: object

>  <hydroph_interaction:ALA:135>  (91) 
hydroph_interaction:ALA:135    NaN
hydroph_interaction:ALA:135     -1
Name: 90, dtype: object

>  <hbond:ALA:135>  (91) 
hbond:ALA:135    NaN
hbond:ALA:135     -1
Name: 90, dtype: object

$$$$
Z46279956
     RDKit          3D

 24 24  0  0  0  0  0  0  0  0999 V2000
   10.3730    9.3670   22.5620 C   0  0  0  0  0  0  0  0  0  0  0  0
    9.5080   10.2910   23.3850 C   0  0  0  0  0  0  0  0  0  0  0  0
    8.6080    9.7690   24.2270 N   0  0  0  0  0  0  0  0  0  0  0  0
    8.0270   10.8410   24.7630 N   0  0  0  0  0  0  0  0  0  0  0  0
    8.5310   12.0890   24.2870 C   0  0  0  0  0  0  0  0  0  0  0  0
    8.0130   13.2920   24.7510 C   0  0  0  0  0  0  0  0  0  0  0  0
    9.5120   11.7330   23.3880 C   0  0  0  0  0  0  0  0  0  0  0  0
   10.3430   12.5330   22.6290 N   0  0  0  0  0  0  0  0  0  0  0  0
   11.0990   13.6610   23.1110 C   0  0  0  0  0  0  0  0  0  0  0  0
   11.0750   14.1350   24.2450 O   0  0  0  0  0  0  0  0  0  0  0  0
   11.9570   14.2590   22.0440 C   0  0  0  0  0  0  0  0  0  0  0  0
   12.3570   15.6550   22.4010 N   0  0  0  0  0  0  0  0  0  0  0  0
   11.0970    8.8200   23.1840 H   0  0  0  0  0  0  0  0  0  0  0  0
   10.9210    9.9370   21.8140 H   0  0  0  0  0  0  0  0  0  0  0  0
    9.7530    8.6510   22.0220 H   0  0  0  0  0  0  0  0  0  0  0  0
    7.2900   10.6880   25.4470 H   0  0  0  0  0  0  0  0  0  0  0  0
    8.1860   13.4950   25.8060 H   0  0  0  0  0  0  0  0  0  0  0  0
    8.5350   14.0720   24.1780 H   0  0  0  0  0  0  0  0  0  0  0  0
    6.9400   13.4500   24.5850 H   0  0  0  0  0  0  0  0  0  0  0  0
   10.5660   12.2210   21.6790 H   0  0  0  0  0  0  0  0  0  0  0  0
   12.8620   13.7230   21.7860 H   0  0  0  0  0  0  0  0  0  0  0  0
   11.3470   14.3180   21.1320 H   0  0  0  0  0  0  0  0  0  0  0  0
   11.5880   16.3110   22.1790 H   0  0  0  0  0  0  0  0  0  0  0  0
   12.4640   15.7050   23.4180 H   0  0  0  0  0  0  0  0  0  0  0  0
  1  2  1  0
  2  3  2  0
  3  4  1  0
  4  5  1  0
  5  6  1  0
  5  7  2  0
  7  8  1  0
  8  9  1  0
  9 10  2  0
  9 11  1  0
 11 12  1  0
  7  2  1  0
  1 13  1  0
  1 14  1  0
  1 15  1  0
  4 16  1  0
  6 17  1  0
  6 18  1  0
  6 19  1  0
  8 20  1  0
 11 21  1  0
 11 22  1  0
 12 23  1  0
 12 24  1  0
A    1
 C1 
A    2
 C2 
A    3
 N1 
A    4
 N2 
A    5
 C3 
A    6
 C4 
A    7
 C5 
A    8
 N3 
A    9
 C6 
A   10
 O1 
A   11
 C7 
A   12
 N4 
A   13
 H1 
A   14
 H2 
A   15
 H3 
A   16
 H4 
A   17
 H5 
A   18
 H6 
A   19
 H7 
A   20
 H8 
A   21
 H9 
A   22
 H10
A   23
 H11
A   24
 H12
M  END
>  <ref_pdb>  (92) 
x0310_0A

>  <ref_mols>  (92) 
x0310_0A,x0365_0A

>  <original SMILES>  (92) 
Cc1n[nH]c(C)c1NC(=O)CN

>  <rationale>  (92) 
info halogenbond:G127+A86+E85+Q95+E106+E88+T126+P107+H104+Y64+C65+S87+N129+F83+R93+L131+I82+G128+P91+H21+V84+G133+Y90+Y89+H97+L81+F134+L98+R20+G103+S66+S67+S7+G108+R38+V124+M99+S36; hbond:S87+S125+E88+S105+D39+G108+G103+G130+N19+R68+V124+R93+P91+F83+S7+S66+G112+V132+R20+Y89+S77+A135+Y63+A92+A101+M99+F134+L100+I82+Y64+S36+L98+V84+L81+Y94+S80+R38+S37+V102+G8+I123+G111+I113+L114+C65+L22+S96; hydroph_interaction:V124+L22+N129+D39+N19+L40+I123+A135+Q95+I82+L98+L131+F83+R93+H104+R20+A86+V74+P91+A101+F76+M99+L114+A92+Y94+R68+Y72+Y64+V18+V102+W28+G127+G128+L81; pication:H104+R93+Y63+F134+Y90+R68+F83+R20; pistack:Y89+Y90+H104+F134+Y63+F83+Y94; saltbridge:R93+H104+E106+E85+E88+R68+R20; 

>  <intxn_cluster>  (92) 
-1

>  <intxn_cluster_rank>  (92) 
-1

>  <N_interactions>  (92) 
5

>  <∆∆G>  (92) 
-9.969531

>  <$/mg>  (92) 
163.0

>  <comRMSD>  (92) 
0.445863

>  <N_rotatable_bonds>  (92) 
5

>  <deep_P1_sidechain>  (92) 
nan

>  <farthest_distance_to_substrate>  (92) 
2.342681

>  <hbond:SER:7>  (92) 
hbond:SER:7    NaN
hbond:SER:7     -1
Name: 91, dtype: object

>  <halogenbond:SER:7>  (92) 
halogenbond:SER:7    NaN
halogenbond:SER:7     -1
Name: 91, dtype: object

>  <hbond:GLY:8>  (92) 
hbond:GLY:8    NaN
hbond:GLY:8     -1
Name: 91, dtype: object

>  <hydroph_interaction:VAL:18>  (92) 
hydroph_interaction:VAL:18    NaN
hydroph_interaction:VAL:18     -1
Name: 91, dtype: object

>  <hbond:ASN:19>  (92) 
hbond:ASN:19    NaN
hbond:ASN:19     -1
Name: 91, dtype: object

>  <hydroph_interaction:ASN:19>  (92) 
hydroph_interaction:ASN:19    NaN
hydroph_interaction:ASN:19     -1
Name: 91, dtype: object

>  <halogenbond:ASN:19>  (92) 
halogenbond:ASN:19    0.0
halogenbond:ASN:19      0
Name: 91, dtype: object

>  <hbond:ARG:20>  (92) 
hbond:ARG:20    NaN
hbond:ARG:20     -1
Name: 91, dtype: object

>  <hydroph_interaction:ARG:20>  (92) 
hydroph_interaction:ARG:20    NaN
hydroph_interaction:ARG:20     -1
Name: 91, dtype: object

>  <saltbridge:ARG:20>  (92) 
saltbridge:ARG:20    NaN
saltbridge:ARG:20     -1
Name: 91, dtype: object

>  <halogenbond:ARG:20>  (92) 
halogenbond:ARG:20    NaN
halogenbond:ARG:20     -1
Name: 91, dtype: object

>  <pication:ARG:20>  (92) 
pication:ARG:20    NaN
pication:ARG:20     -1
Name: 91, dtype: object

>  <hbond:HIS:21>  (92) 
hbond:HIS:21    0.0
hbond:HIS:21      0
Name: 91, dtype: object

>  <hydroph_interaction:HIS:21>  (92) 
hydroph_interaction:HIS:21    0.0
hydroph_interaction:HIS:21      0
Name: 91, dtype: object

>  <pistack:HIS:21>  (92) 
pistack:HIS:21    0.0
pistack:HIS:21      0
Name: 91, dtype: object

>  <pication:HIS:21>  (92) 
pication:HIS:21    0.0
pication:HIS:21      0
Name: 91, dtype: object

>  <saltbridge:HIS:21>  (92) 
saltbridge:HIS:21    0.0
saltbridge:HIS:21      0
Name: 91, dtype: object

>  <halogenbond:HIS:21>  (92) 
halogenbond:HIS:21    NaN
halogenbond:HIS:21     -1
Name: 91, dtype: object

>  <hydroph_interaction:LEU:22>  (92) 
hydroph_interaction:LEU:22    NaN
hydroph_interaction:LEU:22     -1
Name: 91, dtype: object

>  <hbond:LEU:22>  (92) 
hbond:LEU:22    NaN
hbond:LEU:22     -1
Name: 91, dtype: object

>  <hydroph_interaction:TRP:28>  (92) 
hydroph_interaction:TRP:28    NaN
hydroph_interaction:TRP:28     -1
Name: 91, dtype: object

>  <hbond:SER:36>  (92) 
hbond:SER:36    NaN
hbond:SER:36     -1
Name: 91, dtype: object

>  <halogenbond:SER:36>  (92) 
halogenbond:SER:36    NaN
halogenbond:SER:36     -1
Name: 91, dtype: object

>  <hbond:SER:37>  (92) 
hbond:SER:37    NaN
hbond:SER:37     -1
Name: 91, dtype: object

>  <hbond:ARG:38>  (92) 
hbond:ARG:38    NaN
hbond:ARG:38     -1
Name: 91, dtype: object

>  <halogenbond:ARG:38>  (92) 
halogenbond:ARG:38    NaN
halogenbond:ARG:38     -1
Name: 91, dtype: object

>  <saltbridge:ASP:39>  (92) 
saltbridge:ASP:39    0.0
saltbridge:ASP:39      0
Name: 91, dtype: object

>  <halogenbond:ASP:39>  (92) 
halogenbond:ASP:39    0.0
halogenbond:ASP:39      0
Name: 91, dtype: object

>  <hbond:ASP:39>  (92) 
hbond:ASP:39    NaN
hbond:ASP:39     -1
Name: 91, dtype: object

>  <hydroph_interaction:ASP:39>  (92) 
hydroph_interaction:ASP:39    NaN
hydroph_interaction:ASP:39     -1
Name: 91, dtype: object

>  <hydroph_interaction:LEU:40>  (92) 
hydroph_interaction:LEU:40    NaN
hydroph_interaction:LEU:40     -1
Name: 91, dtype: object

>  <hydroph_interaction:TYR:63>  (92) 
hydroph_interaction:TYR:63    0.0
hydroph_interaction:TYR:63      0
Name: 91, dtype: object

>  <hbond:TYR:63>  (92) 
hbond:TYR:63    NaN
hbond:TYR:63     -1
Name: 91, dtype: object

>  <pistack:TYR:63>  (92) 
pistack:TYR:63    NaN
pistack:TYR:63     -1
Name: 91, dtype: object

>  <pication:TYR:63>  (92) 
pication:TYR:63    NaN
pication:TYR:63     -1
Name: 91, dtype: object

>  <halogenbond:TYR:64>  (92) 
halogenbond:TYR:64    NaN
halogenbond:TYR:64     -1
Name: 91, dtype: object

>  <hbond:TYR:64>  (92) 
hbond:TYR:64    NaN
hbond:TYR:64     -1
Name: 91, dtype: object

>  <hydroph_interaction:TYR:64>  (92) 
hydroph_interaction:TYR:64    NaN
hydroph_interaction:TYR:64     -1
Name: 91, dtype: object

>  <halogenbond:CYS:65>  (92) 
halogenbond:CYS:65    NaN
halogenbond:CYS:65     -1
Name: 91, dtype: object

>  <hbond:CYS:65>  (92) 
hbond:CYS:65    NaN
hbond:CYS:65     -1
Name: 91, dtype: object

>  <hbond:SER:66>  (92) 
hbond:SER:66    NaN
hbond:SER:66     -1
Name: 91, dtype: object

>  <halogenbond:SER:66>  (92) 
halogenbond:SER:66    NaN
halogenbond:SER:66     -1
Name: 91, dtype: object

>  <hbond:SER:67>  (92) 
hbond:SER:67    0.0
hbond:SER:67      0
Name: 91, dtype: object

>  <halogenbond:SER:67>  (92) 
halogenbond:SER:67    NaN
halogenbond:SER:67     -1
Name: 91, dtype: object

>  <hbond:ARG:68>  (92) 
hbond:ARG:68    NaN
hbond:ARG:68     -1
Name: 91, dtype: object

>  <saltbridge:ARG:68>  (92) 
saltbridge:ARG:68    NaN
saltbridge:ARG:68     -1
Name: 91, dtype: object

>  <hydroph_interaction:ARG:68>  (92) 
hydroph_interaction:ARG:68    NaN
hydroph_interaction:ARG:68     -1
Name: 91, dtype: object

>  <pication:ARG:68>  (92) 
pication:ARG:68    NaN
pication:ARG:68     -1
Name: 91, dtype: object

>  <hydroph_interaction:TYR:72>  (92) 
hydroph_interaction:TYR:72    NaN
hydroph_interaction:TYR:72     -1
Name: 91, dtype: object

>  <hydroph_interaction:VAL:74>  (92) 
hydroph_interaction:VAL:74    NaN
hydroph_interaction:VAL:74     -1
Name: 91, dtype: object

>  <hydroph_interaction:PHE:76>  (92) 
hydroph_interaction:PHE:76    NaN
hydroph_interaction:PHE:76     -1
Name: 91, dtype: object

>  <hbond:SER:77>  (92) 
hbond:SER:77    NaN
hbond:SER:77     -1
Name: 91, dtype: object

>  <hbond:SER:80>  (92) 
hbond:SER:80    NaN
hbond:SER:80     -1
Name: 91, dtype: object

>  <hbond:LEU:81>  (92) 
hbond:LEU:81    NaN
hbond:LEU:81     -1
Name: 91, dtype: object

>  <halogenbond:LEU:81>  (92) 
halogenbond:LEU:81    NaN
halogenbond:LEU:81     -1
Name: 91, dtype: object

>  <hydroph_interaction:LEU:81>  (92) 
hydroph_interaction:LEU:81    NaN
hydroph_interaction:LEU:81     -1
Name: 91, dtype: object

>  <hydroph_interaction:ILE:82>  (92) 
hydroph_interaction:ILE:82    NaN
hydroph_interaction:ILE:82     -1
Name: 91, dtype: object

>  <halogenbond:ILE:82>  (92) 
halogenbond:ILE:82    NaN
halogenbond:ILE:82     -1
Name: 91, dtype: object

>  <hbond:ILE:82>  (92) 
hbond:ILE:82    NaN
hbond:ILE:82     -1
Name: 91, dtype: object

>  <hbond:PHE:83>  (92) 
hbond:PHE:83    NaN
hbond:PHE:83     -1
Name: 91, dtype: object

>  <hydroph_interaction:PHE:83>  (92) 
hydroph_interaction:PHE:83    NaN
hydroph_interaction:PHE:83     -1
Name: 91, dtype: object

>  <halogenbond:PHE:83>  (92) 
halogenbond:PHE:83    NaN
halogenbond:PHE:83     -1
Name: 91, dtype: object

>  <pistack:PHE:83>  (92) 
pistack:PHE:83    NaN
pistack:PHE:83     -1
Name: 91, dtype: object

>  <pication:PHE:83>  (92) 
pication:PHE:83    NaN
pication:PHE:83     -1
Name: 91, dtype: object

>  <hydroph_interaction:VAL:84>  (92) 
hydroph_interaction:VAL:84    0.0
hydroph_interaction:VAL:84      0
Name: 91, dtype: object

>  <halogenbond:VAL:84>  (92) 
halogenbond:VAL:84    NaN
halogenbond:VAL:84     -1
Name: 91, dtype: object

>  <hbond:VAL:84>  (92) 
hbond:VAL:84    NaN
hbond:VAL:84     -1
Name: 91, dtype: object

>  <hydroph_interaction:GLU:85>  (92) 
hydroph_interaction:GLU:85    0.0
hydroph_interaction:GLU:85      0
Name: 91, dtype: object

>  <hbond:GLU:85>  (92) 
hbond:GLU:85    0.0
hbond:GLU:85      0
Name: 91, dtype: object

>  <halogenbond:GLU:85>  (92) 
halogenbond:GLU:85    NaN
halogenbond:GLU:85     -1
Name: 91, dtype: object

>  <saltbridge:GLU:85>  (92) 
saltbridge:GLU:85    NaN
saltbridge:GLU:85     -1
Name: 91, dtype: object

>  <halogenbond:ALA:86>  (92) 
halogenbond:ALA:86    NaN
halogenbond:ALA:86     -1
Name: 91, dtype: object

>  <hbond:ALA:86>  (92) 
hbond:ALA:86    0.0
hbond:ALA:86      0
Name: 91, dtype: object

>  <hydroph_interaction:ALA:86>  (92) 
hydroph_interaction:ALA:86    NaN
hydroph_interaction:ALA:86     -1
Name: 91, dtype: object

>  <hbond:SER:87>  (92) 
hbond:SER:87    1
hbond:SER:87    1
Name: 91, dtype: object

>  <halogenbond:SER:87>  (92) 
halogenbond:SER:87    NaN
halogenbond:SER:87     -1
Name: 91, dtype: object

>  <hbond:GLU:88>  (92) 
hbond:GLU:88    1.0
hbond:GLU:88      1
Name: 91, dtype: object

>  <hydroph_interaction:GLU:88>  (92) 
hydroph_interaction:GLU:88    0.0
hydroph_interaction:GLU:88      0
Name: 91, dtype: object

>  <halogenbond:GLU:88>  (92) 
halogenbond:GLU:88    NaN
halogenbond:GLU:88     -1
Name: 91, dtype: object

>  <saltbridge:GLU:88>  (92) 
saltbridge:GLU:88    NaN
saltbridge:GLU:88     -1
Name: 91, dtype: object

>  <hydroph_interaction:TYR:89>  (92) 
hydroph_interaction:TYR:89    0.0
hydroph_interaction:TYR:89      0
Name: 91, dtype: object

>  <pistack:TYR:89>  (92) 
pistack:TYR:89    NaN
pistack:TYR:89     -1
Name: 91, dtype: object

>  <hbond:TYR:89>  (92) 
hbond:TYR:89    NaN
hbond:TYR:89     -1
Name: 91, dtype: object

>  <halogenbond:TYR:89>  (92) 
halogenbond:TYR:89    NaN
halogenbond:TYR:89     -1
Name: 91, dtype: object

>  <hydroph_interaction:TYR:90>  (92) 
hydroph_interaction:TYR:90    0.0
hydroph_interaction:TYR:90      0
Name: 91, dtype: object

>  <hbond:TYR:90>  (92) 
hbond:TYR:90    0.0
hbond:TYR:90      0
Name: 91, dtype: object

>  <pistack:TYR:90>  (92) 
pistack:TYR:90    NaN
pistack:TYR:90     -1
Name: 91, dtype: object

>  <halogenbond:TYR:90>  (92) 
halogenbond:TYR:90    NaN
halogenbond:TYR:90     -1
Name: 91, dtype: object

>  <pication:TYR:90>  (92) 
pication:TYR:90    NaN
pication:TYR:90     -1
Name: 91, dtype: object

>  <hbond:PRO:91>  (92) 
hbond:PRO:91    NaN
hbond:PRO:91     -1
Name: 91, dtype: object

>  <hydroph_interaction:PRO:91>  (92) 
hydroph_interaction:PRO:91    NaN
hydroph_interaction:PRO:91     -1
Name: 91, dtype: object

>  <halogenbond:PRO:91>  (92) 
halogenbond:PRO:91    NaN
halogenbond:PRO:91     -1
Name: 91, dtype: object

>  <hbond:ALA:92>  (92) 
hbond:ALA:92    NaN
hbond:ALA:92     -1
Name: 91, dtype: object

>  <hydroph_interaction:ALA:92>  (92) 
hydroph_interaction:ALA:92    NaN
hydroph_interaction:ALA:92     -1
Name: 91, dtype: object

>  <saltbridge:ARG:93>  (92) 
saltbridge:ARG:93    NaN
saltbridge:ARG:93     -1
Name: 91, dtype: object

>  <hbond:ARG:93>  (92) 
hbond:ARG:93    NaN
hbond:ARG:93     -1
Name: 91, dtype: object

>  <hydroph_interaction:ARG:93>  (92) 
hydroph_interaction:ARG:93    NaN
hydroph_interaction:ARG:93     -1
Name: 91, dtype: object

>  <halogenbond:ARG:93>  (92) 
halogenbond:ARG:93    NaN
halogenbond:ARG:93     -1
Name: 91, dtype: object

>  <pication:ARG:93>  (92) 
pication:ARG:93    NaN
pication:ARG:93     -1
Name: 91, dtype: object

>  <hydroph_interaction:TYR:94>  (92) 
hydroph_interaction:TYR:94    NaN
hydroph_interaction:TYR:94     -1
Name: 91, dtype: object

>  <pistack:TYR:94>  (92) 
pistack:TYR:94    NaN
pistack:TYR:94     -1
Name: 91, dtype: object

>  <hbond:TYR:94>  (92) 
hbond:TYR:94    NaN
hbond:TYR:94     -1
Name: 91, dtype: object

>  <hbond:GLN:95>  (92) 
hbond:GLN:95    0.0
hbond:GLN:95      0
Name: 91, dtype: object

>  <hydroph_interaction:GLN:95>  (92) 
hydroph_interaction:GLN:95    NaN
hydroph_interaction:GLN:95     -1
Name: 91, dtype: object

>  <halogenbond:GLN:95>  (92) 
halogenbond:GLN:95    NaN
halogenbond:GLN:95     -1
Name: 91, dtype: object

>  <hbond:SER:96>  (92) 
hbond:SER:96    NaN
hbond:SER:96     -1
Name: 91, dtype: object

>  <halogenbond:HIS:97>  (92) 
halogenbond:HIS:97    NaN
halogenbond:HIS:97     -1
Name: 91, dtype: object

>  <hydroph_interaction:LEU:98>  (92) 
hydroph_interaction:LEU:98    NaN
hydroph_interaction:LEU:98     -1
Name: 91, dtype: object

>  <hbond:LEU:98>  (92) 
hbond:LEU:98    NaN
hbond:LEU:98     -1
Name: 91, dtype: object

>  <halogenbond:LEU:98>  (92) 
halogenbond:LEU:98    NaN
halogenbond:LEU:98     -1
Name: 91, dtype: object

>  <hbond:MET:99>  (92) 
hbond:MET:99    NaN
hbond:MET:99     -1
Name: 91, dtype: object

>  <hydroph_interaction:MET:99>  (92) 
hydroph_interaction:MET:99    NaN
hydroph_interaction:MET:99     -1
Name: 91, dtype: object

>  <halogenbond:MET:99>  (92) 
halogenbond:MET:99    NaN
halogenbond:MET:99     -1
Name: 91, dtype: object

>  <hydroph_interaction:LEU:100>  (92) 
hydroph_interaction:LEU:100    0.0
hydroph_interaction:LEU:100      0
Name: 91, dtype: object

>  <hbond:LEU:100>  (92) 
hbond:LEU:100    NaN
hbond:LEU:100     -1
Name: 91, dtype: object

>  <hbond:ALA:101>  (92) 
hbond:ALA:101    NaN
hbond:ALA:101     -1
Name: 91, dtype: object

>  <hydroph_interaction:ALA:101>  (92) 
hydroph_interaction:ALA:101    NaN
hydroph_interaction:ALA:101     -1
Name: 91, dtype: object

>  <hydroph_interaction:VAL:102>  (92) 
hydroph_interaction:VAL:102    NaN
hydroph_interaction:VAL:102     -1
Name: 91, dtype: object

>  <hbond:VAL:102>  (92) 
hbond:VAL:102    NaN
hbond:VAL:102     -1
Name: 91, dtype: object

>  <hbond:GLY:103>  (92) 
hbond:GLY:103    NaN
hbond:GLY:103     -1
Name: 91, dtype: object

>  <halogenbond:GLY:103>  (92) 
halogenbond:GLY:103    NaN
halogenbond:GLY:103     -1
Name: 91, dtype: object

>  <hbond:HIS:104>  (92) 
hbond:HIS:104    0.0
hbond:HIS:104      0
Name: 91, dtype: object

>  <saltbridge:HIS:104>  (92) 
saltbridge:HIS:104    NaN
saltbridge:HIS:104     -1
Name: 91, dtype: object

>  <pication:HIS:104>  (92) 
pication:HIS:104    NaN
pication:HIS:104     -1
Name: 91, dtype: object

>  <halogenbond:HIS:104>  (92) 
halogenbond:HIS:104    NaN
halogenbond:HIS:104     -1
Name: 91, dtype: object

>  <hydroph_interaction:HIS:104>  (92) 
hydroph_interaction:HIS:104    NaN
hydroph_interaction:HIS:104     -1
Name: 91, dtype: object

>  <pistack:HIS:104>  (92) 
pistack:HIS:104    NaN
pistack:HIS:104     -1
Name: 91, dtype: object

>  <halogenbond:SER:105>  (92) 
halogenbond:SER:105    0.0
halogenbond:SER:105      0
Name: 91, dtype: object

>  <hbond:SER:105>  (92) 
hbond:SER:105    1.0
hbond:SER:105      1
Name: 91, dtype: object

>  <hbond:GLU:106>  (92) 
hbond:GLU:106    0.0
hbond:GLU:106      0
Name: 91, dtype: object

>  <hydroph_interaction:GLU:106>  (92) 
hydroph_interaction:GLU:106    0.0
hydroph_interaction:GLU:106      0
Name: 91, dtype: object

>  <saltbridge:GLU:106>  (92) 
saltbridge:GLU:106    NaN
saltbridge:GLU:106     -1
Name: 91, dtype: object

>  <halogenbond:GLU:106>  (92) 
halogenbond:GLU:106    NaN
halogenbond:GLU:106     -1
Name: 91, dtype: object

>  <hydroph_interaction:PRO:107>  (92) 
hydroph_interaction:PRO:107    0
hydroph_interaction:PRO:107    0
Name: 91, dtype: object

>  <hbond:PRO:107>  (92) 
hbond:PRO:107    0.0
hbond:PRO:107      0
Name: 91, dtype: object

>  <halogenbond:PRO:107>  (92) 
halogenbond:PRO:107    NaN
halogenbond:PRO:107     -1
Name: 91, dtype: object

>  <hbond:GLY:108>  (92) 
hbond:GLY:108    NaN
hbond:GLY:108     -1
Name: 91, dtype: object

>  <halogenbond:GLY:108>  (92) 
halogenbond:GLY:108    NaN
halogenbond:GLY:108     -1
Name: 91, dtype: object

>  <hbond:ASP:109>  (92) 
hbond:ASP:109    0.0
hbond:ASP:109      0
Name: 91, dtype: object

>  <hydroph_interaction:ASP:109>  (92) 
hydroph_interaction:ASP:109    0.0
hydroph_interaction:ASP:109      0
Name: 91, dtype: object

>  <saltbridge:ASP:109>  (92) 
saltbridge:ASP:109    0.0
saltbridge:ASP:109      0
Name: 91, dtype: object

>  <halogenbond:CYS:110>  (92) 
halogenbond:CYS:110    0.0
halogenbond:CYS:110      0
Name: 91, dtype: object

>  <hbond:CYS:110>  (92) 
hbond:CYS:110    0.0
hbond:CYS:110      0
Name: 91, dtype: object

>  <hbond:GLY:111>  (92) 
hbond:GLY:111    NaN
hbond:GLY:111     -1
Name: 91, dtype: object

>  <hbond:GLY:112>  (92) 
hbond:GLY:112    NaN
hbond:GLY:112     -1
Name: 91, dtype: object

>  <hbond:ILE:113>  (92) 
hbond:ILE:113    NaN
hbond:ILE:113     -1
Name: 91, dtype: object

>  <hydroph_interaction:LEU:114>  (92) 
hydroph_interaction:LEU:114    NaN
hydroph_interaction:LEU:114     -1
Name: 91, dtype: object

>  <hbond:LEU:114>  (92) 
hbond:LEU:114    NaN
hbond:LEU:114     -1
Name: 91, dtype: object

>  <hydroph_interaction:ILE:123>  (92) 
hydroph_interaction:ILE:123    NaN
hydroph_interaction:ILE:123     -1
Name: 91, dtype: object

>  <hbond:ILE:123>  (92) 
hbond:ILE:123    NaN
hbond:ILE:123     -1
Name: 91, dtype: object

>  <hydroph_interaction:VAL:124>  (92) 
hydroph_interaction:VAL:124    1.0
hydroph_interaction:VAL:124      1
Name: 91, dtype: object

>  <hbond:VAL:124>  (92) 
hbond:VAL:124    NaN
hbond:VAL:124     -1
Name: 91, dtype: object

>  <halogenbond:VAL:124>  (92) 
halogenbond:VAL:124    NaN
halogenbond:VAL:124     -1
Name: 91, dtype: object

>  <hbond:SER:125>  (92) 
hbond:SER:125    1
hbond:SER:125    1
Name: 91, dtype: object

>  <halogenbond:SER:125>  (92) 
halogenbond:SER:125    0.0
halogenbond:SER:125      0
Name: 91, dtype: object

>  <hydroph_interaction:THR:126>  (92) 
hydroph_interaction:THR:126    0.0
hydroph_interaction:THR:126      0
Name: 91, dtype: object

>  <hbond:THR:126>  (92) 
hbond:THR:126    0.0
hbond:THR:126      0
Name: 91, dtype: object

>  <halogenbond:THR:126>  (92) 
halogenbond:THR:126    NaN
halogenbond:THR:126     -1
Name: 91, dtype: object

>  <hbond:GLY:127>  (92) 
hbond:GLY:127    0
hbond:GLY:127    0
Name: 91, dtype: object

>  <halogenbond:GLY:127>  (92) 
halogenbond:GLY:127    NaN
halogenbond:GLY:127     -1
Name: 91, dtype: object

>  <hydroph_interaction:GLY:127>  (92) 
hydroph_interaction:GLY:127    NaN
hydroph_interaction:GLY:127     -1
Name: 91, dtype: object

>  <hbond:GLY:128>  (92) 
hbond:GLY:128    0.0
hbond:GLY:128      0
Name: 91, dtype: object

>  <halogenbond:GLY:128>  (92) 
halogenbond:GLY:128    NaN
halogenbond:GLY:128     -1
Name: 91, dtype: object

>  <hydroph_interaction:GLY:128>  (92) 
hydroph_interaction:GLY:128    NaN
hydroph_interaction:GLY:128     -1
Name: 91, dtype: object

>  <hbond:ASN:129>  (92) 
hbond:ASN:129    0.0
hbond:ASN:129      0
Name: 91, dtype: object

>  <hydroph_interaction:ASN:129>  (92) 
hydroph_interaction:ASN:129    NaN
hydroph_interaction:ASN:129     -1
Name: 91, dtype: object

>  <halogenbond:ASN:129>  (92) 
halogenbond:ASN:129    NaN
halogenbond:ASN:129     -1
Name: 91, dtype: object

>  <hbond:GLY:130>  (92) 
hbond:GLY:130    NaN
hbond:GLY:130     -1
Name: 91, dtype: object

>  <hbond:LEU:131>  (92) 
hbond:LEU:131    0.0
hbond:LEU:131      0
Name: 91, dtype: object

>  <hydroph_interaction:LEU:131>  (92) 
hydroph_interaction:LEU:131    NaN
hydroph_interaction:LEU:131     -1
Name: 91, dtype: object

>  <halogenbond:LEU:131>  (92) 
halogenbond:LEU:131    NaN
halogenbond:LEU:131     -1
Name: 91, dtype: object

>  <hydroph_interaction:VAL:132>  (92) 
hydroph_interaction:VAL:132    0.0
hydroph_interaction:VAL:132      0
Name: 91, dtype: object

>  <hbond:VAL:132>  (92) 
hbond:VAL:132    NaN
hbond:VAL:132     -1
Name: 91, dtype: object

>  <hbond:GLY:133>  (92) 
hbond:GLY:133    0.0
hbond:GLY:133      0
Name: 91, dtype: object

>  <halogenbond:GLY:133>  (92) 
halogenbond:GLY:133    NaN
halogenbond:GLY:133     -1
Name: 91, dtype: object

>  <hydroph_interaction:PHE:134>  (92) 
hydroph_interaction:PHE:134    0.0
hydroph_interaction:PHE:134      0
Name: 91, dtype: object

>  <hbond:PHE:134>  (92) 
hbond:PHE:134    NaN
hbond:PHE:134     -1
Name: 91, dtype: object

>  <pistack:PHE:134>  (92) 
pistack:PHE:134    NaN
pistack:PHE:134     -1
Name: 91, dtype: object

>  <pication:PHE:134>  (92) 
pication:PHE:134    NaN
pication:PHE:134     -1
Name: 91, dtype: object

>  <halogenbond:PHE:134>  (92) 
halogenbond:PHE:134    NaN
halogenbond:PHE:134     -1
Name: 91, dtype: object

>  <hydroph_interaction:ALA:135>  (92) 
hydroph_interaction:ALA:135    NaN
hydroph_interaction:ALA:135     -1
Name: 91, dtype: object

>  <hbond:ALA:135>  (92) 
hbond:ALA:135    NaN
hbond:ALA:135     -1
Name: 91, dtype: object

$$$$
Z5116054929
     RDKit          3D

 47 49  0  0  0  0  0  0  0  0999 V2000
    6.1960   13.6360   25.3620 C   0  0  0  0  0  0  0  0  0  0  0  0
    6.5770   12.5600   26.2390 N   0  0  0  0  0  0  0  0  0  0  0  0
    6.9110   11.3320   25.6980 C   0  0  0  0  0  0  0  0  0  0  0  0
    6.3820   10.2590   25.9000 O   0  0  0  0  0  0  0  0  0  0  0  0
    8.0760   11.3450   24.7190 C   0  0  0  0  0  0  0  0  0  0  0  0
    8.4990   10.1030   24.1520 C   0  0  0  0  0  0  0  0  0  0  0  0
    9.6430   10.2750   23.1870 C   0  0  0  0  0  0  0  0  0  0  0  0
   10.3020    9.2010   22.4220 C   0  0  0  0  0  0  0  0  0  0  0  0
   10.1690   11.5540   22.9580 C   0  0  0  0  0  0  0  0  0  0  0  0
    9.6460   12.6460   23.6100 C   0  0  0  0  0  0  0  0  0  0  0  0
   10.2180   13.8330   23.3630 N   0  0  0  0  0  0  0  0  0  0  0  0
   10.9800   14.3330   22.3590 C   0  0  0  0  0  0  0  0  0  0  0  0
   10.4540   14.8720   21.2300 C   0  0  0  0  0  0  0  0  0  0  0  0
   11.2460   15.4300   20.1680 C   0  0  0  0  0  0  0  0  0  0  0  0
   10.8330   15.9990   19.0470 N   0  0  0  0  0  0  0  0  0  0  0  0
    9.4940   16.4620   18.9710 C   0  0  0  0  0  0  0  0  0  0  0  0
    8.9220   17.0610   17.6810 C   0  0  0  0  0  0  0  0  0  0  0  0
   10.0240   17.4860   16.7200 C   0  0  0  0  0  0  0  0  0  0  0  0
   11.2360   16.5580   16.6400 C   0  0  0  0  0  0  0  0  0  0  0  0
   11.4300   15.5540   17.7980 C   0  0  0  0  0  0  0  0  0  0  0  0
   12.5880   15.3910   20.3230 N   0  0  0  0  0  0  0  0  0  0  0  0
   13.0400   14.8450   21.4620 C   0  0  0  0  0  0  0  0  0  0  0  0
   12.3640   14.3190   22.4830 N   0  0  0  0  0  0  0  0  0  0  0  0
    8.6220   12.5540   24.4640 C   0  0  0  0  0  0  0  0  0  0  0  0
    6.6130   14.5910   25.6970 H   0  0  0  0  0  0  0  0  0  0  0  0
    5.1030   13.7120   25.3330 H   0  0  0  0  0  0  0  0  0  0  0  0
    6.5500   13.4260   24.3470 H   0  0  0  0  0  0  0  0  0  0  0  0
    6.2230   12.5830   27.1850 H   0  0  0  0  0  0  0  0  0  0  0  0
    8.0540    9.1490   24.3740 H   0  0  0  0  0  0  0  0  0  0  0  0
   10.9310    9.6200   21.6410 H   0  0  0  0  0  0  0  0  0  0  0  0
   10.9360    8.5860   23.0710 H   0  0  0  0  0  0  0  0  0  0  0  0
    9.5680    8.5690   21.9270 H   0  0  0  0  0  0  0  0  0  0  0  0
   10.9930   11.6720   22.2690 H   0  0  0  0  0  0  0  0  0  0  0  0
   10.5080   14.2960   24.2200 H   0  0  0  0  0  0  0  0  0  0  0  0
    9.3590   14.8590   21.1910 H   0  0  0  0  0  0  0  0  0  0  0  0
    9.2740   17.1600   19.7830 H   0  0  0  0  0  0  0  0  0  0  0  0
    8.9070   15.5890   19.2260 H   0  0  0  0  0  0  0  0  0  0  0  0
    8.3070   17.9370   17.9130 H   0  0  0  0  0  0  0  0  0  0  0  0
    8.2810   16.3440   17.1800 H   0  0  0  0  0  0  0  0  0  0  0  0
   10.3340   18.4610   16.9930 H   0  0  0  0  0  0  0  0  0  0  0  0
    9.6350   17.6380   15.7390 H   0  0  0  0  0  0  0  0  0  0  0  0
   12.1040   17.1490   16.5560 H   0  0  0  0  0  0  0  0  0  0  0  0
   11.2350   16.0670   15.6850 H   0  0  0  0  0  0  0  0  0  0  0  0
   11.0170   14.5760   17.5640 H   0  0  0  0  0  0  0  0  0  0  0  0
   12.4910   15.3470   17.9450 H   0  0  0  0  0  0  0  0  0  0  0  0
   14.1180   14.8550   21.5290 H   0  0  0  0  0  0  0  0  0  0  0  0
    8.2350   13.4450   24.9540 H   0  0  0  0  0  0  0  0  0  0  0  0
  1  2  1  0
  2  3  1  0
  3  4  2  0
  3  5  1  0
  5  6  2  0
  6  7  1  0
  7  8  1  0
  7  9  2  0
  9 10  1  0
 10 11  1  0
 11 12  1  0
 12 13  2  0
 13 14  1  0
 14 15  1  0
 15 16  1  0
 16 17  1  0
 17 18  1  0
 18 19  1  0
 19 20  1  0
 14 21  2  0
 21 22  1  0
 22 23  2  0
 10 24  2  0
 24  5  1  0
 23 12  1  0
 20 15  1  0
  1 25  1  0
  1 26  1  0
  1 27  1  0
  2 28  1  0
  6 29  1  0
  8 30  1  0
  8 31  1  0
  8 32  1  0
  9 33  1  0
 11 34  1  0
 13 35  1  0
 16 36  1  0
 16 37  1  0
 17 38  1  0
 17 39  1  0
 18 40  1  0
 18 41  1  0
 19 42  1  0
 19 43  1  0
 20 44  1  0
 20 45  1  0
 22 46  1  0
 24 47  1  0
A    1
 C1 
A    2
 N1 
A    3
 C2 
A    4
 O1 
A    5
 C3 
A    6
 C4 
A    7
 C5 
A    8
 C6 
A    9
 C7 
A   10
 C8 
A   11
 N2 
A   12
 C9 
A   13
 C10
A   14
 C11
A   15
 N3 
A   16
 C12
A   17
 C13
A   18
 C14
A   19
 C15
A   20
 C16
A   21
 N4 
A   22
 C17
A   23
 N5 
A   24
 C18
A   25
 H1 
A   26
 H2 
A   27
 H3 
A   28
 H4 
A   29
 H5 
A   30
 H6 
A   31
 H7 
A   32
 H8 
A   33
 H9 
A   34
 H10
A   35
 H11
A   36
 H12
A   37
 H13
A   38
 H14
A   39
 H15
A   40
 H16
A   41
 H17
A   42
 H18
A   43
 H19
A   44
 H20
A   45
 H21
A   46
 H22
A   47
 H23
M  END
>  <ref_pdb>  (93) 
x0310_0A

>  <ref_mols>  (93) 
x0554_0A,x0739_0A

>  <original SMILES>  (93) 
CNC(=O)c1cc(C)cc(Nc2cc(N3CCCCC3)ncn2)c1

>  <rationale>  (93) 
info halogenbond:I82+H97+F134+L98+S66; hbond:S87+A92+S37; hydroph_interaction:V84+V124+Y90+P107+D39+Q95+V18; pication:Y63+F83; pistack:H21+Y94; 

>  <intxn_cluster>  (93) 
103

>  <intxn_cluster_rank>  (93) 
1

>  <N_interactions>  (93) 
12

>  <∆∆G>  (93) 
-9.341001

>  <$/mg>  (93) 
0.0

>  <comRMSD>  (93) 
0.785557

>  <N_rotatable_bonds>  (93) 
6

>  <deep_P1_sidechain>  (93) 
True

>  <farthest_distance_to_substrate>  (93) 
3.403137

>  <hbond:SER:7>  (93) 
hbond:SER:7    0.0
hbond:SER:7      0
Name: 92, dtype: object

>  <halogenbond:SER:7>  (93) 
halogenbond:SER:7    0.0
halogenbond:SER:7      0
Name: 92, dtype: object

>  <hbond:GLY:8>  (93) 
hbond:GLY:8    0.0
hbond:GLY:8      0
Name: 92, dtype: object

>  <hydroph_interaction:VAL:18>  (93) 
hydroph_interaction:VAL:18    NaN
hydroph_interaction:VAL:18     -1
Name: 92, dtype: object

>  <hbond:ASN:19>  (93) 
hbond:ASN:19    0.0
hbond:ASN:19      0
Name: 92, dtype: object

>  <hydroph_interaction:ASN:19>  (93) 
hydroph_interaction:ASN:19    0.0
hydroph_interaction:ASN:19      0
Name: 92, dtype: object

>  <halogenbond:ASN:19>  (93) 
halogenbond:ASN:19    0.0
halogenbond:ASN:19      0
Name: 92, dtype: object

>  <hbond:ARG:20>  (93) 
hbond:ARG:20    0.0
hbond:ARG:20      0
Name: 92, dtype: object

>  <hydroph_interaction:ARG:20>  (93) 
hydroph_interaction:ARG:20    0.0
hydroph_interaction:ARG:20      0
Name: 92, dtype: object

>  <saltbridge:ARG:20>  (93) 
saltbridge:ARG:20    0.0
saltbridge:ARG:20      0
Name: 92, dtype: object

>  <halogenbond:ARG:20>  (93) 
halogenbond:ARG:20    0.0
halogenbond:ARG:20      0
Name: 92, dtype: object

>  <pication:ARG:20>  (93) 
pication:ARG:20    0.0
pication:ARG:20      0
Name: 92, dtype: object

>  <hbond:HIS:21>  (93) 
hbond:HIS:21    0.0
hbond:HIS:21      0
Name: 92, dtype: object

>  <hydroph_interaction:HIS:21>  (93) 
hydroph_interaction:HIS:21    0.0
hydroph_interaction:HIS:21      0
Name: 92, dtype: object

>  <pistack:HIS:21>  (93) 
pistack:HIS:21    1.0
pistack:HIS:21      1
Name: 92, dtype: object

>  <pication:HIS:21>  (93) 
pication:HIS:21    0.0
pication:HIS:21      0
Name: 92, dtype: object

>  <saltbridge:HIS:21>  (93) 
saltbridge:HIS:21    0.0
saltbridge:HIS:21      0
Name: 92, dtype: object

>  <halogenbond:HIS:21>  (93) 
halogenbond:HIS:21    0.0
halogenbond:HIS:21      0
Name: 92, dtype: object

>  <hydroph_interaction:LEU:22>  (93) 
hydroph_interaction:LEU:22    0.0
hydroph_interaction:LEU:22      0
Name: 92, dtype: object

>  <hbond:LEU:22>  (93) 
hbond:LEU:22    0.0
hbond:LEU:22      0
Name: 92, dtype: object

>  <hydroph_interaction:TRP:28>  (93) 
hydroph_interaction:TRP:28    0.0
hydroph_interaction:TRP:28      0
Name: 92, dtype: object

>  <hbond:SER:36>  (93) 
hbond:SER:36    0.0
hbond:SER:36      0
Name: 92, dtype: object

>  <halogenbond:SER:36>  (93) 
halogenbond:SER:36    0.0
halogenbond:SER:36      0
Name: 92, dtype: object

>  <hbond:SER:37>  (93) 
hbond:SER:37    NaN
hbond:SER:37     -1
Name: 92, dtype: object

>  <hbond:ARG:38>  (93) 
hbond:ARG:38    0.0
hbond:ARG:38      0
Name: 92, dtype: object

>  <halogenbond:ARG:38>  (93) 
halogenbond:ARG:38    0.0
halogenbond:ARG:38      0
Name: 92, dtype: object

>  <saltbridge:ASP:39>  (93) 
saltbridge:ASP:39    0.0
saltbridge:ASP:39      0
Name: 92, dtype: object

>  <halogenbond:ASP:39>  (93) 
halogenbond:ASP:39    0.0
halogenbond:ASP:39      0
Name: 92, dtype: object

>  <hbond:ASP:39>  (93) 
hbond:ASP:39    0.0
hbond:ASP:39      0
Name: 92, dtype: object

>  <hydroph_interaction:ASP:39>  (93) 
hydroph_interaction:ASP:39    1.0
hydroph_interaction:ASP:39      1
Name: 92, dtype: object

>  <hydroph_interaction:LEU:40>  (93) 
hydroph_interaction:LEU:40    0.0
hydroph_interaction:LEU:40      0
Name: 92, dtype: object

>  <hydroph_interaction:TYR:63>  (93) 
hydroph_interaction:TYR:63    0.0
hydroph_interaction:TYR:63      0
Name: 92, dtype: object

>  <hbond:TYR:63>  (93) 
hbond:TYR:63    0.0
hbond:TYR:63      0
Name: 92, dtype: object

>  <pistack:TYR:63>  (93) 
pistack:TYR:63    0.0
pistack:TYR:63      0
Name: 92, dtype: object

>  <pication:TYR:63>  (93) 
pication:TYR:63    NaN
pication:TYR:63     -1
Name: 92, dtype: object

>  <halogenbond:TYR:64>  (93) 
halogenbond:TYR:64    0.0
halogenbond:TYR:64      0
Name: 92, dtype: object

>  <hbond:TYR:64>  (93) 
hbond:TYR:64    0.0
hbond:TYR:64      0
Name: 92, dtype: object

>  <hydroph_interaction:TYR:64>  (93) 
hydroph_interaction:TYR:64    0.0
hydroph_interaction:TYR:64      0
Name: 92, dtype: object

>  <halogenbond:CYS:65>  (93) 
halogenbond:CYS:65    0.0
halogenbond:CYS:65      0
Name: 92, dtype: object

>  <hbond:CYS:65>  (93) 
hbond:CYS:65    0.0
hbond:CYS:65      0
Name: 92, dtype: object

>  <hbond:SER:66>  (93) 
hbond:SER:66    0.0
hbond:SER:66      0
Name: 92, dtype: object

>  <halogenbond:SER:66>  (93) 
halogenbond:SER:66    NaN
halogenbond:SER:66     -1
Name: 92, dtype: object

>  <hbond:SER:67>  (93) 
hbond:SER:67    0.0
hbond:SER:67      0
Name: 92, dtype: object

>  <halogenbond:SER:67>  (93) 
halogenbond:SER:67    0.0
halogenbond:SER:67      0
Name: 92, dtype: object

>  <hbond:ARG:68>  (93) 
hbond:ARG:68    0.0
hbond:ARG:68      0
Name: 92, dtype: object

>  <saltbridge:ARG:68>  (93) 
saltbridge:ARG:68    0.0
saltbridge:ARG:68      0
Name: 92, dtype: object

>  <hydroph_interaction:ARG:68>  (93) 
hydroph_interaction:ARG:68    0.0
hydroph_interaction:ARG:68      0
Name: 92, dtype: object

>  <pication:ARG:68>  (93) 
pication:ARG:68    0.0
pication:ARG:68      0
Name: 92, dtype: object

>  <hydroph_interaction:TYR:72>  (93) 
hydroph_interaction:TYR:72    0.0
hydroph_interaction:TYR:72      0
Name: 92, dtype: object

>  <hydroph_interaction:VAL:74>  (93) 
hydroph_interaction:VAL:74    0.0
hydroph_interaction:VAL:74      0
Name: 92, dtype: object

>  <hydroph_interaction:PHE:76>  (93) 
hydroph_interaction:PHE:76    0.0
hydroph_interaction:PHE:76      0
Name: 92, dtype: object

>  <hbond:SER:77>  (93) 
hbond:SER:77    0.0
hbond:SER:77      0
Name: 92, dtype: object

>  <hbond:SER:80>  (93) 
hbond:SER:80    0.0
hbond:SER:80      0
Name: 92, dtype: object

>  <hbond:LEU:81>  (93) 
hbond:LEU:81    0.0
hbond:LEU:81      0
Name: 92, dtype: object

>  <halogenbond:LEU:81>  (93) 
halogenbond:LEU:81    0.0
halogenbond:LEU:81      0
Name: 92, dtype: object

>  <hydroph_interaction:LEU:81>  (93) 
hydroph_interaction:LEU:81    0.0
hydroph_interaction:LEU:81      0
Name: 92, dtype: object

>  <hydroph_interaction:ILE:82>  (93) 
hydroph_interaction:ILE:82    0.0
hydroph_interaction:ILE:82      0
Name: 92, dtype: object

>  <halogenbond:ILE:82>  (93) 
halogenbond:ILE:82    NaN
halogenbond:ILE:82     -1
Name: 92, dtype: object

>  <hbond:ILE:82>  (93) 
hbond:ILE:82    0.0
hbond:ILE:82      0
Name: 92, dtype: object

>  <hbond:PHE:83>  (93) 
hbond:PHE:83    0.0
hbond:PHE:83      0
Name: 92, dtype: object

>  <hydroph_interaction:PHE:83>  (93) 
hydroph_interaction:PHE:83    0.0
hydroph_interaction:PHE:83      0
Name: 92, dtype: object

>  <halogenbond:PHE:83>  (93) 
halogenbond:PHE:83    0.0
halogenbond:PHE:83      0
Name: 92, dtype: object

>  <pistack:PHE:83>  (93) 
pistack:PHE:83    0.0
pistack:PHE:83      0
Name: 92, dtype: object

>  <pication:PHE:83>  (93) 
pication:PHE:83    NaN
pication:PHE:83     -1
Name: 92, dtype: object

>  <hydroph_interaction:VAL:84>  (93) 
hydroph_interaction:VAL:84    1.0
hydroph_interaction:VAL:84      1
Name: 92, dtype: object

>  <halogenbond:VAL:84>  (93) 
halogenbond:VAL:84    0.0
halogenbond:VAL:84      0
Name: 92, dtype: object

>  <hbond:VAL:84>  (93) 
hbond:VAL:84    0.0
hbond:VAL:84      0
Name: 92, dtype: object

>  <hydroph_interaction:GLU:85>  (93) 
hydroph_interaction:GLU:85    0.0
hydroph_interaction:GLU:85      0
Name: 92, dtype: object

>  <hbond:GLU:85>  (93) 
hbond:GLU:85    0.0
hbond:GLU:85      0
Name: 92, dtype: object

>  <halogenbond:GLU:85>  (93) 
halogenbond:GLU:85    0.0
halogenbond:GLU:85      0
Name: 92, dtype: object

>  <saltbridge:GLU:85>  (93) 
saltbridge:GLU:85    0.0
saltbridge:GLU:85      0
Name: 92, dtype: object

>  <halogenbond:ALA:86>  (93) 
halogenbond:ALA:86    0.0
halogenbond:ALA:86      0
Name: 92, dtype: object

>  <hbond:ALA:86>  (93) 
hbond:ALA:86    0.0
hbond:ALA:86      0
Name: 92, dtype: object

>  <hydroph_interaction:ALA:86>  (93) 
hydroph_interaction:ALA:86    0.0
hydroph_interaction:ALA:86      0
Name: 92, dtype: object

>  <hbond:SER:87>  (93) 
hbond:SER:87    2
hbond:SER:87    2
Name: 92, dtype: object

>  <halogenbond:SER:87>  (93) 
halogenbond:SER:87    0.0
halogenbond:SER:87      0
Name: 92, dtype: object

>  <hbond:GLU:88>  (93) 
hbond:GLU:88    0.0
hbond:GLU:88      0
Name: 92, dtype: object

>  <hydroph_interaction:GLU:88>  (93) 
hydroph_interaction:GLU:88    0.0
hydroph_interaction:GLU:88      0
Name: 92, dtype: object

>  <halogenbond:GLU:88>  (93) 
halogenbond:GLU:88    0.0
halogenbond:GLU:88      0
Name: 92, dtype: object

>  <saltbridge:GLU:88>  (93) 
saltbridge:GLU:88    0.0
saltbridge:GLU:88      0
Name: 92, dtype: object

>  <hydroph_interaction:TYR:89>  (93) 
hydroph_interaction:TYR:89    0.0
hydroph_interaction:TYR:89      0
Name: 92, dtype: object

>  <pistack:TYR:89>  (93) 
pistack:TYR:89    0.0
pistack:TYR:89      0
Name: 92, dtype: object

>  <hbond:TYR:89>  (93) 
hbond:TYR:89    0.0
hbond:TYR:89      0
Name: 92, dtype: object

>  <halogenbond:TYR:89>  (93) 
halogenbond:TYR:89    0.0
halogenbond:TYR:89      0
Name: 92, dtype: object

>  <hydroph_interaction:TYR:90>  (93) 
hydroph_interaction:TYR:90    3.0
hydroph_interaction:TYR:90      3
Name: 92, dtype: object

>  <hbond:TYR:90>  (93) 
hbond:TYR:90    0.0
hbond:TYR:90      0
Name: 92, dtype: object

>  <pistack:TYR:90>  (93) 
pistack:TYR:90    0.0
pistack:TYR:90      0
Name: 92, dtype: object

>  <halogenbond:TYR:90>  (93) 
halogenbond:TYR:90    0.0
halogenbond:TYR:90      0
Name: 92, dtype: object

>  <pication:TYR:90>  (93) 
pication:TYR:90    0.0
pication:TYR:90      0
Name: 92, dtype: object

>  <hbond:PRO:91>  (93) 
hbond:PRO:91    0.0
hbond:PRO:91      0
Name: 92, dtype: object

>  <hydroph_interaction:PRO:91>  (93) 
hydroph_interaction:PRO:91    0.0
hydroph_interaction:PRO:91      0
Name: 92, dtype: object

>  <halogenbond:PRO:91>  (93) 
halogenbond:PRO:91    0.0
halogenbond:PRO:91      0
Name: 92, dtype: object

>  <hbond:ALA:92>  (93) 
hbond:ALA:92    NaN
hbond:ALA:92     -1
Name: 92, dtype: object

>  <hydroph_interaction:ALA:92>  (93) 
hydroph_interaction:ALA:92    0.0
hydroph_interaction:ALA:92      0
Name: 92, dtype: object

>  <saltbridge:ARG:93>  (93) 
saltbridge:ARG:93    0.0
saltbridge:ARG:93      0
Name: 92, dtype: object

>  <hbond:ARG:93>  (93) 
hbond:ARG:93    0.0
hbond:ARG:93      0
Name: 92, dtype: object

>  <hydroph_interaction:ARG:93>  (93) 
hydroph_interaction:ARG:93    0.0
hydroph_interaction:ARG:93      0
Name: 92, dtype: object

>  <halogenbond:ARG:93>  (93) 
halogenbond:ARG:93    0.0
halogenbond:ARG:93      0
Name: 92, dtype: object

>  <pication:ARG:93>  (93) 
pication:ARG:93    0.0
pication:ARG:93      0
Name: 92, dtype: object

>  <hydroph_interaction:TYR:94>  (93) 
hydroph_interaction:TYR:94    0.0
hydroph_interaction:TYR:94      0
Name: 92, dtype: object

>  <pistack:TYR:94>  (93) 
pistack:TYR:94    NaN
pistack:TYR:94     -1
Name: 92, dtype: object

>  <hbond:TYR:94>  (93) 
hbond:TYR:94    0.0
hbond:TYR:94      0
Name: 92, dtype: object

>  <hbond:GLN:95>  (93) 
hbond:GLN:95    0.0
hbond:GLN:95      0
Name: 92, dtype: object

>  <hydroph_interaction:GLN:95>  (93) 
hydroph_interaction:GLN:95    2.0
hydroph_interaction:GLN:95      2
Name: 92, dtype: object

>  <halogenbond:GLN:95>  (93) 
halogenbond:GLN:95    0.0
halogenbond:GLN:95      0
Name: 92, dtype: object

>  <hbond:SER:96>  (93) 
hbond:SER:96    0.0
hbond:SER:96      0
Name: 92, dtype: object

>  <halogenbond:HIS:97>  (93) 
halogenbond:HIS:97    NaN
halogenbond:HIS:97     -1
Name: 92, dtype: object

>  <hydroph_interaction:LEU:98>  (93) 
hydroph_interaction:LEU:98    0.0
hydroph_interaction:LEU:98      0
Name: 92, dtype: object

>  <hbond:LEU:98>  (93) 
hbond:LEU:98    0.0
hbond:LEU:98      0
Name: 92, dtype: object

>  <halogenbond:LEU:98>  (93) 
halogenbond:LEU:98    NaN
halogenbond:LEU:98     -1
Name: 92, dtype: object

>  <hbond:MET:99>  (93) 
hbond:MET:99    0.0
hbond:MET:99      0
Name: 92, dtype: object

>  <hydroph_interaction:MET:99>  (93) 
hydroph_interaction:MET:99    0.0
hydroph_interaction:MET:99      0
Name: 92, dtype: object

>  <halogenbond:MET:99>  (93) 
halogenbond:MET:99    0.0
halogenbond:MET:99      0
Name: 92, dtype: object

>  <hydroph_interaction:LEU:100>  (93) 
hydroph_interaction:LEU:100    0.0
hydroph_interaction:LEU:100      0
Name: 92, dtype: object

>  <hbond:LEU:100>  (93) 
hbond:LEU:100    0.0
hbond:LEU:100      0
Name: 92, dtype: object

>  <hbond:ALA:101>  (93) 
hbond:ALA:101    0.0
hbond:ALA:101      0
Name: 92, dtype: object

>  <hydroph_interaction:ALA:101>  (93) 
hydroph_interaction:ALA:101    0.0
hydroph_interaction:ALA:101      0
Name: 92, dtype: object

>  <hydroph_interaction:VAL:102>  (93) 
hydroph_interaction:VAL:102    0.0
hydroph_interaction:VAL:102      0
Name: 92, dtype: object

>  <hbond:VAL:102>  (93) 
hbond:VAL:102    0.0
hbond:VAL:102      0
Name: 92, dtype: object

>  <hbond:GLY:103>  (93) 
hbond:GLY:103    0.0
hbond:GLY:103      0
Name: 92, dtype: object

>  <halogenbond:GLY:103>  (93) 
halogenbond:GLY:103    0.0
halogenbond:GLY:103      0
Name: 92, dtype: object

>  <hbond:HIS:104>  (93) 
hbond:HIS:104    0.0
hbond:HIS:104      0
Name: 92, dtype: object

>  <saltbridge:HIS:104>  (93) 
saltbridge:HIS:104    0.0
saltbridge:HIS:104      0
Name: 92, dtype: object

>  <pication:HIS:104>  (93) 
pication:HIS:104    0.0
pication:HIS:104      0
Name: 92, dtype: object

>  <halogenbond:HIS:104>  (93) 
halogenbond:HIS:104    0.0
halogenbond:HIS:104      0
Name: 92, dtype: object

>  <hydroph_interaction:HIS:104>  (93) 
hydroph_interaction:HIS:104    0.0
hydroph_interaction:HIS:104      0
Name: 92, dtype: object

>  <pistack:HIS:104>  (93) 
pistack:HIS:104    0.0
pistack:HIS:104      0
Name: 92, dtype: object

>  <halogenbond:SER:105>  (93) 
halogenbond:SER:105    0.0
halogenbond:SER:105      0
Name: 92, dtype: object

>  <hbond:SER:105>  (93) 
hbond:SER:105    0.0
hbond:SER:105      0
Name: 92, dtype: object

>  <hbond:GLU:106>  (93) 
hbond:GLU:106    0.0
hbond:GLU:106      0
Name: 92, dtype: object

>  <hydroph_interaction:GLU:106>  (93) 
hydroph_interaction:GLU:106    0.0
hydroph_interaction:GLU:106      0
Name: 92, dtype: object

>  <saltbridge:GLU:106>  (93) 
saltbridge:GLU:106    0.0
saltbridge:GLU:106      0
Name: 92, dtype: object

>  <halogenbond:GLU:106>  (93) 
halogenbond:GLU:106    0.0
halogenbond:GLU:106      0
Name: 92, dtype: object

>  <hydroph_interaction:PRO:107>  (93) 
hydroph_interaction:PRO:107    1
hydroph_interaction:PRO:107    1
Name: 92, dtype: object

>  <hbond:PRO:107>  (93) 
hbond:PRO:107    0.0
hbond:PRO:107      0
Name: 92, dtype: object

>  <halogenbond:PRO:107>  (93) 
halogenbond:PRO:107    0.0
halogenbond:PRO:107      0
Name: 92, dtype: object

>  <hbond:GLY:108>  (93) 
hbond:GLY:108    0.0
hbond:GLY:108      0
Name: 92, dtype: object

>  <halogenbond:GLY:108>  (93) 
halogenbond:GLY:108    0.0
halogenbond:GLY:108      0
Name: 92, dtype: object

>  <hbond:ASP:109>  (93) 
hbond:ASP:109    0.0
hbond:ASP:109      0
Name: 92, dtype: object

>  <hydroph_interaction:ASP:109>  (93) 
hydroph_interaction:ASP:109    0.0
hydroph_interaction:ASP:109      0
Name: 92, dtype: object

>  <saltbridge:ASP:109>  (93) 
saltbridge:ASP:109    0.0
saltbridge:ASP:109      0
Name: 92, dtype: object

>  <halogenbond:CYS:110>  (93) 
halogenbond:CYS:110    0.0
halogenbond:CYS:110      0
Name: 92, dtype: object

>  <hbond:CYS:110>  (93) 
hbond:CYS:110    0.0
hbond:CYS:110      0
Name: 92, dtype: object

>  <hbond:GLY:111>  (93) 
hbond:GLY:111    0.0
hbond:GLY:111      0
Name: 92, dtype: object

>  <hbond:GLY:112>  (93) 
hbond:GLY:112    0.0
hbond:GLY:112      0
Name: 92, dtype: object

>  <hbond:ILE:113>  (93) 
hbond:ILE:113    0.0
hbond:ILE:113      0
Name: 92, dtype: object

>  <hydroph_interaction:LEU:114>  (93) 
hydroph_interaction:LEU:114    0.0
hydroph_interaction:LEU:114      0
Name: 92, dtype: object

>  <hbond:LEU:114>  (93) 
hbond:LEU:114    0.0
hbond:LEU:114      0
Name: 92, dtype: object

>  <hydroph_interaction:ILE:123>  (93) 
hydroph_interaction:ILE:123    0.0
hydroph_interaction:ILE:123      0
Name: 92, dtype: object

>  <hbond:ILE:123>  (93) 
hbond:ILE:123    0.0
hbond:ILE:123      0
Name: 92, dtype: object

>  <hydroph_interaction:VAL:124>  (93) 
hydroph_interaction:VAL:124    1.0
hydroph_interaction:VAL:124      1
Name: 92, dtype: object

>  <hbond:VAL:124>  (93) 
hbond:VAL:124    0.0
hbond:VAL:124      0
Name: 92, dtype: object

>  <halogenbond:VAL:124>  (93) 
halogenbond:VAL:124    0.0
halogenbond:VAL:124      0
Name: 92, dtype: object

>  <hbond:SER:125>  (93) 
hbond:SER:125    0
hbond:SER:125    0
Name: 92, dtype: object

>  <halogenbond:SER:125>  (93) 
halogenbond:SER:125    0.0
halogenbond:SER:125      0
Name: 92, dtype: object

>  <hydroph_interaction:THR:126>  (93) 
hydroph_interaction:THR:126    0.0
hydroph_interaction:THR:126      0
Name: 92, dtype: object

>  <hbond:THR:126>  (93) 
hbond:THR:126    0.0
hbond:THR:126      0
Name: 92, dtype: object

>  <halogenbond:THR:126>  (93) 
halogenbond:THR:126    0.0
halogenbond:THR:126      0
Name: 92, dtype: object

>  <hbond:GLY:127>  (93) 
hbond:GLY:127    0
hbond:GLY:127    0
Name: 92, dtype: object

>  <halogenbond:GLY:127>  (93) 
halogenbond:GLY:127    0.0
halogenbond:GLY:127      0
Name: 92, dtype: object

>  <hydroph_interaction:GLY:127>  (93) 
hydroph_interaction:GLY:127    0.0
hydroph_interaction:GLY:127      0
Name: 92, dtype: object

>  <hbond:GLY:128>  (93) 
hbond:GLY:128    0.0
hbond:GLY:128      0
Name: 92, dtype: object

>  <halogenbond:GLY:128>  (93) 
halogenbond:GLY:128    0.0
halogenbond:GLY:128      0
Name: 92, dtype: object

>  <hydroph_interaction:GLY:128>  (93) 
hydroph_interaction:GLY:128    0.0
hydroph_interaction:GLY:128      0
Name: 92, dtype: object

>  <hbond:ASN:129>  (93) 
hbond:ASN:129    0.0
hbond:ASN:129      0
Name: 92, dtype: object

>  <hydroph_interaction:ASN:129>  (93) 
hydroph_interaction:ASN:129    0.0
hydroph_interaction:ASN:129      0
Name: 92, dtype: object

>  <halogenbond:ASN:129>  (93) 
halogenbond:ASN:129    0.0
halogenbond:ASN:129      0
Name: 92, dtype: object

>  <hbond:GLY:130>  (93) 
hbond:GLY:130    0.0
hbond:GLY:130      0
Name: 92, dtype: object

>  <hbond:LEU:131>  (93) 
hbond:LEU:131    0.0
hbond:LEU:131      0
Name: 92, dtype: object

>  <hydroph_interaction:LEU:131>  (93) 
hydroph_interaction:LEU:131    0.0
hydroph_interaction:LEU:131      0
Name: 92, dtype: object

>  <halogenbond:LEU:131>  (93) 
halogenbond:LEU:131    0.0
halogenbond:LEU:131      0
Name: 92, dtype: object

>  <hydroph_interaction:VAL:132>  (93) 
hydroph_interaction:VAL:132    0.0
hydroph_interaction:VAL:132      0
Name: 92, dtype: object

>  <hbond:VAL:132>  (93) 
hbond:VAL:132    0.0
hbond:VAL:132      0
Name: 92, dtype: object

>  <hbond:GLY:133>  (93) 
hbond:GLY:133    0.0
hbond:GLY:133      0
Name: 92, dtype: object

>  <halogenbond:GLY:133>  (93) 
halogenbond:GLY:133    0.0
halogenbond:GLY:133      0
Name: 92, dtype: object

>  <hydroph_interaction:PHE:134>  (93) 
hydroph_interaction:PHE:134    0.0
hydroph_interaction:PHE:134      0
Name: 92, dtype: object

>  <hbond:PHE:134>  (93) 
hbond:PHE:134    0.0
hbond:PHE:134      0
Name: 92, dtype: object

>  <pistack:PHE:134>  (93) 
pistack:PHE:134    0.0
pistack:PHE:134      0
Name: 92, dtype: object

>  <pication:PHE:134>  (93) 
pication:PHE:134    0.0
pication:PHE:134      0
Name: 92, dtype: object

>  <halogenbond:PHE:134>  (93) 
halogenbond:PHE:134    NaN
halogenbond:PHE:134     -1
Name: 92, dtype: object

>  <hydroph_interaction:ALA:135>  (93) 
hydroph_interaction:ALA:135    0.0
hydroph_interaction:ALA:135      0
Name: 92, dtype: object

>  <hbond:ALA:135>  (93) 
hbond:ALA:135    0.0
hbond:ALA:135      0
Name: 92, dtype: object

$$$$
Z1193332108
     RDKit          3D

 39 40  0  0  0  0  0  0  0  0999 V2000
   15.6750   19.1120   18.5200 C   0  0  0  0  0  0  0  0  0  0  0  0
   14.7670   18.0790   18.9000 O   0  0  0  0  0  0  0  0  0  0  0  0
   14.2980   17.4140   17.8070 C   0  0  0  0  0  0  0  0  0  0  0  0
   14.9960   17.2570   16.8210 O   0  0  0  0  0  0  0  0  0  0  0  0
   12.8840   17.0010   17.9430 C   0  0  0  0  0  0  0  0  0  0  0  0
   12.3480   16.3780   19.1970 C   0  0  0  0  0  0  0  0  0  0  0  0
   12.9780   16.1030   20.2290 O   0  0  0  0  0  0  0  0  0  0  0  0
   12.4130   14.9890   20.9570 C   0  0  0  0  0  0  0  0  0  0  0  0
   12.4500   14.8910   22.3700 C   0  0  0  0  0  0  0  0  0  0  0  0
   13.3950   15.2580   23.0470 O   0  0  0  0  0  0  0  0  0  0  0  0
   11.3250   14.3240   22.9640 N   0  0  0  0  0  0  0  0  0  0  0  0
   10.7380   13.2100   22.2960 C   0  0  0  0  0  0  0  0  0  0  0  0
    9.8620   12.2390   23.1360 C   0  0  0  0  0  0  0  0  0  0  0  0
   10.0320   10.8770   22.9240 C   0  0  0  0  0  0  0  0  0  0  0  0
    9.2160    9.8600   23.6940 C   0  0  0  0  0  0  0  0  0  0  0  0
    8.2380   10.4350   24.6710 C   0  0  0  0  0  0  0  0  0  0  0  0
    8.1260   11.8030   24.8250 C   0  0  0  0  0  0  0  0  0  0  0  0
    8.9190   12.6740   24.0760 C   0  0  0  0  0  0  0  0  0  0  0  0
    8.7500   13.9760   24.2850 F   0  0  0  0  0  0  0  0  0  0  0  0
   10.9520   16.1590   19.0520 C   0  0  0  0  0  0  0  0  0  0  0  0
   10.4880   16.5770   17.8020 C   0  0  0  0  0  0  0  0  0  0  0  0
    9.1550   16.5030   17.4530 C   0  0  0  0  0  0  0  0  0  0  0  0
   11.6720   17.2020   16.7450 S   0  0  0  0  0  0  0  0  0  0  0  0
   15.0850   19.9590   18.1640 H   0  0  0  0  0  0  0  0  0  0  0  0
   16.2730   19.4440   19.3730 H   0  0  0  0  0  0  0  0  0  0  0  0
   16.3170   18.7700   17.7040 H   0  0  0  0  0  0  0  0  0  0  0  0
   11.3780   14.8030   20.6450 H   0  0  0  0  0  0  0  0  0  0  0  0
   12.9780   14.1160   20.6060 H   0  0  0  0  0  0  0  0  0  0  0  0
   10.7140   14.9050   23.5260 H   0  0  0  0  0  0  0  0  0  0  0  0
   11.5920   12.6460   21.9360 H   0  0  0  0  0  0  0  0  0  0  0  0
   10.1700   13.5700   21.4310 H   0  0  0  0  0  0  0  0  0  0  0  0
   10.7570   10.5250   22.1970 H   0  0  0  0  0  0  0  0  0  0  0  0
    9.3310    8.8140   23.5500 H   0  0  0  0  0  0  0  0  0  0  0  0
    7.6130    9.7760   25.2620 H   0  0  0  0  0  0  0  0  0  0  0  0
    7.4180   12.2240   25.5320 H   0  0  0  0  0  0  0  0  0  0  0  0
   10.3160   15.7330   19.8180 H   0  0  0  0  0  0  0  0  0  0  0  0
    8.5550   16.6460   18.3540 H   0  0  0  0  0  0  0  0  0  0  0  0
    8.7890   17.2310   16.7360 H   0  0  0  0  0  0  0  0  0  0  0  0
    8.9280   15.5310   17.0530 H   0  0  0  0  0  0  0  0  0  0  0  0
  1  2  1  0
  2  3  1  0
  3  4  2  0
  3  5  1  0
  5  6  2  0
  6  7  1  0
  7  8  1  0
  8  9  1  0
  9 10  2  0
  9 11  1  0
 11 12  1  0
 12 13  1  0
 13 14  2  0
 14 15  1  0
 15 16  2  0
 16 17  1  0
 17 18  2  0
 18 19  1  0
  6 20  1  0
 20 21  2  0
 21 22  1  0
 21 23  1  0
 23  5  1  0
 18 13  1  0
  1 24  1  0
  1 25  1  0
  1 26  1  0
  8 27  1  0
  8 28  1  0
 11 29  1  0
 12 30  1  0
 12 31  1  0
 14 32  1  0
 15 33  1  0
 16 34  1  0
 17 35  1  0
 20 36  1  0
 22 37  1  0
 22 38  1  0
 22 39  1  0
A    1
 C1 
A    2
 O1 
A    3
 C2 
A    4
 O2 
A    5
 C3 
A    6
 C4 
A    7
 O3 
A    8
 C5 
A    9
 C6 
A   10
 O4 
A   11
 N1 
A   12
 C7 
A   13
 C8 
A   14
 C9 
A   15
 C10
A   16
 C11
A   17
 C12
A   18
 C13
A   19
 F1 
A   20
 C14
A   21
 C15
A   22
 C16
A   23
 S1 
A   24
 H1 
A   25
 H2 
A   26
 H3 
A   27
 H4 
A   28
 H5 
A   29
 H6 
A   30
 H7 
A   31
 H8 
A   32
 H9 
A   33
 H10
A   34
 H11
A   35
 H12
A   36
 H13
A   37
 H14
A   38
 H15
A   39
 H16
M  END
>  <ref_pdb>  (94) 
x0310_0A

>  <ref_mols>  (94) 
x0554_0A,x0732_0A

>  <original SMILES>  (94) 
COC(=O)c1sc(C)cc1OCC(=O)NCc1ccccc1F

>  <rationale>  (94) 
info halogenbond:S87+I82+H97+F134+L98+S66; hbond:S87+A92+S37; hydroph_interaction:V84+Y90+T126+P107+Q95+V18; pication:Y63+F83; pistack:Y94; saltbridge:H21; 

>  <intxn_cluster>  (94) 
204

>  <intxn_cluster_rank>  (94) 
1

>  <N_interactions>  (94) 
10

>  <∆∆G>  (94) 
-11.445446

>  <$/mg>  (94) 
163.0

>  <comRMSD>  (94) 
0.894205

>  <N_rotatable_bonds>  (94) 
8

>  <deep_P1_sidechain>  (94) 
False

>  <farthest_distance_to_substrate>  (94) 
3.400807

>  <hbond:SER:7>  (94) 
hbond:SER:7    0.0
hbond:SER:7      0
Name: 93, dtype: object

>  <halogenbond:SER:7>  (94) 
halogenbond:SER:7    0.0
halogenbond:SER:7      0
Name: 93, dtype: object

>  <hbond:GLY:8>  (94) 
hbond:GLY:8    0.0
hbond:GLY:8      0
Name: 93, dtype: object

>  <hydroph_interaction:VAL:18>  (94) 
hydroph_interaction:VAL:18    NaN
hydroph_interaction:VAL:18     -1
Name: 93, dtype: object

>  <hbond:ASN:19>  (94) 
hbond:ASN:19    0.0
hbond:ASN:19      0
Name: 93, dtype: object

>  <hydroph_interaction:ASN:19>  (94) 
hydroph_interaction:ASN:19    0.0
hydroph_interaction:ASN:19      0
Name: 93, dtype: object

>  <halogenbond:ASN:19>  (94) 
halogenbond:ASN:19    0.0
halogenbond:ASN:19      0
Name: 93, dtype: object

>  <hbond:ARG:20>  (94) 
hbond:ARG:20    0.0
hbond:ARG:20      0
Name: 93, dtype: object

>  <hydroph_interaction:ARG:20>  (94) 
hydroph_interaction:ARG:20    0.0
hydroph_interaction:ARG:20      0
Name: 93, dtype: object

>  <saltbridge:ARG:20>  (94) 
saltbridge:ARG:20    0.0
saltbridge:ARG:20      0
Name: 93, dtype: object

>  <halogenbond:ARG:20>  (94) 
halogenbond:ARG:20    0.0
halogenbond:ARG:20      0
Name: 93, dtype: object

>  <pication:ARG:20>  (94) 
pication:ARG:20    0.0
pication:ARG:20      0
Name: 93, dtype: object

>  <hbond:HIS:21>  (94) 
hbond:HIS:21    0.0
hbond:HIS:21      0
Name: 93, dtype: object

>  <hydroph_interaction:HIS:21>  (94) 
hydroph_interaction:HIS:21    0.0
hydroph_interaction:HIS:21      0
Name: 93, dtype: object

>  <pistack:HIS:21>  (94) 
pistack:HIS:21    0.0
pistack:HIS:21      0
Name: 93, dtype: object

>  <pication:HIS:21>  (94) 
pication:HIS:21    0.0
pication:HIS:21      0
Name: 93, dtype: object

>  <saltbridge:HIS:21>  (94) 
saltbridge:HIS:21    1.0
saltbridge:HIS:21      1
Name: 93, dtype: object

>  <halogenbond:HIS:21>  (94) 
halogenbond:HIS:21    0.0
halogenbond:HIS:21      0
Name: 93, dtype: object

>  <hydroph_interaction:LEU:22>  (94) 
hydroph_interaction:LEU:22    0.0
hydroph_interaction:LEU:22      0
Name: 93, dtype: object

>  <hbond:LEU:22>  (94) 
hbond:LEU:22    0.0
hbond:LEU:22      0
Name: 93, dtype: object

>  <hydroph_interaction:TRP:28>  (94) 
hydroph_interaction:TRP:28    0.0
hydroph_interaction:TRP:28      0
Name: 93, dtype: object

>  <hbond:SER:36>  (94) 
hbond:SER:36    0.0
hbond:SER:36      0
Name: 93, dtype: object

>  <halogenbond:SER:36>  (94) 
halogenbond:SER:36    0.0
halogenbond:SER:36      0
Name: 93, dtype: object

>  <hbond:SER:37>  (94) 
hbond:SER:37    NaN
hbond:SER:37     -1
Name: 93, dtype: object

>  <hbond:ARG:38>  (94) 
hbond:ARG:38    0.0
hbond:ARG:38      0
Name: 93, dtype: object

>  <halogenbond:ARG:38>  (94) 
halogenbond:ARG:38    0.0
halogenbond:ARG:38      0
Name: 93, dtype: object

>  <saltbridge:ASP:39>  (94) 
saltbridge:ASP:39    0.0
saltbridge:ASP:39      0
Name: 93, dtype: object

>  <halogenbond:ASP:39>  (94) 
halogenbond:ASP:39    0.0
halogenbond:ASP:39      0
Name: 93, dtype: object

>  <hbond:ASP:39>  (94) 
hbond:ASP:39    0.0
hbond:ASP:39      0
Name: 93, dtype: object

>  <hydroph_interaction:ASP:39>  (94) 
hydroph_interaction:ASP:39    0.0
hydroph_interaction:ASP:39      0
Name: 93, dtype: object

>  <hydroph_interaction:LEU:40>  (94) 
hydroph_interaction:LEU:40    0.0
hydroph_interaction:LEU:40      0
Name: 93, dtype: object

>  <hydroph_interaction:TYR:63>  (94) 
hydroph_interaction:TYR:63    0.0
hydroph_interaction:TYR:63      0
Name: 93, dtype: object

>  <hbond:TYR:63>  (94) 
hbond:TYR:63    0.0
hbond:TYR:63      0
Name: 93, dtype: object

>  <pistack:TYR:63>  (94) 
pistack:TYR:63    0.0
pistack:TYR:63      0
Name: 93, dtype: object

>  <pication:TYR:63>  (94) 
pication:TYR:63    NaN
pication:TYR:63     -1
Name: 93, dtype: object

>  <halogenbond:TYR:64>  (94) 
halogenbond:TYR:64    0.0
halogenbond:TYR:64      0
Name: 93, dtype: object

>  <hbond:TYR:64>  (94) 
hbond:TYR:64    0.0
hbond:TYR:64      0
Name: 93, dtype: object

>  <hydroph_interaction:TYR:64>  (94) 
hydroph_interaction:TYR:64    0.0
hydroph_interaction:TYR:64      0
Name: 93, dtype: object

>  <halogenbond:CYS:65>  (94) 
halogenbond:CYS:65    0.0
halogenbond:CYS:65      0
Name: 93, dtype: object

>  <hbond:CYS:65>  (94) 
hbond:CYS:65    0.0
hbond:CYS:65      0
Name: 93, dtype: object

>  <hbond:SER:66>  (94) 
hbond:SER:66    0.0
hbond:SER:66      0
Name: 93, dtype: object

>  <halogenbond:SER:66>  (94) 
halogenbond:SER:66    NaN
halogenbond:SER:66     -1
Name: 93, dtype: object

>  <hbond:SER:67>  (94) 
hbond:SER:67    0.0
hbond:SER:67      0
Name: 93, dtype: object

>  <halogenbond:SER:67>  (94) 
halogenbond:SER:67    0.0
halogenbond:SER:67      0
Name: 93, dtype: object

>  <hbond:ARG:68>  (94) 
hbond:ARG:68    0.0
hbond:ARG:68      0
Name: 93, dtype: object

>  <saltbridge:ARG:68>  (94) 
saltbridge:ARG:68    0.0
saltbridge:ARG:68      0
Name: 93, dtype: object

>  <hydroph_interaction:ARG:68>  (94) 
hydroph_interaction:ARG:68    0.0
hydroph_interaction:ARG:68      0
Name: 93, dtype: object

>  <pication:ARG:68>  (94) 
pication:ARG:68    0.0
pication:ARG:68      0
Name: 93, dtype: object

>  <hydroph_interaction:TYR:72>  (94) 
hydroph_interaction:TYR:72    0.0
hydroph_interaction:TYR:72      0
Name: 93, dtype: object

>  <hydroph_interaction:VAL:74>  (94) 
hydroph_interaction:VAL:74    0.0
hydroph_interaction:VAL:74      0
Name: 93, dtype: object

>  <hydroph_interaction:PHE:76>  (94) 
hydroph_interaction:PHE:76    0.0
hydroph_interaction:PHE:76      0
Name: 93, dtype: object

>  <hbond:SER:77>  (94) 
hbond:SER:77    0.0
hbond:SER:77      0
Name: 93, dtype: object

>  <hbond:SER:80>  (94) 
hbond:SER:80    0.0
hbond:SER:80      0
Name: 93, dtype: object

>  <hbond:LEU:81>  (94) 
hbond:LEU:81    0.0
hbond:LEU:81      0
Name: 93, dtype: object

>  <halogenbond:LEU:81>  (94) 
halogenbond:LEU:81    0.0
halogenbond:LEU:81      0
Name: 93, dtype: object

>  <hydroph_interaction:LEU:81>  (94) 
hydroph_interaction:LEU:81    0.0
hydroph_interaction:LEU:81      0
Name: 93, dtype: object

>  <hydroph_interaction:ILE:82>  (94) 
hydroph_interaction:ILE:82    0.0
hydroph_interaction:ILE:82      0
Name: 93, dtype: object

>  <halogenbond:ILE:82>  (94) 
halogenbond:ILE:82    NaN
halogenbond:ILE:82     -1
Name: 93, dtype: object

>  <hbond:ILE:82>  (94) 
hbond:ILE:82    0.0
hbond:ILE:82      0
Name: 93, dtype: object

>  <hbond:PHE:83>  (94) 
hbond:PHE:83    0.0
hbond:PHE:83      0
Name: 93, dtype: object

>  <hydroph_interaction:PHE:83>  (94) 
hydroph_interaction:PHE:83    0.0
hydroph_interaction:PHE:83      0
Name: 93, dtype: object

>  <halogenbond:PHE:83>  (94) 
halogenbond:PHE:83    0.0
halogenbond:PHE:83      0
Name: 93, dtype: object

>  <pistack:PHE:83>  (94) 
pistack:PHE:83    0.0
pistack:PHE:83      0
Name: 93, dtype: object

>  <pication:PHE:83>  (94) 
pication:PHE:83    NaN
pication:PHE:83     -1
Name: 93, dtype: object

>  <hydroph_interaction:VAL:84>  (94) 
hydroph_interaction:VAL:84    1.0
hydroph_interaction:VAL:84      1
Name: 93, dtype: object

>  <halogenbond:VAL:84>  (94) 
halogenbond:VAL:84    0.0
halogenbond:VAL:84      0
Name: 93, dtype: object

>  <hbond:VAL:84>  (94) 
hbond:VAL:84    0.0
hbond:VAL:84      0
Name: 93, dtype: object

>  <hydroph_interaction:GLU:85>  (94) 
hydroph_interaction:GLU:85    0.0
hydroph_interaction:GLU:85      0
Name: 93, dtype: object

>  <hbond:GLU:85>  (94) 
hbond:GLU:85    0.0
hbond:GLU:85      0
Name: 93, dtype: object

>  <halogenbond:GLU:85>  (94) 
halogenbond:GLU:85    0.0
halogenbond:GLU:85      0
Name: 93, dtype: object

>  <saltbridge:GLU:85>  (94) 
saltbridge:GLU:85    0.0
saltbridge:GLU:85      0
Name: 93, dtype: object

>  <halogenbond:ALA:86>  (94) 
halogenbond:ALA:86    0.0
halogenbond:ALA:86      0
Name: 93, dtype: object

>  <hbond:ALA:86>  (94) 
hbond:ALA:86    0.0
hbond:ALA:86      0
Name: 93, dtype: object

>  <hydroph_interaction:ALA:86>  (94) 
hydroph_interaction:ALA:86    0.0
hydroph_interaction:ALA:86      0
Name: 93, dtype: object

>  <hbond:SER:87>  (94) 
hbond:SER:87    2
hbond:SER:87    2
Name: 93, dtype: object

>  <halogenbond:SER:87>  (94) 
halogenbond:SER:87    1.0
halogenbond:SER:87      1
Name: 93, dtype: object

>  <hbond:GLU:88>  (94) 
hbond:GLU:88    0.0
hbond:GLU:88      0
Name: 93, dtype: object

>  <hydroph_interaction:GLU:88>  (94) 
hydroph_interaction:GLU:88    0.0
hydroph_interaction:GLU:88      0
Name: 93, dtype: object

>  <halogenbond:GLU:88>  (94) 
halogenbond:GLU:88    0.0
halogenbond:GLU:88      0
Name: 93, dtype: object

>  <saltbridge:GLU:88>  (94) 
saltbridge:GLU:88    0.0
saltbridge:GLU:88      0
Name: 93, dtype: object

>  <hydroph_interaction:TYR:89>  (94) 
hydroph_interaction:TYR:89    0.0
hydroph_interaction:TYR:89      0
Name: 93, dtype: object

>  <pistack:TYR:89>  (94) 
pistack:TYR:89    0.0
pistack:TYR:89      0
Name: 93, dtype: object

>  <hbond:TYR:89>  (94) 
hbond:TYR:89    0.0
hbond:TYR:89      0
Name: 93, dtype: object

>  <halogenbond:TYR:89>  (94) 
halogenbond:TYR:89    0.0
halogenbond:TYR:89      0
Name: 93, dtype: object

>  <hydroph_interaction:TYR:90>  (94) 
hydroph_interaction:TYR:90    2.0
hydroph_interaction:TYR:90      2
Name: 93, dtype: object

>  <hbond:TYR:90>  (94) 
hbond:TYR:90    0.0
hbond:TYR:90      0
Name: 93, dtype: object

>  <pistack:TYR:90>  (94) 
pistack:TYR:90    0.0
pistack:TYR:90      0
Name: 93, dtype: object

>  <halogenbond:TYR:90>  (94) 
halogenbond:TYR:90    0.0
halogenbond:TYR:90      0
Name: 93, dtype: object

>  <pication:TYR:90>  (94) 
pication:TYR:90    0.0
pication:TYR:90      0
Name: 93, dtype: object

>  <hbond:PRO:91>  (94) 
hbond:PRO:91    0.0
hbond:PRO:91      0
Name: 93, dtype: object

>  <hydroph_interaction:PRO:91>  (94) 
hydroph_interaction:PRO:91    0.0
hydroph_interaction:PRO:91      0
Name: 93, dtype: object

>  <halogenbond:PRO:91>  (94) 
halogenbond:PRO:91    0.0
halogenbond:PRO:91      0
Name: 93, dtype: object

>  <hbond:ALA:92>  (94) 
hbond:ALA:92    NaN
hbond:ALA:92     -1
Name: 93, dtype: object

>  <hydroph_interaction:ALA:92>  (94) 
hydroph_interaction:ALA:92    0.0
hydroph_interaction:ALA:92      0
Name: 93, dtype: object

>  <saltbridge:ARG:93>  (94) 
saltbridge:ARG:93    0.0
saltbridge:ARG:93      0
Name: 93, dtype: object

>  <hbond:ARG:93>  (94) 
hbond:ARG:93    0.0
hbond:ARG:93      0
Name: 93, dtype: object

>  <hydroph_interaction:ARG:93>  (94) 
hydroph_interaction:ARG:93    0.0
hydroph_interaction:ARG:93      0
Name: 93, dtype: object

>  <halogenbond:ARG:93>  (94) 
halogenbond:ARG:93    0.0
halogenbond:ARG:93      0
Name: 93, dtype: object

>  <pication:ARG:93>  (94) 
pication:ARG:93    0.0
pication:ARG:93      0
Name: 93, dtype: object

>  <hydroph_interaction:TYR:94>  (94) 
hydroph_interaction:TYR:94    0.0
hydroph_interaction:TYR:94      0
Name: 93, dtype: object

>  <pistack:TYR:94>  (94) 
pistack:TYR:94    NaN
pistack:TYR:94     -1
Name: 93, dtype: object

>  <hbond:TYR:94>  (94) 
hbond:TYR:94    0.0
hbond:TYR:94      0
Name: 93, dtype: object

>  <hbond:GLN:95>  (94) 
hbond:GLN:95    0.0
hbond:GLN:95      0
Name: 93, dtype: object

>  <hydroph_interaction:GLN:95>  (94) 
hydroph_interaction:GLN:95    1.0
hydroph_interaction:GLN:95      1
Name: 93, dtype: object

>  <halogenbond:GLN:95>  (94) 
halogenbond:GLN:95    0.0
halogenbond:GLN:95      0
Name: 93, dtype: object

>  <hbond:SER:96>  (94) 
hbond:SER:96    0.0
hbond:SER:96      0
Name: 93, dtype: object

>  <halogenbond:HIS:97>  (94) 
halogenbond:HIS:97    NaN
halogenbond:HIS:97     -1
Name: 93, dtype: object

>  <hydroph_interaction:LEU:98>  (94) 
hydroph_interaction:LEU:98    0.0
hydroph_interaction:LEU:98      0
Name: 93, dtype: object

>  <hbond:LEU:98>  (94) 
hbond:LEU:98    0.0
hbond:LEU:98      0
Name: 93, dtype: object

>  <halogenbond:LEU:98>  (94) 
halogenbond:LEU:98    NaN
halogenbond:LEU:98     -1
Name: 93, dtype: object

>  <hbond:MET:99>  (94) 
hbond:MET:99    0.0
hbond:MET:99      0
Name: 93, dtype: object

>  <hydroph_interaction:MET:99>  (94) 
hydroph_interaction:MET:99    0.0
hydroph_interaction:MET:99      0
Name: 93, dtype: object

>  <halogenbond:MET:99>  (94) 
halogenbond:MET:99    0.0
halogenbond:MET:99      0
Name: 93, dtype: object

>  <hydroph_interaction:LEU:100>  (94) 
hydroph_interaction:LEU:100    0.0
hydroph_interaction:LEU:100      0
Name: 93, dtype: object

>  <hbond:LEU:100>  (94) 
hbond:LEU:100    0.0
hbond:LEU:100      0
Name: 93, dtype: object

>  <hbond:ALA:101>  (94) 
hbond:ALA:101    0.0
hbond:ALA:101      0
Name: 93, dtype: object

>  <hydroph_interaction:ALA:101>  (94) 
hydroph_interaction:ALA:101    0.0
hydroph_interaction:ALA:101      0
Name: 93, dtype: object

>  <hydroph_interaction:VAL:102>  (94) 
hydroph_interaction:VAL:102    0.0
hydroph_interaction:VAL:102      0
Name: 93, dtype: object

>  <hbond:VAL:102>  (94) 
hbond:VAL:102    0.0
hbond:VAL:102      0
Name: 93, dtype: object

>  <hbond:GLY:103>  (94) 
hbond:GLY:103    0.0
hbond:GLY:103      0
Name: 93, dtype: object

>  <halogenbond:GLY:103>  (94) 
halogenbond:GLY:103    0.0
halogenbond:GLY:103      0
Name: 93, dtype: object

>  <hbond:HIS:104>  (94) 
hbond:HIS:104    0.0
hbond:HIS:104      0
Name: 93, dtype: object

>  <saltbridge:HIS:104>  (94) 
saltbridge:HIS:104    0.0
saltbridge:HIS:104      0
Name: 93, dtype: object

>  <pication:HIS:104>  (94) 
pication:HIS:104    0.0
pication:HIS:104      0
Name: 93, dtype: object

>  <halogenbond:HIS:104>  (94) 
halogenbond:HIS:104    0.0
halogenbond:HIS:104      0
Name: 93, dtype: object

>  <hydroph_interaction:HIS:104>  (94) 
hydroph_interaction:HIS:104    0.0
hydroph_interaction:HIS:104      0
Name: 93, dtype: object

>  <pistack:HIS:104>  (94) 
pistack:HIS:104    0.0
pistack:HIS:104      0
Name: 93, dtype: object

>  <halogenbond:SER:105>  (94) 
halogenbond:SER:105    0.0
halogenbond:SER:105      0
Name: 93, dtype: object

>  <hbond:SER:105>  (94) 
hbond:SER:105    0.0
hbond:SER:105      0
Name: 93, dtype: object

>  <hbond:GLU:106>  (94) 
hbond:GLU:106    0.0
hbond:GLU:106      0
Name: 93, dtype: object

>  <hydroph_interaction:GLU:106>  (94) 
hydroph_interaction:GLU:106    0.0
hydroph_interaction:GLU:106      0
Name: 93, dtype: object

>  <saltbridge:GLU:106>  (94) 
saltbridge:GLU:106    0.0
saltbridge:GLU:106      0
Name: 93, dtype: object

>  <halogenbond:GLU:106>  (94) 
halogenbond:GLU:106    0.0
halogenbond:GLU:106      0
Name: 93, dtype: object

>  <hydroph_interaction:PRO:107>  (94) 
hydroph_interaction:PRO:107    1
hydroph_interaction:PRO:107    1
Name: 93, dtype: object

>  <hbond:PRO:107>  (94) 
hbond:PRO:107    0.0
hbond:PRO:107      0
Name: 93, dtype: object

>  <halogenbond:PRO:107>  (94) 
halogenbond:PRO:107    0.0
halogenbond:PRO:107      0
Name: 93, dtype: object

>  <hbond:GLY:108>  (94) 
hbond:GLY:108    0.0
hbond:GLY:108      0
Name: 93, dtype: object

>  <halogenbond:GLY:108>  (94) 
halogenbond:GLY:108    0.0
halogenbond:GLY:108      0
Name: 93, dtype: object

>  <hbond:ASP:109>  (94) 
hbond:ASP:109    0.0
hbond:ASP:109      0
Name: 93, dtype: object

>  <hydroph_interaction:ASP:109>  (94) 
hydroph_interaction:ASP:109    0.0
hydroph_interaction:ASP:109      0
Name: 93, dtype: object

>  <saltbridge:ASP:109>  (94) 
saltbridge:ASP:109    0.0
saltbridge:ASP:109      0
Name: 93, dtype: object

>  <halogenbond:CYS:110>  (94) 
halogenbond:CYS:110    0.0
halogenbond:CYS:110      0
Name: 93, dtype: object

>  <hbond:CYS:110>  (94) 
hbond:CYS:110    0.0
hbond:CYS:110      0
Name: 93, dtype: object

>  <hbond:GLY:111>  (94) 
hbond:GLY:111    0.0
hbond:GLY:111      0
Name: 93, dtype: object

>  <hbond:GLY:112>  (94) 
hbond:GLY:112    0.0
hbond:GLY:112      0
Name: 93, dtype: object

>  <hbond:ILE:113>  (94) 
hbond:ILE:113    0.0
hbond:ILE:113      0
Name: 93, dtype: object

>  <hydroph_interaction:LEU:114>  (94) 
hydroph_interaction:LEU:114    0.0
hydroph_interaction:LEU:114      0
Name: 93, dtype: object

>  <hbond:LEU:114>  (94) 
hbond:LEU:114    0.0
hbond:LEU:114      0
Name: 93, dtype: object

>  <hydroph_interaction:ILE:123>  (94) 
hydroph_interaction:ILE:123    0.0
hydroph_interaction:ILE:123      0
Name: 93, dtype: object

>  <hbond:ILE:123>  (94) 
hbond:ILE:123    0.0
hbond:ILE:123      0
Name: 93, dtype: object

>  <hydroph_interaction:VAL:124>  (94) 
hydroph_interaction:VAL:124    0.0
hydroph_interaction:VAL:124      0
Name: 93, dtype: object

>  <hbond:VAL:124>  (94) 
hbond:VAL:124    0.0
hbond:VAL:124      0
Name: 93, dtype: object

>  <halogenbond:VAL:124>  (94) 
halogenbond:VAL:124    0.0
halogenbond:VAL:124      0
Name: 93, dtype: object

>  <hbond:SER:125>  (94) 
hbond:SER:125    0
hbond:SER:125    0
Name: 93, dtype: object

>  <halogenbond:SER:125>  (94) 
halogenbond:SER:125    0.0
halogenbond:SER:125      0
Name: 93, dtype: object

>  <hydroph_interaction:THR:126>  (94) 
hydroph_interaction:THR:126    1.0
hydroph_interaction:THR:126      1
Name: 93, dtype: object

>  <hbond:THR:126>  (94) 
hbond:THR:126    0.0
hbond:THR:126      0
Name: 93, dtype: object

>  <halogenbond:THR:126>  (94) 
halogenbond:THR:126    0.0
halogenbond:THR:126      0
Name: 93, dtype: object

>  <hbond:GLY:127>  (94) 
hbond:GLY:127    0
hbond:GLY:127    0
Name: 93, dtype: object

>  <halogenbond:GLY:127>  (94) 
halogenbond:GLY:127    0.0
halogenbond:GLY:127      0
Name: 93, dtype: object

>  <hydroph_interaction:GLY:127>  (94) 
hydroph_interaction:GLY:127    0.0
hydroph_interaction:GLY:127      0
Name: 93, dtype: object

>  <hbond:GLY:128>  (94) 
hbond:GLY:128    0.0
hbond:GLY:128      0
Name: 93, dtype: object

>  <halogenbond:GLY:128>  (94) 
halogenbond:GLY:128    0.0
halogenbond:GLY:128      0
Name: 93, dtype: object

>  <hydroph_interaction:GLY:128>  (94) 
hydroph_interaction:GLY:128    0.0
hydroph_interaction:GLY:128      0
Name: 93, dtype: object

>  <hbond:ASN:129>  (94) 
hbond:ASN:129    0.0
hbond:ASN:129      0
Name: 93, dtype: object

>  <hydroph_interaction:ASN:129>  (94) 
hydroph_interaction:ASN:129    0.0
hydroph_interaction:ASN:129      0
Name: 93, dtype: object

>  <halogenbond:ASN:129>  (94) 
halogenbond:ASN:129    0.0
halogenbond:ASN:129      0
Name: 93, dtype: object

>  <hbond:GLY:130>  (94) 
hbond:GLY:130    0.0
hbond:GLY:130      0
Name: 93, dtype: object

>  <hbond:LEU:131>  (94) 
hbond:LEU:131    0.0
hbond:LEU:131      0
Name: 93, dtype: object

>  <hydroph_interaction:LEU:131>  (94) 
hydroph_interaction:LEU:131    0.0
hydroph_interaction:LEU:131      0
Name: 93, dtype: object

>  <halogenbond:LEU:131>  (94) 
halogenbond:LEU:131    0.0
halogenbond:LEU:131      0
Name: 93, dtype: object

>  <hydroph_interaction:VAL:132>  (94) 
hydroph_interaction:VAL:132    0.0
hydroph_interaction:VAL:132      0
Name: 93, dtype: object

>  <hbond:VAL:132>  (94) 
hbond:VAL:132    0.0
hbond:VAL:132      0
Name: 93, dtype: object

>  <hbond:GLY:133>  (94) 
hbond:GLY:133    0.0
hbond:GLY:133      0
Name: 93, dtype: object

>  <halogenbond:GLY:133>  (94) 
halogenbond:GLY:133    0.0
halogenbond:GLY:133      0
Name: 93, dtype: object

>  <hydroph_interaction:PHE:134>  (94) 
hydroph_interaction:PHE:134    0.0
hydroph_interaction:PHE:134      0
Name: 93, dtype: object

>  <hbond:PHE:134>  (94) 
hbond:PHE:134    0.0
hbond:PHE:134      0
Name: 93, dtype: object

>  <pistack:PHE:134>  (94) 
pistack:PHE:134    0.0
pistack:PHE:134      0
Name: 93, dtype: object

>  <pication:PHE:134>  (94) 
pication:PHE:134    0.0
pication:PHE:134      0
Name: 93, dtype: object

>  <halogenbond:PHE:134>  (94) 
halogenbond:PHE:134    NaN
halogenbond:PHE:134     -1
Name: 93, dtype: object

>  <hydroph_interaction:ALA:135>  (94) 
hydroph_interaction:ALA:135    0.0
hydroph_interaction:ALA:135      0
Name: 93, dtype: object

>  <hbond:ALA:135>  (94) 
hbond:ALA:135    0.0
hbond:ALA:135      0
Name: 93, dtype: object

$$$$
Z1024105954
     RDKit          3D

 48 50  0  0  0  0  0  0  0  0999 V2000
   11.2110   14.6390   24.5980 O   0  0  0  0  0  0  0  0  0  0  0  0
   11.3820   14.1030   23.5270 C   0  0  0  0  0  0  0  0  0  0  0  0
   12.7190   14.0830   22.8270 C   0  0  0  0  0  0  0  0  0  0  0  0
   12.5530   13.7750   21.4220 N   0  0  0  0  0  0  0  0  0  0  0  0
   12.2690   15.1790   20.5650 S   0  0  0  0  0  6  0  0  0  0  0  0
   12.9870   15.0180   19.3320 O   0  0  0  0  0  0  0  0  0  0  0  0
   12.5650   16.2170   21.5240 O   0  0  0  0  0  0  0  0  0  0  0  0
   10.4780   15.0960   20.2760 C   0  0  0  0  0  0  0  0  0  0  0  0
   10.1300   15.9860   19.1610 C   0  0  0  0  0  0  0  0  0  0  0  0
   10.9070   16.0130   17.9930 C   0  0  0  0  0  0  0  0  0  0  0  0
   10.5590   16.8640   16.9300 C   0  0  0  0  0  0  0  0  0  0  0  0
    9.4290   17.6830   17.0270 C   0  0  0  0  0  0  0  0  0  0  0  0
    8.6970   17.6370   18.1870 C   0  0  0  0  0  0  0  0  0  0  0  0
    9.0190   16.8170   19.2450 C   0  0  0  0  0  0  0  0  0  0  0  0
   10.4010   13.4360   22.8240 N   0  0  0  0  0  0  0  0  0  0  0  0
    9.8220   12.1700   23.2310 C   0  0  0  0  0  0  0  0  0  0  0  0
   10.3140   10.8660   22.6140 C   0  0  0  0  0  0  0  0  0  0  0  0
    9.7370    9.5690   23.0420 C   0  0  0  0  0  0  0  0  0  0  0  0
    8.6640    9.5410   24.0750 C   0  0  0  0  0  0  0  0  0  0  0  0
    8.2050   10.8370   24.6510 C   0  0  0  0  0  0  0  0  0  0  0  0
    8.8050   12.1460   24.2050 C   0  0  0  0  0  0  0  0  0  0  0  0
    8.3000   13.3050   24.7970 N   0  0  0  0  0  0  0  0  0  0  0  0
    7.1580   13.2310   25.5690 C   0  0  0  0  0  0  0  0  0  0  0  0
    6.6670   12.1620   25.9100 O   0  0  0  0  0  0  0  0  0  0  0  0
    6.5740   14.5000   25.9530 C   0  0  0  0  0  0  0  0  0  0  0  0
    7.1790   15.7210   26.1760 C   0  0  0  0  0  0  0  0  0  0  0  0
    6.2100   16.8160   26.5710 C   0  0  0  0  0  0  0  0  0  0  0  0
    4.8300   16.1840   26.5890 C   0  0  0  0  0  0  0  0  0  0  0  0
    4.8660   14.5310   26.1770 S   0  0  0  0  0  0  0  0  0  0  0  0
   13.3550   13.3110   23.2690 H   0  0  0  0  0  0  0  0  0  0  0  0
   13.2310   15.0510   22.9190 H   0  0  0  0  0  0  0  0  0  0  0  0
   13.2840   13.2270   20.9860 H   0  0  0  0  0  0  0  0  0  0  0  0
   10.2480   14.0440   20.1390 H   0  0  0  0  0  0  0  0  0  0  0  0
   10.0130   15.3350   21.2260 H   0  0  0  0  0  0  0  0  0  0  0  0
   11.7820   15.3730   17.9060 H   0  0  0  0  0  0  0  0  0  0  0  0
   11.1750   16.8710   16.0310 H   0  0  0  0  0  0  0  0  0  0  0  0
    9.1440   18.3270   16.2180 H   0  0  0  0  0  0  0  0  0  0  0  0
    7.8130   18.2800   18.2850 H   0  0  0  0  0  0  0  0  0  0  0  0
    8.3420   16.8880   20.1000 H   0  0  0  0  0  0  0  0  0  0  0  0
   10.1810   13.7630   21.8940 H   0  0  0  0  0  0  0  0  0  0  0  0
   11.0630   10.7780   21.8720 H   0  0  0  0  0  0  0  0  0  0  0  0
   10.0750    8.6160   22.6160 H   0  0  0  0  0  0  0  0  0  0  0  0
    8.2390    8.6340   24.3840 H   0  0  0  0  0  0  0  0  0  0  0  0
    7.4240   10.8300   25.4010 H   0  0  0  0  0  0  0  0  0  0  0  0
    8.9720   14.0090   25.0460 H   0  0  0  0  0  0  0  0  0  0  0  0
    8.2460   15.8910   26.0800 H   0  0  0  0  0  0  0  0  0  0  0  0
    6.4400   17.8510   26.7970 H   0  0  0  0  0  0  0  0  0  0  0  0
    3.8880   16.6580   26.8250 H   0  0  0  0  0  0  0  0  0  0  0  0
  1  2  2  0
  2  3  1  0
  3  4  1  0
  4  5  1  0
  5  6  2  0
  5  7  2  0
  5  8  1  0
  8  9  1  0
  9 10  2  0
 10 11  1  0
 11 12  2  0
 12 13  1  0
 13 14  2  0
  2 15  1  0
 15 16  1  0
 16 17  2  0
 17 18  1  0
 18 19  2  0
 19 20  1  0
 20 21  2  0
 21 22  1  0
 22 23  1  0
 23 24  2  0
 23 25  1  0
 25 26  2  0
 26 27  1  0
 27 28  2  0
 28 29  1  0
 14  9  1  0
 21 16  1  0
 29 25  1  0
  3 30  1  0
  3 31  1  0
  4 32  1  0
  8 33  1  0
  8 34  1  0
 10 35  1  0
 11 36  1  0
 12 37  1  0
 13 38  1  0
 14 39  1  0
 15 40  1  0
 17 41  1  0
 18 42  1  0
 19 43  1  0
 20 44  1  0
 22 45  1  0
 26 46  1  0
 27 47  1  0
 28 48  1  0
A    1
 O1 
A    2
 C1 
A    3
 C2 
A    4
 N1 
A    5
 S1 
A    6
 O2 
A    7
 O3 
A    8
 C3 
A    9
 C4 
A   10
 C5 
A   11
 C6 
A   12
 C7 
A   13
 C8 
A   14
 C9 
A   15
 N2 
A   16
 C10
A   17
 C11
A   18
 C12
A   19
 C13
A   20
 C14
A   21
 C15
A   22
 N3 
A   23
 C16
A   24
 O4 
A   25
 C17
A   26
 C18
A   27
 C19
A   28
 C20
A   29
 S2 
A   30
 H1 
A   31
 H2 
A   32
 H3 
A   33
 H4 
A   34
 H5 
A   35
 H6 
A   36
 H7 
A   37
 H8 
A   38
 H9 
A   39
 H10
A   40
 H11
A   41
 H12
A   42
 H13
A   43
 H14
A   44
 H15
A   45
 H16
A   46
 H17
A   47
 H18
A   48
 H19
M  END
>  <ref_pdb>  (95) 
x0310_0A

>  <ref_mols>  (95) 
x0739_0A,x0554_0A

>  <original SMILES>  (95) 
O=C(CNS(=O)(=O)Cc1ccccc1)Nc1ccccc1NC(=O)c1cccs1

>  <rationale>  (95) 
info halogenbond:I82+H97+F134+L98+S66; hbond:S87+H21+A92+S37; hydroph_interaction:V84+Y90+Q95+R93+V18; pication:Y63+F83; pistack:Y94; 

>  <intxn_cluster>  (95) 
206

>  <intxn_cluster_rank>  (95) 
1

>  <N_interactions>  (95) 
12

>  <∆∆G>  (95) 
-11.267962

>  <$/mg>  (95) 
163.0

>  <comRMSD>  (95) 
0.943724

>  <N_rotatable_bonds>  (95) 
8

>  <deep_P1_sidechain>  (95) 
False

>  <farthest_distance_to_substrate>  (95) 
3.680313

>  <hbond:SER:7>  (95) 
hbond:SER:7    0.0
hbond:SER:7      0
Name: 94, dtype: object

>  <halogenbond:SER:7>  (95) 
halogenbond:SER:7    0.0
halogenbond:SER:7      0
Name: 94, dtype: object

>  <hbond:GLY:8>  (95) 
hbond:GLY:8    0.0
hbond:GLY:8      0
Name: 94, dtype: object

>  <hydroph_interaction:VAL:18>  (95) 
hydroph_interaction:VAL:18    NaN
hydroph_interaction:VAL:18     -1
Name: 94, dtype: object

>  <hbond:ASN:19>  (95) 
hbond:ASN:19    0.0
hbond:ASN:19      0
Name: 94, dtype: object

>  <hydroph_interaction:ASN:19>  (95) 
hydroph_interaction:ASN:19    0.0
hydroph_interaction:ASN:19      0
Name: 94, dtype: object

>  <halogenbond:ASN:19>  (95) 
halogenbond:ASN:19    0.0
halogenbond:ASN:19      0
Name: 94, dtype: object

>  <hbond:ARG:20>  (95) 
hbond:ARG:20    0.0
hbond:ARG:20      0
Name: 94, dtype: object

>  <hydroph_interaction:ARG:20>  (95) 
hydroph_interaction:ARG:20    0.0
hydroph_interaction:ARG:20      0
Name: 94, dtype: object

>  <saltbridge:ARG:20>  (95) 
saltbridge:ARG:20    0.0
saltbridge:ARG:20      0
Name: 94, dtype: object

>  <halogenbond:ARG:20>  (95) 
halogenbond:ARG:20    0.0
halogenbond:ARG:20      0
Name: 94, dtype: object

>  <pication:ARG:20>  (95) 
pication:ARG:20    0.0
pication:ARG:20      0
Name: 94, dtype: object

>  <hbond:HIS:21>  (95) 
hbond:HIS:21    1.0
hbond:HIS:21      1
Name: 94, dtype: object

>  <hydroph_interaction:HIS:21>  (95) 
hydroph_interaction:HIS:21    0.0
hydroph_interaction:HIS:21      0
Name: 94, dtype: object

>  <pistack:HIS:21>  (95) 
pistack:HIS:21    0.0
pistack:HIS:21      0
Name: 94, dtype: object

>  <pication:HIS:21>  (95) 
pication:HIS:21    0.0
pication:HIS:21      0
Name: 94, dtype: object

>  <saltbridge:HIS:21>  (95) 
saltbridge:HIS:21    0.0
saltbridge:HIS:21      0
Name: 94, dtype: object

>  <halogenbond:HIS:21>  (95) 
halogenbond:HIS:21    0.0
halogenbond:HIS:21      0
Name: 94, dtype: object

>  <hydroph_interaction:LEU:22>  (95) 
hydroph_interaction:LEU:22    0.0
hydroph_interaction:LEU:22      0
Name: 94, dtype: object

>  <hbond:LEU:22>  (95) 
hbond:LEU:22    0.0
hbond:LEU:22      0
Name: 94, dtype: object

>  <hydroph_interaction:TRP:28>  (95) 
hydroph_interaction:TRP:28    0.0
hydroph_interaction:TRP:28      0
Name: 94, dtype: object

>  <hbond:SER:36>  (95) 
hbond:SER:36    0.0
hbond:SER:36      0
Name: 94, dtype: object

>  <halogenbond:SER:36>  (95) 
halogenbond:SER:36    0.0
halogenbond:SER:36      0
Name: 94, dtype: object

>  <hbond:SER:37>  (95) 
hbond:SER:37    NaN
hbond:SER:37     -1
Name: 94, dtype: object

>  <hbond:ARG:38>  (95) 
hbond:ARG:38    0.0
hbond:ARG:38      0
Name: 94, dtype: object

>  <halogenbond:ARG:38>  (95) 
halogenbond:ARG:38    0.0
halogenbond:ARG:38      0
Name: 94, dtype: object

>  <saltbridge:ASP:39>  (95) 
saltbridge:ASP:39    0.0
saltbridge:ASP:39      0
Name: 94, dtype: object

>  <halogenbond:ASP:39>  (95) 
halogenbond:ASP:39    0.0
halogenbond:ASP:39      0
Name: 94, dtype: object

>  <hbond:ASP:39>  (95) 
hbond:ASP:39    0.0
hbond:ASP:39      0
Name: 94, dtype: object

>  <hydroph_interaction:ASP:39>  (95) 
hydroph_interaction:ASP:39    0.0
hydroph_interaction:ASP:39      0
Name: 94, dtype: object

>  <hydroph_interaction:LEU:40>  (95) 
hydroph_interaction:LEU:40    0.0
hydroph_interaction:LEU:40      0
Name: 94, dtype: object

>  <hydroph_interaction:TYR:63>  (95) 
hydroph_interaction:TYR:63    0.0
hydroph_interaction:TYR:63      0
Name: 94, dtype: object

>  <hbond:TYR:63>  (95) 
hbond:TYR:63    0.0
hbond:TYR:63      0
Name: 94, dtype: object

>  <pistack:TYR:63>  (95) 
pistack:TYR:63    0.0
pistack:TYR:63      0
Name: 94, dtype: object

>  <pication:TYR:63>  (95) 
pication:TYR:63    NaN
pication:TYR:63     -1
Name: 94, dtype: object

>  <halogenbond:TYR:64>  (95) 
halogenbond:TYR:64    0.0
halogenbond:TYR:64      0
Name: 94, dtype: object

>  <hbond:TYR:64>  (95) 
hbond:TYR:64    0.0
hbond:TYR:64      0
Name: 94, dtype: object

>  <hydroph_interaction:TYR:64>  (95) 
hydroph_interaction:TYR:64    0.0
hydroph_interaction:TYR:64      0
Name: 94, dtype: object

>  <halogenbond:CYS:65>  (95) 
halogenbond:CYS:65    0.0
halogenbond:CYS:65      0
Name: 94, dtype: object

>  <hbond:CYS:65>  (95) 
hbond:CYS:65    0.0
hbond:CYS:65      0
Name: 94, dtype: object

>  <hbond:SER:66>  (95) 
hbond:SER:66    0.0
hbond:SER:66      0
Name: 94, dtype: object

>  <halogenbond:SER:66>  (95) 
halogenbond:SER:66    NaN
halogenbond:SER:66     -1
Name: 94, dtype: object

>  <hbond:SER:67>  (95) 
hbond:SER:67    0.0
hbond:SER:67      0
Name: 94, dtype: object

>  <halogenbond:SER:67>  (95) 
halogenbond:SER:67    0.0
halogenbond:SER:67      0
Name: 94, dtype: object

>  <hbond:ARG:68>  (95) 
hbond:ARG:68    0.0
hbond:ARG:68      0
Name: 94, dtype: object

>  <saltbridge:ARG:68>  (95) 
saltbridge:ARG:68    0.0
saltbridge:ARG:68      0
Name: 94, dtype: object

>  <hydroph_interaction:ARG:68>  (95) 
hydroph_interaction:ARG:68    0.0
hydroph_interaction:ARG:68      0
Name: 94, dtype: object

>  <pication:ARG:68>  (95) 
pication:ARG:68    0.0
pication:ARG:68      0
Name: 94, dtype: object

>  <hydroph_interaction:TYR:72>  (95) 
hydroph_interaction:TYR:72    0.0
hydroph_interaction:TYR:72      0
Name: 94, dtype: object

>  <hydroph_interaction:VAL:74>  (95) 
hydroph_interaction:VAL:74    0.0
hydroph_interaction:VAL:74      0
Name: 94, dtype: object

>  <hydroph_interaction:PHE:76>  (95) 
hydroph_interaction:PHE:76    0.0
hydroph_interaction:PHE:76      0
Name: 94, dtype: object

>  <hbond:SER:77>  (95) 
hbond:SER:77    0.0
hbond:SER:77      0
Name: 94, dtype: object

>  <hbond:SER:80>  (95) 
hbond:SER:80    0.0
hbond:SER:80      0
Name: 94, dtype: object

>  <hbond:LEU:81>  (95) 
hbond:LEU:81    0.0
hbond:LEU:81      0
Name: 94, dtype: object

>  <halogenbond:LEU:81>  (95) 
halogenbond:LEU:81    0.0
halogenbond:LEU:81      0
Name: 94, dtype: object

>  <hydroph_interaction:LEU:81>  (95) 
hydroph_interaction:LEU:81    0.0
hydroph_interaction:LEU:81      0
Name: 94, dtype: object

>  <hydroph_interaction:ILE:82>  (95) 
hydroph_interaction:ILE:82    0.0
hydroph_interaction:ILE:82      0
Name: 94, dtype: object

>  <halogenbond:ILE:82>  (95) 
halogenbond:ILE:82    NaN
halogenbond:ILE:82     -1
Name: 94, dtype: object

>  <hbond:ILE:82>  (95) 
hbond:ILE:82    0.0
hbond:ILE:82      0
Name: 94, dtype: object

>  <hbond:PHE:83>  (95) 
hbond:PHE:83    0.0
hbond:PHE:83      0
Name: 94, dtype: object

>  <hydroph_interaction:PHE:83>  (95) 
hydroph_interaction:PHE:83    0.0
hydroph_interaction:PHE:83      0
Name: 94, dtype: object

>  <halogenbond:PHE:83>  (95) 
halogenbond:PHE:83    0.0
halogenbond:PHE:83      0
Name: 94, dtype: object

>  <pistack:PHE:83>  (95) 
pistack:PHE:83    0.0
pistack:PHE:83      0
Name: 94, dtype: object

>  <pication:PHE:83>  (95) 
pication:PHE:83    NaN
pication:PHE:83     -1
Name: 94, dtype: object

>  <hydroph_interaction:VAL:84>  (95) 
hydroph_interaction:VAL:84    2.0
hydroph_interaction:VAL:84      2
Name: 94, dtype: object

>  <halogenbond:VAL:84>  (95) 
halogenbond:VAL:84    0.0
halogenbond:VAL:84      0
Name: 94, dtype: object

>  <hbond:VAL:84>  (95) 
hbond:VAL:84    0.0
hbond:VAL:84      0
Name: 94, dtype: object

>  <hydroph_interaction:GLU:85>  (95) 
hydroph_interaction:GLU:85    0.0
hydroph_interaction:GLU:85      0
Name: 94, dtype: object

>  <hbond:GLU:85>  (95) 
hbond:GLU:85    0.0
hbond:GLU:85      0
Name: 94, dtype: object

>  <halogenbond:GLU:85>  (95) 
halogenbond:GLU:85    0.0
halogenbond:GLU:85      0
Name: 94, dtype: object

>  <saltbridge:GLU:85>  (95) 
saltbridge:GLU:85    0.0
saltbridge:GLU:85      0
Name: 94, dtype: object

>  <halogenbond:ALA:86>  (95) 
halogenbond:ALA:86    0.0
halogenbond:ALA:86      0
Name: 94, dtype: object

>  <hbond:ALA:86>  (95) 
hbond:ALA:86    0.0
hbond:ALA:86      0
Name: 94, dtype: object

>  <hydroph_interaction:ALA:86>  (95) 
hydroph_interaction:ALA:86    0.0
hydroph_interaction:ALA:86      0
Name: 94, dtype: object

>  <hbond:SER:87>  (95) 
hbond:SER:87    3
hbond:SER:87    3
Name: 94, dtype: object

>  <halogenbond:SER:87>  (95) 
halogenbond:SER:87    0.0
halogenbond:SER:87      0
Name: 94, dtype: object

>  <hbond:GLU:88>  (95) 
hbond:GLU:88    0.0
hbond:GLU:88      0
Name: 94, dtype: object

>  <hydroph_interaction:GLU:88>  (95) 
hydroph_interaction:GLU:88    0.0
hydroph_interaction:GLU:88      0
Name: 94, dtype: object

>  <halogenbond:GLU:88>  (95) 
halogenbond:GLU:88    0.0
halogenbond:GLU:88      0
Name: 94, dtype: object

>  <saltbridge:GLU:88>  (95) 
saltbridge:GLU:88    0.0
saltbridge:GLU:88      0
Name: 94, dtype: object

>  <hydroph_interaction:TYR:89>  (95) 
hydroph_interaction:TYR:89    0.0
hydroph_interaction:TYR:89      0
Name: 94, dtype: object

>  <pistack:TYR:89>  (95) 
pistack:TYR:89    0.0
pistack:TYR:89      0
Name: 94, dtype: object

>  <hbond:TYR:89>  (95) 
hbond:TYR:89    0.0
hbond:TYR:89      0
Name: 94, dtype: object

>  <halogenbond:TYR:89>  (95) 
halogenbond:TYR:89    0.0
halogenbond:TYR:89      0
Name: 94, dtype: object

>  <hydroph_interaction:TYR:90>  (95) 
hydroph_interaction:TYR:90    3.0
hydroph_interaction:TYR:90      3
Name: 94, dtype: object

>  <hbond:TYR:90>  (95) 
hbond:TYR:90    0.0
hbond:TYR:90      0
Name: 94, dtype: object

>  <pistack:TYR:90>  (95) 
pistack:TYR:90    0.0
pistack:TYR:90      0
Name: 94, dtype: object

>  <halogenbond:TYR:90>  (95) 
halogenbond:TYR:90    0.0
halogenbond:TYR:90      0
Name: 94, dtype: object

>  <pication:TYR:90>  (95) 
pication:TYR:90    0.0
pication:TYR:90      0
Name: 94, dtype: object

>  <hbond:PRO:91>  (95) 
hbond:PRO:91    0.0
hbond:PRO:91      0
Name: 94, dtype: object

>  <hydroph_interaction:PRO:91>  (95) 
hydroph_interaction:PRO:91    0.0
hydroph_interaction:PRO:91      0
Name: 94, dtype: object

>  <halogenbond:PRO:91>  (95) 
halogenbond:PRO:91    0.0
halogenbond:PRO:91      0
Name: 94, dtype: object

>  <hbond:ALA:92>  (95) 
hbond:ALA:92    NaN
hbond:ALA:92     -1
Name: 94, dtype: object

>  <hydroph_interaction:ALA:92>  (95) 
hydroph_interaction:ALA:92    0.0
hydroph_interaction:ALA:92      0
Name: 94, dtype: object

>  <saltbridge:ARG:93>  (95) 
saltbridge:ARG:93    0.0
saltbridge:ARG:93      0
Name: 94, dtype: object

>  <hbond:ARG:93>  (95) 
hbond:ARG:93    0.0
hbond:ARG:93      0
Name: 94, dtype: object

>  <hydroph_interaction:ARG:93>  (95) 
hydroph_interaction:ARG:93    1.0
hydroph_interaction:ARG:93      1
Name: 94, dtype: object

>  <halogenbond:ARG:93>  (95) 
halogenbond:ARG:93    0.0
halogenbond:ARG:93      0
Name: 94, dtype: object

>  <pication:ARG:93>  (95) 
pication:ARG:93    0.0
pication:ARG:93      0
Name: 94, dtype: object

>  <hydroph_interaction:TYR:94>  (95) 
hydroph_interaction:TYR:94    0.0
hydroph_interaction:TYR:94      0
Name: 94, dtype: object

>  <pistack:TYR:94>  (95) 
pistack:TYR:94    NaN
pistack:TYR:94     -1
Name: 94, dtype: object

>  <hbond:TYR:94>  (95) 
hbond:TYR:94    0.0
hbond:TYR:94      0
Name: 94, dtype: object

>  <hbond:GLN:95>  (95) 
hbond:GLN:95    0.0
hbond:GLN:95      0
Name: 94, dtype: object

>  <hydroph_interaction:GLN:95>  (95) 
hydroph_interaction:GLN:95    2.0
hydroph_interaction:GLN:95      2
Name: 94, dtype: object

>  <halogenbond:GLN:95>  (95) 
halogenbond:GLN:95    0.0
halogenbond:GLN:95      0
Name: 94, dtype: object

>  <hbond:SER:96>  (95) 
hbond:SER:96    0.0
hbond:SER:96      0
Name: 94, dtype: object

>  <halogenbond:HIS:97>  (95) 
halogenbond:HIS:97    NaN
halogenbond:HIS:97     -1
Name: 94, dtype: object

>  <hydroph_interaction:LEU:98>  (95) 
hydroph_interaction:LEU:98    0.0
hydroph_interaction:LEU:98      0
Name: 94, dtype: object

>  <hbond:LEU:98>  (95) 
hbond:LEU:98    0.0
hbond:LEU:98      0
Name: 94, dtype: object

>  <halogenbond:LEU:98>  (95) 
halogenbond:LEU:98    NaN
halogenbond:LEU:98     -1
Name: 94, dtype: object

>  <hbond:MET:99>  (95) 
hbond:MET:99    0.0
hbond:MET:99      0
Name: 94, dtype: object

>  <hydroph_interaction:MET:99>  (95) 
hydroph_interaction:MET:99    0.0
hydroph_interaction:MET:99      0
Name: 94, dtype: object

>  <halogenbond:MET:99>  (95) 
halogenbond:MET:99    0.0
halogenbond:MET:99      0
Name: 94, dtype: object

>  <hydroph_interaction:LEU:100>  (95) 
hydroph_interaction:LEU:100    0.0
hydroph_interaction:LEU:100      0
Name: 94, dtype: object

>  <hbond:LEU:100>  (95) 
hbond:LEU:100    0.0
hbond:LEU:100      0
Name: 94, dtype: object

>  <hbond:ALA:101>  (95) 
hbond:ALA:101    0.0
hbond:ALA:101      0
Name: 94, dtype: object

>  <hydroph_interaction:ALA:101>  (95) 
hydroph_interaction:ALA:101    0.0
hydroph_interaction:ALA:101      0
Name: 94, dtype: object

>  <hydroph_interaction:VAL:102>  (95) 
hydroph_interaction:VAL:102    0.0
hydroph_interaction:VAL:102      0
Name: 94, dtype: object

>  <hbond:VAL:102>  (95) 
hbond:VAL:102    0.0
hbond:VAL:102      0
Name: 94, dtype: object

>  <hbond:GLY:103>  (95) 
hbond:GLY:103    0.0
hbond:GLY:103      0
Name: 94, dtype: object

>  <halogenbond:GLY:103>  (95) 
halogenbond:GLY:103    0.0
halogenbond:GLY:103      0
Name: 94, dtype: object

>  <hbond:HIS:104>  (95) 
hbond:HIS:104    0.0
hbond:HIS:104      0
Name: 94, dtype: object

>  <saltbridge:HIS:104>  (95) 
saltbridge:HIS:104    0.0
saltbridge:HIS:104      0
Name: 94, dtype: object

>  <pication:HIS:104>  (95) 
pication:HIS:104    0.0
pication:HIS:104      0
Name: 94, dtype: object

>  <halogenbond:HIS:104>  (95) 
halogenbond:HIS:104    0.0
halogenbond:HIS:104      0
Name: 94, dtype: object

>  <hydroph_interaction:HIS:104>  (95) 
hydroph_interaction:HIS:104    0.0
hydroph_interaction:HIS:104      0
Name: 94, dtype: object

>  <pistack:HIS:104>  (95) 
pistack:HIS:104    0.0
pistack:HIS:104      0
Name: 94, dtype: object

>  <halogenbond:SER:105>  (95) 
halogenbond:SER:105    0.0
halogenbond:SER:105      0
Name: 94, dtype: object

>  <hbond:SER:105>  (95) 
hbond:SER:105    0.0
hbond:SER:105      0
Name: 94, dtype: object

>  <hbond:GLU:106>  (95) 
hbond:GLU:106    0.0
hbond:GLU:106      0
Name: 94, dtype: object

>  <hydroph_interaction:GLU:106>  (95) 
hydroph_interaction:GLU:106    0.0
hydroph_interaction:GLU:106      0
Name: 94, dtype: object

>  <saltbridge:GLU:106>  (95) 
saltbridge:GLU:106    0.0
saltbridge:GLU:106      0
Name: 94, dtype: object

>  <halogenbond:GLU:106>  (95) 
halogenbond:GLU:106    0.0
halogenbond:GLU:106      0
Name: 94, dtype: object

>  <hydroph_interaction:PRO:107>  (95) 
hydroph_interaction:PRO:107    0
hydroph_interaction:PRO:107    0
Name: 94, dtype: object

>  <hbond:PRO:107>  (95) 
hbond:PRO:107    0.0
hbond:PRO:107      0
Name: 94, dtype: object

>  <halogenbond:PRO:107>  (95) 
halogenbond:PRO:107    0.0
halogenbond:PRO:107      0
Name: 94, dtype: object

>  <hbond:GLY:108>  (95) 
hbond:GLY:108    0.0
hbond:GLY:108      0
Name: 94, dtype: object

>  <halogenbond:GLY:108>  (95) 
halogenbond:GLY:108    0.0
halogenbond:GLY:108      0
Name: 94, dtype: object

>  <hbond:ASP:109>  (95) 
hbond:ASP:109    0.0
hbond:ASP:109      0
Name: 94, dtype: object

>  <hydroph_interaction:ASP:109>  (95) 
hydroph_interaction:ASP:109    0.0
hydroph_interaction:ASP:109      0
Name: 94, dtype: object

>  <saltbridge:ASP:109>  (95) 
saltbridge:ASP:109    0.0
saltbridge:ASP:109      0
Name: 94, dtype: object

>  <halogenbond:CYS:110>  (95) 
halogenbond:CYS:110    0.0
halogenbond:CYS:110      0
Name: 94, dtype: object

>  <hbond:CYS:110>  (95) 
hbond:CYS:110    0.0
hbond:CYS:110      0
Name: 94, dtype: object

>  <hbond:GLY:111>  (95) 
hbond:GLY:111    0.0
hbond:GLY:111      0
Name: 94, dtype: object

>  <hbond:GLY:112>  (95) 
hbond:GLY:112    0.0
hbond:GLY:112      0
Name: 94, dtype: object

>  <hbond:ILE:113>  (95) 
hbond:ILE:113    0.0
hbond:ILE:113      0
Name: 94, dtype: object

>  <hydroph_interaction:LEU:114>  (95) 
hydroph_interaction:LEU:114    0.0
hydroph_interaction:LEU:114      0
Name: 94, dtype: object

>  <hbond:LEU:114>  (95) 
hbond:LEU:114    0.0
hbond:LEU:114      0
Name: 94, dtype: object

>  <hydroph_interaction:ILE:123>  (95) 
hydroph_interaction:ILE:123    0.0
hydroph_interaction:ILE:123      0
Name: 94, dtype: object

>  <hbond:ILE:123>  (95) 
hbond:ILE:123    0.0
hbond:ILE:123      0
Name: 94, dtype: object

>  <hydroph_interaction:VAL:124>  (95) 
hydroph_interaction:VAL:124    0.0
hydroph_interaction:VAL:124      0
Name: 94, dtype: object

>  <hbond:VAL:124>  (95) 
hbond:VAL:124    0.0
hbond:VAL:124      0
Name: 94, dtype: object

>  <halogenbond:VAL:124>  (95) 
halogenbond:VAL:124    0.0
halogenbond:VAL:124      0
Name: 94, dtype: object

>  <hbond:SER:125>  (95) 
hbond:SER:125    0
hbond:SER:125    0
Name: 94, dtype: object

>  <halogenbond:SER:125>  (95) 
halogenbond:SER:125    0.0
halogenbond:SER:125      0
Name: 94, dtype: object

>  <hydroph_interaction:THR:126>  (95) 
hydroph_interaction:THR:126    0.0
hydroph_interaction:THR:126      0
Name: 94, dtype: object

>  <hbond:THR:126>  (95) 
hbond:THR:126    0.0
hbond:THR:126      0
Name: 94, dtype: object

>  <halogenbond:THR:126>  (95) 
halogenbond:THR:126    0.0
halogenbond:THR:126      0
Name: 94, dtype: object

>  <hbond:GLY:127>  (95) 
hbond:GLY:127    0
hbond:GLY:127    0
Name: 94, dtype: object

>  <halogenbond:GLY:127>  (95) 
halogenbond:GLY:127    0.0
halogenbond:GLY:127      0
Name: 94, dtype: object

>  <hydroph_interaction:GLY:127>  (95) 
hydroph_interaction:GLY:127    0.0
hydroph_interaction:GLY:127      0
Name: 94, dtype: object

>  <hbond:GLY:128>  (95) 
hbond:GLY:128    0.0
hbond:GLY:128      0
Name: 94, dtype: object

>  <halogenbond:GLY:128>  (95) 
halogenbond:GLY:128    0.0
halogenbond:GLY:128      0
Name: 94, dtype: object

>  <hydroph_interaction:GLY:128>  (95) 
hydroph_interaction:GLY:128    0.0
hydroph_interaction:GLY:128      0
Name: 94, dtype: object

>  <hbond:ASN:129>  (95) 
hbond:ASN:129    0.0
hbond:ASN:129      0
Name: 94, dtype: object

>  <hydroph_interaction:ASN:129>  (95) 
hydroph_interaction:ASN:129    0.0
hydroph_interaction:ASN:129      0
Name: 94, dtype: object

>  <halogenbond:ASN:129>  (95) 
halogenbond:ASN:129    0.0
halogenbond:ASN:129      0
Name: 94, dtype: object

>  <hbond:GLY:130>  (95) 
hbond:GLY:130    0.0
hbond:GLY:130      0
Name: 94, dtype: object

>  <hbond:LEU:131>  (95) 
hbond:LEU:131    0.0
hbond:LEU:131      0
Name: 94, dtype: object

>  <hydroph_interaction:LEU:131>  (95) 
hydroph_interaction:LEU:131    0.0
hydroph_interaction:LEU:131      0
Name: 94, dtype: object

>  <halogenbond:LEU:131>  (95) 
halogenbond:LEU:131    0.0
halogenbond:LEU:131      0
Name: 94, dtype: object

>  <hydroph_interaction:VAL:132>  (95) 
hydroph_interaction:VAL:132    0.0
hydroph_interaction:VAL:132      0
Name: 94, dtype: object

>  <hbond:VAL:132>  (95) 
hbond:VAL:132    0.0
hbond:VAL:132      0
Name: 94, dtype: object

>  <hbond:GLY:133>  (95) 
hbond:GLY:133    0.0
hbond:GLY:133      0
Name: 94, dtype: object

>  <halogenbond:GLY:133>  (95) 
halogenbond:GLY:133    0.0
halogenbond:GLY:133      0
Name: 94, dtype: object

>  <hydroph_interaction:PHE:134>  (95) 
hydroph_interaction:PHE:134    0.0
hydroph_interaction:PHE:134      0
Name: 94, dtype: object

>  <hbond:PHE:134>  (95) 
hbond:PHE:134    0.0
hbond:PHE:134      0
Name: 94, dtype: object

>  <pistack:PHE:134>  (95) 
pistack:PHE:134    0.0
pistack:PHE:134      0
Name: 94, dtype: object

>  <pication:PHE:134>  (95) 
pication:PHE:134    0.0
pication:PHE:134      0
Name: 94, dtype: object

>  <halogenbond:PHE:134>  (95) 
halogenbond:PHE:134    NaN
halogenbond:PHE:134     -1
Name: 94, dtype: object

>  <hydroph_interaction:ALA:135>  (95) 
hydroph_interaction:ALA:135    0.0
hydroph_interaction:ALA:135      0
Name: 94, dtype: object

>  <hbond:ALA:135>  (95) 
hbond:ALA:135    0.0
hbond:ALA:135      0
Name: 94, dtype: object

$$$$
Z230660726
     RDKit          3D

 33 33  0  0  0  0  0  0  0  0999 V2000
   10.2090    8.9570   22.5000 C   0  0  0  0  0  0  0  0  0  0  0  0
    9.7130   10.1720   23.0940 C   0  0  0  0  0  0  0  0  0  0  0  0
    8.6190   10.1010   24.0700 C   0  0  0  0  0  0  0  0  0  0  0  0
    8.0240   11.2690   24.7280 C   0  0  0  0  0  0  0  0  0  0  0  0
    6.9720   11.1710   25.6460 C   0  0  0  0  0  0  0  0  0  0  0  0
    8.5940   12.5000   24.3600 C   0  0  0  0  0  0  0  0  0  0  0  0
    9.6550   12.5740   23.4270 C   0  0  0  0  0  0  0  0  0  0  0  0
   10.2750   13.7640   23.0310 N   0  0  0  0  0  0  0  0  0  0  0  0
   11.6330   13.9600   22.9450 C   0  0  0  0  0  0  0  0  0  0  0  0
   12.5220   13.1750   23.1980 O   0  0  0  0  0  0  0  0  0  0  0  0
   11.8720   15.3370   22.5060 N   0  0  0  0  0  0  0  0  0  0  0  0
   11.9790   15.6920   21.1040 C   0  0  0  0  0  0  0  0  0  0  0  0
   11.0810   14.8400   20.2420 C   0  0  0  0  0  0  0  0  0  0  0  0
   13.4260   15.5740   20.6940 C   0  0  0  0  0  0  0  0  0  0  0  0
   10.1900   11.4330   22.8140 C   0  0  0  0  0  0  0  0  0  0  0  0
   10.8330    9.2180   21.6450 H   0  0  0  0  0  0  0  0  0  0  0  0
    9.4050    8.3200   22.1310 H   0  0  0  0  0  0  0  0  0  0  0  0
   10.8080    8.3760   23.2090 H   0  0  0  0  0  0  0  0  0  0  0  0
    8.1740    9.1550   24.3630 H   0  0  0  0  0  0  0  0  0  0  0  0
    6.5910   10.1670   25.8070 H   0  0  0  0  0  0  0  0  0  0  0  0
    7.2080   11.5380   26.6360 H   0  0  0  0  0  0  0  0  0  0  0  0
    6.0860   11.7400   25.3810 H   0  0  0  0  0  0  0  0  0  0  0  0
    8.2020   13.4070   24.8130 H   0  0  0  0  0  0  0  0  0  0  0  0
    9.8000   14.6170   23.2820 H   0  0  0  0  0  0  0  0  0  0  0  0
   11.3150   15.9650   23.0270 H   0  0  0  0  0  0  0  0  0  0  0  0
   11.6790   16.7290   21.0050 H   0  0  0  0  0  0  0  0  0  0  0  0
   10.3220   15.4450   19.7290 H   0  0  0  0  0  0  0  0  0  0  0  0
   11.6670   14.3340   19.4630 H   0  0  0  0  0  0  0  0  0  0  0  0
   10.5470   14.1040   20.8500 H   0  0  0  0  0  0  0  0  0  0  0  0
   13.9540   16.4880   20.4450 H   0  0  0  0  0  0  0  0  0  0  0  0
   13.5160   14.8970   19.8360 H   0  0  0  0  0  0  0  0  0  0  0  0
   13.9790   15.1220   21.5190 H   0  0  0  0  0  0  0  0  0  0  0  0
   10.9940   11.5390   22.1100 H   0  0  0  0  0  0  0  0  0  0  0  0
  1  2  1  0
  2  3  2  0
  3  4  1  0
  4  5  1  0
  4  6  2  0
  6  7  1  0
  7  8  1  0
  8  9  1  0
  9 10  2  0
  9 11  1  0
 11 12  1  0
 12 13  1  0
 12 14  1  0
  7 15  2  0
 15  2  1  0
  1 16  1  0
  1 17  1  0
  1 18  1  0
  3 19  1  0
  5 20  1  0
  5 21  1  0
  5 22  1  0
  6 23  1  0
  8 24  1  0
 11 25  1  0
 12 26  1  0
 13 27  1  0
 13 28  1  0
 13 29  1  0
 14 30  1  0
 14 31  1  0
 14 32  1  0
 15 33  1  0
A    1
 C1 
A    2
 C2 
A    3
 C3 
A    4
 C4 
A    5
 C5 
A    6
 C6 
A    7
 C7 
A    8
 N1 
A    9
 C8 
A   10
 O1 
A   11
 N2 
A   12
 C9 
A   13
 C10
A   14
 C11
A   15
 C12
A   16
 H1 
A   17
 H2 
A   18
 H3 
A   19
 H4 
A   20
 H5 
A   21
 H6 
A   22
 H7 
A   23
 H8 
A   24
 H9 
A   25
 H10
A   26
 H11
A   27
 H12
A   28
 H13
A   29
 H14
A   30
 H15
A   31
 H16
A   32
 H17
A   33
 H18
M  END
>  <ref_pdb>  (96) 
x0310_0A

>  <ref_mols>  (96) 
x0451_0A,x0739_0A

>  <original SMILES>  (96) 
Cc1cc(C)cc(NC(=O)NC(C)C)c1

>  <rationale>  (96) 
info halogenbond:I82+H97+F134+L98+S66; hbond:S87+E88+A92+S37; hydroph_interaction:V124+Y90+Y89+H21+P107+V18; pication:Y63+F83; pistack:Y94; 

>  <intxn_cluster>  (96) 
107

>  <intxn_cluster_rank>  (96) 
1

>  <N_interactions>  (96) 
9

>  <∆∆G>  (96) 
-13.252562

>  <$/mg>  (96) 
163.0

>  <comRMSD>  (96) 
0.767922

>  <N_rotatable_bonds>  (96) 
6

>  <deep_P1_sidechain>  (96) 
True

>  <farthest_distance_to_substrate>  (96) 
2.419533

>  <hbond:SER:7>  (96) 
hbond:SER:7    0.0
hbond:SER:7      0
Name: 95, dtype: object

>  <halogenbond:SER:7>  (96) 
halogenbond:SER:7    0.0
halogenbond:SER:7      0
Name: 95, dtype: object

>  <hbond:GLY:8>  (96) 
hbond:GLY:8    0.0
hbond:GLY:8      0
Name: 95, dtype: object

>  <hydroph_interaction:VAL:18>  (96) 
hydroph_interaction:VAL:18    NaN
hydroph_interaction:VAL:18     -1
Name: 95, dtype: object

>  <hbond:ASN:19>  (96) 
hbond:ASN:19    0.0
hbond:ASN:19      0
Name: 95, dtype: object

>  <hydroph_interaction:ASN:19>  (96) 
hydroph_interaction:ASN:19    0.0
hydroph_interaction:ASN:19      0
Name: 95, dtype: object

>  <halogenbond:ASN:19>  (96) 
halogenbond:ASN:19    0.0
halogenbond:ASN:19      0
Name: 95, dtype: object

>  <hbond:ARG:20>  (96) 
hbond:ARG:20    0.0
hbond:ARG:20      0
Name: 95, dtype: object

>  <hydroph_interaction:ARG:20>  (96) 
hydroph_interaction:ARG:20    0.0
hydroph_interaction:ARG:20      0
Name: 95, dtype: object

>  <saltbridge:ARG:20>  (96) 
saltbridge:ARG:20    0.0
saltbridge:ARG:20      0
Name: 95, dtype: object

>  <halogenbond:ARG:20>  (96) 
halogenbond:ARG:20    0.0
halogenbond:ARG:20      0
Name: 95, dtype: object

>  <pication:ARG:20>  (96) 
pication:ARG:20    0.0
pication:ARG:20      0
Name: 95, dtype: object

>  <hbond:HIS:21>  (96) 
hbond:HIS:21    0.0
hbond:HIS:21      0
Name: 95, dtype: object

>  <hydroph_interaction:HIS:21>  (96) 
hydroph_interaction:HIS:21    1.0
hydroph_interaction:HIS:21      1
Name: 95, dtype: object

>  <pistack:HIS:21>  (96) 
pistack:HIS:21    0.0
pistack:HIS:21      0
Name: 95, dtype: object

>  <pication:HIS:21>  (96) 
pication:HIS:21    0.0
pication:HIS:21      0
Name: 95, dtype: object

>  <saltbridge:HIS:21>  (96) 
saltbridge:HIS:21    0.0
saltbridge:HIS:21      0
Name: 95, dtype: object

>  <halogenbond:HIS:21>  (96) 
halogenbond:HIS:21    0.0
halogenbond:HIS:21      0
Name: 95, dtype: object

>  <hydroph_interaction:LEU:22>  (96) 
hydroph_interaction:LEU:22    0.0
hydroph_interaction:LEU:22      0
Name: 95, dtype: object

>  <hbond:LEU:22>  (96) 
hbond:LEU:22    0.0
hbond:LEU:22      0
Name: 95, dtype: object

>  <hydroph_interaction:TRP:28>  (96) 
hydroph_interaction:TRP:28    0.0
hydroph_interaction:TRP:28      0
Name: 95, dtype: object

>  <hbond:SER:36>  (96) 
hbond:SER:36    0.0
hbond:SER:36      0
Name: 95, dtype: object

>  <halogenbond:SER:36>  (96) 
halogenbond:SER:36    0.0
halogenbond:SER:36      0
Name: 95, dtype: object

>  <hbond:SER:37>  (96) 
hbond:SER:37    NaN
hbond:SER:37     -1
Name: 95, dtype: object

>  <hbond:ARG:38>  (96) 
hbond:ARG:38    0.0
hbond:ARG:38      0
Name: 95, dtype: object

>  <halogenbond:ARG:38>  (96) 
halogenbond:ARG:38    0.0
halogenbond:ARG:38      0
Name: 95, dtype: object

>  <saltbridge:ASP:39>  (96) 
saltbridge:ASP:39    0.0
saltbridge:ASP:39      0
Name: 95, dtype: object

>  <halogenbond:ASP:39>  (96) 
halogenbond:ASP:39    0.0
halogenbond:ASP:39      0
Name: 95, dtype: object

>  <hbond:ASP:39>  (96) 
hbond:ASP:39    0.0
hbond:ASP:39      0
Name: 95, dtype: object

>  <hydroph_interaction:ASP:39>  (96) 
hydroph_interaction:ASP:39    0.0
hydroph_interaction:ASP:39      0
Name: 95, dtype: object

>  <hydroph_interaction:LEU:40>  (96) 
hydroph_interaction:LEU:40    0.0
hydroph_interaction:LEU:40      0
Name: 95, dtype: object

>  <hydroph_interaction:TYR:63>  (96) 
hydroph_interaction:TYR:63    0.0
hydroph_interaction:TYR:63      0
Name: 95, dtype: object

>  <hbond:TYR:63>  (96) 
hbond:TYR:63    0.0
hbond:TYR:63      0
Name: 95, dtype: object

>  <pistack:TYR:63>  (96) 
pistack:TYR:63    0.0
pistack:TYR:63      0
Name: 95, dtype: object

>  <pication:TYR:63>  (96) 
pication:TYR:63    NaN
pication:TYR:63     -1
Name: 95, dtype: object

>  <halogenbond:TYR:64>  (96) 
halogenbond:TYR:64    0.0
halogenbond:TYR:64      0
Name: 95, dtype: object

>  <hbond:TYR:64>  (96) 
hbond:TYR:64    0.0
hbond:TYR:64      0
Name: 95, dtype: object

>  <hydroph_interaction:TYR:64>  (96) 
hydroph_interaction:TYR:64    0.0
hydroph_interaction:TYR:64      0
Name: 95, dtype: object

>  <halogenbond:CYS:65>  (96) 
halogenbond:CYS:65    0.0
halogenbond:CYS:65      0
Name: 95, dtype: object

>  <hbond:CYS:65>  (96) 
hbond:CYS:65    0.0
hbond:CYS:65      0
Name: 95, dtype: object

>  <hbond:SER:66>  (96) 
hbond:SER:66    0.0
hbond:SER:66      0
Name: 95, dtype: object

>  <halogenbond:SER:66>  (96) 
halogenbond:SER:66    NaN
halogenbond:SER:66     -1
Name: 95, dtype: object

>  <hbond:SER:67>  (96) 
hbond:SER:67    0.0
hbond:SER:67      0
Name: 95, dtype: object

>  <halogenbond:SER:67>  (96) 
halogenbond:SER:67    0.0
halogenbond:SER:67      0
Name: 95, dtype: object

>  <hbond:ARG:68>  (96) 
hbond:ARG:68    0.0
hbond:ARG:68      0
Name: 95, dtype: object

>  <saltbridge:ARG:68>  (96) 
saltbridge:ARG:68    0.0
saltbridge:ARG:68      0
Name: 95, dtype: object

>  <hydroph_interaction:ARG:68>  (96) 
hydroph_interaction:ARG:68    0.0
hydroph_interaction:ARG:68      0
Name: 95, dtype: object

>  <pication:ARG:68>  (96) 
pication:ARG:68    0.0
pication:ARG:68      0
Name: 95, dtype: object

>  <hydroph_interaction:TYR:72>  (96) 
hydroph_interaction:TYR:72    0.0
hydroph_interaction:TYR:72      0
Name: 95, dtype: object

>  <hydroph_interaction:VAL:74>  (96) 
hydroph_interaction:VAL:74    0.0
hydroph_interaction:VAL:74      0
Name: 95, dtype: object

>  <hydroph_interaction:PHE:76>  (96) 
hydroph_interaction:PHE:76    0.0
hydroph_interaction:PHE:76      0
Name: 95, dtype: object

>  <hbond:SER:77>  (96) 
hbond:SER:77    0.0
hbond:SER:77      0
Name: 95, dtype: object

>  <hbond:SER:80>  (96) 
hbond:SER:80    0.0
hbond:SER:80      0
Name: 95, dtype: object

>  <hbond:LEU:81>  (96) 
hbond:LEU:81    0.0
hbond:LEU:81      0
Name: 95, dtype: object

>  <halogenbond:LEU:81>  (96) 
halogenbond:LEU:81    0.0
halogenbond:LEU:81      0
Name: 95, dtype: object

>  <hydroph_interaction:LEU:81>  (96) 
hydroph_interaction:LEU:81    0.0
hydroph_interaction:LEU:81      0
Name: 95, dtype: object

>  <hydroph_interaction:ILE:82>  (96) 
hydroph_interaction:ILE:82    0.0
hydroph_interaction:ILE:82      0
Name: 95, dtype: object

>  <halogenbond:ILE:82>  (96) 
halogenbond:ILE:82    NaN
halogenbond:ILE:82     -1
Name: 95, dtype: object

>  <hbond:ILE:82>  (96) 
hbond:ILE:82    0.0
hbond:ILE:82      0
Name: 95, dtype: object

>  <hbond:PHE:83>  (96) 
hbond:PHE:83    0.0
hbond:PHE:83      0
Name: 95, dtype: object

>  <hydroph_interaction:PHE:83>  (96) 
hydroph_interaction:PHE:83    0.0
hydroph_interaction:PHE:83      0
Name: 95, dtype: object

>  <halogenbond:PHE:83>  (96) 
halogenbond:PHE:83    0.0
halogenbond:PHE:83      0
Name: 95, dtype: object

>  <pistack:PHE:83>  (96) 
pistack:PHE:83    0.0
pistack:PHE:83      0
Name: 95, dtype: object

>  <pication:PHE:83>  (96) 
pication:PHE:83    NaN
pication:PHE:83     -1
Name: 95, dtype: object

>  <hydroph_interaction:VAL:84>  (96) 
hydroph_interaction:VAL:84    0.0
hydroph_interaction:VAL:84      0
Name: 95, dtype: object

>  <halogenbond:VAL:84>  (96) 
halogenbond:VAL:84    0.0
halogenbond:VAL:84      0
Name: 95, dtype: object

>  <hbond:VAL:84>  (96) 
hbond:VAL:84    0.0
hbond:VAL:84      0
Name: 95, dtype: object

>  <hydroph_interaction:GLU:85>  (96) 
hydroph_interaction:GLU:85    0.0
hydroph_interaction:GLU:85      0
Name: 95, dtype: object

>  <hbond:GLU:85>  (96) 
hbond:GLU:85    0.0
hbond:GLU:85      0
Name: 95, dtype: object

>  <halogenbond:GLU:85>  (96) 
halogenbond:GLU:85    0.0
halogenbond:GLU:85      0
Name: 95, dtype: object

>  <saltbridge:GLU:85>  (96) 
saltbridge:GLU:85    0.0
saltbridge:GLU:85      0
Name: 95, dtype: object

>  <halogenbond:ALA:86>  (96) 
halogenbond:ALA:86    0.0
halogenbond:ALA:86      0
Name: 95, dtype: object

>  <hbond:ALA:86>  (96) 
hbond:ALA:86    0.0
hbond:ALA:86      0
Name: 95, dtype: object

>  <hydroph_interaction:ALA:86>  (96) 
hydroph_interaction:ALA:86    0.0
hydroph_interaction:ALA:86      0
Name: 95, dtype: object

>  <hbond:SER:87>  (96) 
hbond:SER:87    2
hbond:SER:87    2
Name: 95, dtype: object

>  <halogenbond:SER:87>  (96) 
halogenbond:SER:87    0.0
halogenbond:SER:87      0
Name: 95, dtype: object

>  <hbond:GLU:88>  (96) 
hbond:GLU:88    1.0
hbond:GLU:88      1
Name: 95, dtype: object

>  <hydroph_interaction:GLU:88>  (96) 
hydroph_interaction:GLU:88    0.0
hydroph_interaction:GLU:88      0
Name: 95, dtype: object

>  <halogenbond:GLU:88>  (96) 
halogenbond:GLU:88    0.0
halogenbond:GLU:88      0
Name: 95, dtype: object

>  <saltbridge:GLU:88>  (96) 
saltbridge:GLU:88    0.0
saltbridge:GLU:88      0
Name: 95, dtype: object

>  <hydroph_interaction:TYR:89>  (96) 
hydroph_interaction:TYR:89    1.0
hydroph_interaction:TYR:89      1
Name: 95, dtype: object

>  <pistack:TYR:89>  (96) 
pistack:TYR:89    0.0
pistack:TYR:89      0
Name: 95, dtype: object

>  <hbond:TYR:89>  (96) 
hbond:TYR:89    0.0
hbond:TYR:89      0
Name: 95, dtype: object

>  <halogenbond:TYR:89>  (96) 
halogenbond:TYR:89    0.0
halogenbond:TYR:89      0
Name: 95, dtype: object

>  <hydroph_interaction:TYR:90>  (96) 
hydroph_interaction:TYR:90    2.0
hydroph_interaction:TYR:90      2
Name: 95, dtype: object

>  <hbond:TYR:90>  (96) 
hbond:TYR:90    0.0
hbond:TYR:90      0
Name: 95, dtype: object

>  <pistack:TYR:90>  (96) 
pistack:TYR:90    0.0
pistack:TYR:90      0
Name: 95, dtype: object

>  <halogenbond:TYR:90>  (96) 
halogenbond:TYR:90    0.0
halogenbond:TYR:90      0
Name: 95, dtype: object

>  <pication:TYR:90>  (96) 
pication:TYR:90    0.0
pication:TYR:90      0
Name: 95, dtype: object

>  <hbond:PRO:91>  (96) 
hbond:PRO:91    0.0
hbond:PRO:91      0
Name: 95, dtype: object

>  <hydroph_interaction:PRO:91>  (96) 
hydroph_interaction:PRO:91    0.0
hydroph_interaction:PRO:91      0
Name: 95, dtype: object

>  <halogenbond:PRO:91>  (96) 
halogenbond:PRO:91    0.0
halogenbond:PRO:91      0
Name: 95, dtype: object

>  <hbond:ALA:92>  (96) 
hbond:ALA:92    NaN
hbond:ALA:92     -1
Name: 95, dtype: object

>  <hydroph_interaction:ALA:92>  (96) 
hydroph_interaction:ALA:92    0.0
hydroph_interaction:ALA:92      0
Name: 95, dtype: object

>  <saltbridge:ARG:93>  (96) 
saltbridge:ARG:93    0.0
saltbridge:ARG:93      0
Name: 95, dtype: object

>  <hbond:ARG:93>  (96) 
hbond:ARG:93    0.0
hbond:ARG:93      0
Name: 95, dtype: object

>  <hydroph_interaction:ARG:93>  (96) 
hydroph_interaction:ARG:93    0.0
hydroph_interaction:ARG:93      0
Name: 95, dtype: object

>  <halogenbond:ARG:93>  (96) 
halogenbond:ARG:93    0.0
halogenbond:ARG:93      0
Name: 95, dtype: object

>  <pication:ARG:93>  (96) 
pication:ARG:93    0.0
pication:ARG:93      0
Name: 95, dtype: object

>  <hydroph_interaction:TYR:94>  (96) 
hydroph_interaction:TYR:94    0.0
hydroph_interaction:TYR:94      0
Name: 95, dtype: object

>  <pistack:TYR:94>  (96) 
pistack:TYR:94    NaN
pistack:TYR:94     -1
Name: 95, dtype: object

>  <hbond:TYR:94>  (96) 
hbond:TYR:94    0.0
hbond:TYR:94      0
Name: 95, dtype: object

>  <hbond:GLN:95>  (96) 
hbond:GLN:95    0.0
hbond:GLN:95      0
Name: 95, dtype: object

>  <hydroph_interaction:GLN:95>  (96) 
hydroph_interaction:GLN:95    0.0
hydroph_interaction:GLN:95      0
Name: 95, dtype: object

>  <halogenbond:GLN:95>  (96) 
halogenbond:GLN:95    0.0
halogenbond:GLN:95      0
Name: 95, dtype: object

>  <hbond:SER:96>  (96) 
hbond:SER:96    0.0
hbond:SER:96      0
Name: 95, dtype: object

>  <halogenbond:HIS:97>  (96) 
halogenbond:HIS:97    NaN
halogenbond:HIS:97     -1
Name: 95, dtype: object

>  <hydroph_interaction:LEU:98>  (96) 
hydroph_interaction:LEU:98    0.0
hydroph_interaction:LEU:98      0
Name: 95, dtype: object

>  <hbond:LEU:98>  (96) 
hbond:LEU:98    0.0
hbond:LEU:98      0
Name: 95, dtype: object

>  <halogenbond:LEU:98>  (96) 
halogenbond:LEU:98    NaN
halogenbond:LEU:98     -1
Name: 95, dtype: object

>  <hbond:MET:99>  (96) 
hbond:MET:99    0.0
hbond:MET:99      0
Name: 95, dtype: object

>  <hydroph_interaction:MET:99>  (96) 
hydroph_interaction:MET:99    0.0
hydroph_interaction:MET:99      0
Name: 95, dtype: object

>  <halogenbond:MET:99>  (96) 
halogenbond:MET:99    0.0
halogenbond:MET:99      0
Name: 95, dtype: object

>  <hydroph_interaction:LEU:100>  (96) 
hydroph_interaction:LEU:100    0.0
hydroph_interaction:LEU:100      0
Name: 95, dtype: object

>  <hbond:LEU:100>  (96) 
hbond:LEU:100    0.0
hbond:LEU:100      0
Name: 95, dtype: object

>  <hbond:ALA:101>  (96) 
hbond:ALA:101    0.0
hbond:ALA:101      0
Name: 95, dtype: object

>  <hydroph_interaction:ALA:101>  (96) 
hydroph_interaction:ALA:101    0.0
hydroph_interaction:ALA:101      0
Name: 95, dtype: object

>  <hydroph_interaction:VAL:102>  (96) 
hydroph_interaction:VAL:102    0.0
hydroph_interaction:VAL:102      0
Name: 95, dtype: object

>  <hbond:VAL:102>  (96) 
hbond:VAL:102    0.0
hbond:VAL:102      0
Name: 95, dtype: object

>  <hbond:GLY:103>  (96) 
hbond:GLY:103    0.0
hbond:GLY:103      0
Name: 95, dtype: object

>  <halogenbond:GLY:103>  (96) 
halogenbond:GLY:103    0.0
halogenbond:GLY:103      0
Name: 95, dtype: object

>  <hbond:HIS:104>  (96) 
hbond:HIS:104    0.0
hbond:HIS:104      0
Name: 95, dtype: object

>  <saltbridge:HIS:104>  (96) 
saltbridge:HIS:104    0.0
saltbridge:HIS:104      0
Name: 95, dtype: object

>  <pication:HIS:104>  (96) 
pication:HIS:104    0.0
pication:HIS:104      0
Name: 95, dtype: object

>  <halogenbond:HIS:104>  (96) 
halogenbond:HIS:104    0.0
halogenbond:HIS:104      0
Name: 95, dtype: object

>  <hydroph_interaction:HIS:104>  (96) 
hydroph_interaction:HIS:104    0.0
hydroph_interaction:HIS:104      0
Name: 95, dtype: object

>  <pistack:HIS:104>  (96) 
pistack:HIS:104    0.0
pistack:HIS:104      0
Name: 95, dtype: object

>  <halogenbond:SER:105>  (96) 
halogenbond:SER:105    0.0
halogenbond:SER:105      0
Name: 95, dtype: object

>  <hbond:SER:105>  (96) 
hbond:SER:105    0.0
hbond:SER:105      0
Name: 95, dtype: object

>  <hbond:GLU:106>  (96) 
hbond:GLU:106    0.0
hbond:GLU:106      0
Name: 95, dtype: object

>  <hydroph_interaction:GLU:106>  (96) 
hydroph_interaction:GLU:106    0.0
hydroph_interaction:GLU:106      0
Name: 95, dtype: object

>  <saltbridge:GLU:106>  (96) 
saltbridge:GLU:106    0.0
saltbridge:GLU:106      0
Name: 95, dtype: object

>  <halogenbond:GLU:106>  (96) 
halogenbond:GLU:106    0.0
halogenbond:GLU:106      0
Name: 95, dtype: object

>  <hydroph_interaction:PRO:107>  (96) 
hydroph_interaction:PRO:107    1
hydroph_interaction:PRO:107    1
Name: 95, dtype: object

>  <hbond:PRO:107>  (96) 
hbond:PRO:107    0.0
hbond:PRO:107      0
Name: 95, dtype: object

>  <halogenbond:PRO:107>  (96) 
halogenbond:PRO:107    0.0
halogenbond:PRO:107      0
Name: 95, dtype: object

>  <hbond:GLY:108>  (96) 
hbond:GLY:108    0.0
hbond:GLY:108      0
Name: 95, dtype: object

>  <halogenbond:GLY:108>  (96) 
halogenbond:GLY:108    0.0
halogenbond:GLY:108      0
Name: 95, dtype: object

>  <hbond:ASP:109>  (96) 
hbond:ASP:109    0.0
hbond:ASP:109      0
Name: 95, dtype: object

>  <hydroph_interaction:ASP:109>  (96) 
hydroph_interaction:ASP:109    0.0
hydroph_interaction:ASP:109      0
Name: 95, dtype: object

>  <saltbridge:ASP:109>  (96) 
saltbridge:ASP:109    0.0
saltbridge:ASP:109      0
Name: 95, dtype: object

>  <halogenbond:CYS:110>  (96) 
halogenbond:CYS:110    0.0
halogenbond:CYS:110      0
Name: 95, dtype: object

>  <hbond:CYS:110>  (96) 
hbond:CYS:110    0.0
hbond:CYS:110      0
Name: 95, dtype: object

>  <hbond:GLY:111>  (96) 
hbond:GLY:111    0.0
hbond:GLY:111      0
Name: 95, dtype: object

>  <hbond:GLY:112>  (96) 
hbond:GLY:112    0.0
hbond:GLY:112      0
Name: 95, dtype: object

>  <hbond:ILE:113>  (96) 
hbond:ILE:113    0.0
hbond:ILE:113      0
Name: 95, dtype: object

>  <hydroph_interaction:LEU:114>  (96) 
hydroph_interaction:LEU:114    0.0
hydroph_interaction:LEU:114      0
Name: 95, dtype: object

>  <hbond:LEU:114>  (96) 
hbond:LEU:114    0.0
hbond:LEU:114      0
Name: 95, dtype: object

>  <hydroph_interaction:ILE:123>  (96) 
hydroph_interaction:ILE:123    0.0
hydroph_interaction:ILE:123      0
Name: 95, dtype: object

>  <hbond:ILE:123>  (96) 
hbond:ILE:123    0.0
hbond:ILE:123      0
Name: 95, dtype: object

>  <hydroph_interaction:VAL:124>  (96) 
hydroph_interaction:VAL:124    1.0
hydroph_interaction:VAL:124      1
Name: 95, dtype: object

>  <hbond:VAL:124>  (96) 
hbond:VAL:124    0.0
hbond:VAL:124      0
Name: 95, dtype: object

>  <halogenbond:VAL:124>  (96) 
halogenbond:VAL:124    0.0
halogenbond:VAL:124      0
Name: 95, dtype: object

>  <hbond:SER:125>  (96) 
hbond:SER:125    0
hbond:SER:125    0
Name: 95, dtype: object

>  <halogenbond:SER:125>  (96) 
halogenbond:SER:125    0.0
halogenbond:SER:125      0
Name: 95, dtype: object

>  <hydroph_interaction:THR:126>  (96) 
hydroph_interaction:THR:126    0.0
hydroph_interaction:THR:126      0
Name: 95, dtype: object

>  <hbond:THR:126>  (96) 
hbond:THR:126    0.0
hbond:THR:126      0
Name: 95, dtype: object

>  <halogenbond:THR:126>  (96) 
halogenbond:THR:126    0.0
halogenbond:THR:126      0
Name: 95, dtype: object

>  <hbond:GLY:127>  (96) 
hbond:GLY:127    0
hbond:GLY:127    0
Name: 95, dtype: object

>  <halogenbond:GLY:127>  (96) 
halogenbond:GLY:127    0.0
halogenbond:GLY:127      0
Name: 95, dtype: object

>  <hydroph_interaction:GLY:127>  (96) 
hydroph_interaction:GLY:127    0.0
hydroph_interaction:GLY:127      0
Name: 95, dtype: object

>  <hbond:GLY:128>  (96) 
hbond:GLY:128    0.0
hbond:GLY:128      0
Name: 95, dtype: object

>  <halogenbond:GLY:128>  (96) 
halogenbond:GLY:128    0.0
halogenbond:GLY:128      0
Name: 95, dtype: object

>  <hydroph_interaction:GLY:128>  (96) 
hydroph_interaction:GLY:128    0.0
hydroph_interaction:GLY:128      0
Name: 95, dtype: object

>  <hbond:ASN:129>  (96) 
hbond:ASN:129    0.0
hbond:ASN:129      0
Name: 95, dtype: object

>  <hydroph_interaction:ASN:129>  (96) 
hydroph_interaction:ASN:129    0.0
hydroph_interaction:ASN:129      0
Name: 95, dtype: object

>  <halogenbond:ASN:129>  (96) 
halogenbond:ASN:129    0.0
halogenbond:ASN:129      0
Name: 95, dtype: object

>  <hbond:GLY:130>  (96) 
hbond:GLY:130    0.0
hbond:GLY:130      0
Name: 95, dtype: object

>  <hbond:LEU:131>  (96) 
hbond:LEU:131    0.0
hbond:LEU:131      0
Name: 95, dtype: object

>  <hydroph_interaction:LEU:131>  (96) 
hydroph_interaction:LEU:131    0.0
hydroph_interaction:LEU:131      0
Name: 95, dtype: object

>  <halogenbond:LEU:131>  (96) 
halogenbond:LEU:131    0.0
halogenbond:LEU:131      0
Name: 95, dtype: object

>  <hydroph_interaction:VAL:132>  (96) 
hydroph_interaction:VAL:132    0.0
hydroph_interaction:VAL:132      0
Name: 95, dtype: object

>  <hbond:VAL:132>  (96) 
hbond:VAL:132    0.0
hbond:VAL:132      0
Name: 95, dtype: object

>  <hbond:GLY:133>  (96) 
hbond:GLY:133    0.0
hbond:GLY:133      0
Name: 95, dtype: object

>  <halogenbond:GLY:133>  (96) 
halogenbond:GLY:133    0.0
halogenbond:GLY:133      0
Name: 95, dtype: object

>  <hydroph_interaction:PHE:134>  (96) 
hydroph_interaction:PHE:134    0.0
hydroph_interaction:PHE:134      0
Name: 95, dtype: object

>  <hbond:PHE:134>  (96) 
hbond:PHE:134    0.0
hbond:PHE:134      0
Name: 95, dtype: object

>  <pistack:PHE:134>  (96) 
pistack:PHE:134    0.0
pistack:PHE:134      0
Name: 95, dtype: object

>  <pication:PHE:134>  (96) 
pication:PHE:134    0.0
pication:PHE:134      0
Name: 95, dtype: object

>  <halogenbond:PHE:134>  (96) 
halogenbond:PHE:134    NaN
halogenbond:PHE:134     -1
Name: 95, dtype: object

>  <hydroph_interaction:ALA:135>  (96) 
hydroph_interaction:ALA:135    0.0
hydroph_interaction:ALA:135      0
Name: 95, dtype: object

>  <hbond:ALA:135>  (96) 
hbond:ALA:135    0.0
hbond:ALA:135      0
Name: 95, dtype: object

$$$$
PV_005597406472
     RDKit          3D

 32 33  0  0  0  0  0  0  0  0999 V2000
    9.8810    9.0760   22.6880 C   0  0  0  0  0  0  0  0  0  0  0  0
    9.5950   10.3710   23.2390 N   0  0  0  0  0  0  0  0  0  0  0  0
    8.6710   10.6820   24.1950 C   0  0  0  0  0  0  0  0  0  0  0  0
    8.7410   12.0390   24.4110 C   0  0  0  0  0  0  0  0  0  0  0  0
    9.7440   12.5870   23.5620 C   0  0  0  0  0  0  0  0  0  0  0  0
   10.2060   13.8840   23.3910 C   0  0  0  0  0  0  0  0  0  0  0  0
   11.3050   14.0720   22.6100 N   0  0  0  0  0  0  0  0  0  0  0  0
   11.1450   14.5150   21.3250 C   0  0  0  0  0  0  0  0  0  0  0  0
   12.2060   14.7600   20.4640 N   0  0  0  0  0  0  0  0  0  0  0  0
    9.9380   14.7610   20.7130 N   0  0  0  0  0  0  0  0  0  0  0  0
    9.5230   15.7970   19.8440 C   0  0  0  0  0  0  0  0  0  0  0  0
   10.0850   15.8610   18.5970 C   0  0  0  0  0  0  0  0  0  0  0  0
    9.6550   16.8700   17.7520 C   0  0  0  0  0  0  0  0  0  0  0  0
    8.7110   17.7880   18.1230 C   0  0  0  0  0  0  0  0  0  0  0  0
    8.1880   17.6920   19.3770 C   0  0  0  0  0  0  0  0  0  0  0  0
    8.5960   16.7030   20.2000 N   0  0  0  0  0  0  0  0  0  0  0  0
   10.2310   11.5070   22.8650 C   0  0  0  0  0  0  0  0  0  0  0  0
   10.4820    8.5070   23.3940 H   0  0  0  0  0  0  0  0  0  0  0  0
    8.9480    8.5610   22.4880 H   0  0  0  0  0  0  0  0  0  0  0  0
   10.4240    9.2190   21.7530 H   0  0  0  0  0  0  0  0  0  0  0  0
    8.0400    9.9210   24.6410 H   0  0  0  0  0  0  0  0  0  0  0  0
    8.1280   12.5860   25.1150 H   0  0  0  0  0  0  0  0  0  0  0  0
   10.2970   14.4810   24.2910 H   0  0  0  0  0  0  0  0  0  0  0  0
    9.4160   14.3940   22.8350 H   0  0  0  0  0  0  0  0  0  0  0  0
   12.4990   13.8940   20.0160 H   0  0  0  0  0  0  0  0  0  0  0  0
   13.0080   15.1490   20.9410 H   0  0  0  0  0  0  0  0  0  0  0  0
    9.1510   14.4020   21.2300 H   0  0  0  0  0  0  0  0  0  0  0  0
   10.8370   15.1470   18.2740 H   0  0  0  0  0  0  0  0  0  0  0  0
   10.0200   17.0120   16.7490 H   0  0  0  0  0  0  0  0  0  0  0  0
    8.3870   18.5620   17.4640 H   0  0  0  0  0  0  0  0  0  0  0  0
    7.4460   18.3300   19.8330 H   0  0  0  0  0  0  0  0  0  0  0  0
   11.0050   11.4710   22.1130 H   0  0  0  0  0  0  0  0  0  0  0  0
  1  2  1  0
  2  3  1  0
  3  4  2  0
  4  5  1  0
  5  6  1  0
  6  7  1  0
  7  8  2  3
  8  9  1  0
  8 10  1  0
 10 11  1  0
 11 12  2  0
 12 13  1  0
 13 14  2  0
 14 15  1  0
 15 16  2  0
  5 17  2  0
 17  2  1  0
 16 11  1  0
  1 18  1  0
  1 19  1  0
  1 20  1  0
  3 21  1  0
  4 22  1  0
  6 23  1  0
  6 24  1  0
  9 25  1  0
  9 26  1  0
 10 27  1  0
 12 28  1  0
 13 29  1  0
 14 30  1  0
 15 31  1  0
 17 32  1  0
A    1
 C1 
A    2
 N1 
A    3
 C2 
A    4
 C3 
A    5
 C4 
A    6
 C5 
A    7
 N2 
A    8
 C6 
A    9
 N3 
A   10
 N4 
A   11
 C7 
A   12
 C8 
A   13
 C9 
A   14
 C10
A   15
 C11
A   16
 N5 
A   17
 C12
A   18
 H1 
A   19
 H2 
A   20
 H3 
A   21
 H4 
A   22
 H5 
A   23
 H6 
A   24
 H7 
A   25
 H8 
A   26
 H9 
A   27
 H10
A   28
 H11
A   29
 H12
A   30
 H13
A   31
 H14
A   32
 H15
M  END
>  <ref_pdb>  (97) 
x0310_0A

>  <ref_mols>  (97) 
x0451_0A,x0416_0A

>  <original SMILES>  (97) 
Cn1ccc(CN=C(N)Nc2ccccn2)c1

>  <rationale>  (97) 
info halogenbond:I82+H97+F134+L98+S66; hbond:S87+D39+A92+S37; hydroph_interaction:V84+Y90+T126+P107+R93+V18; pication:H21+Y63+F83; pistack:Y94; 

>  <intxn_cluster>  (97) 
206

>  <intxn_cluster_rank>  (97) 
2

>  <N_interactions>  (97) 
9

>  <∆∆G>  (97) 
-9.493793

>  <$/mg>  (97) 
163.0

>  <comRMSD>  (97) 
0.860075

>  <N_rotatable_bonds>  (97) 
4

>  <deep_P1_sidechain>  (97) 
False

>  <farthest_distance_to_substrate>  (97) 
2.310476

>  <hbond:SER:7>  (97) 
hbond:SER:7    0.0
hbond:SER:7      0
Name: 96, dtype: object

>  <halogenbond:SER:7>  (97) 
halogenbond:SER:7    0.0
halogenbond:SER:7      0
Name: 96, dtype: object

>  <hbond:GLY:8>  (97) 
hbond:GLY:8    0.0
hbond:GLY:8      0
Name: 96, dtype: object

>  <hydroph_interaction:VAL:18>  (97) 
hydroph_interaction:VAL:18    NaN
hydroph_interaction:VAL:18     -1
Name: 96, dtype: object

>  <hbond:ASN:19>  (97) 
hbond:ASN:19    0.0
hbond:ASN:19      0
Name: 96, dtype: object

>  <hydroph_interaction:ASN:19>  (97) 
hydroph_interaction:ASN:19    0.0
hydroph_interaction:ASN:19      0
Name: 96, dtype: object

>  <halogenbond:ASN:19>  (97) 
halogenbond:ASN:19    0.0
halogenbond:ASN:19      0
Name: 96, dtype: object

>  <hbond:ARG:20>  (97) 
hbond:ARG:20    0.0
hbond:ARG:20      0
Name: 96, dtype: object

>  <hydroph_interaction:ARG:20>  (97) 
hydroph_interaction:ARG:20    0.0
hydroph_interaction:ARG:20      0
Name: 96, dtype: object

>  <saltbridge:ARG:20>  (97) 
saltbridge:ARG:20    0.0
saltbridge:ARG:20      0
Name: 96, dtype: object

>  <halogenbond:ARG:20>  (97) 
halogenbond:ARG:20    0.0
halogenbond:ARG:20      0
Name: 96, dtype: object

>  <pication:ARG:20>  (97) 
pication:ARG:20    0.0
pication:ARG:20      0
Name: 96, dtype: object

>  <hbond:HIS:21>  (97) 
hbond:HIS:21    0.0
hbond:HIS:21      0
Name: 96, dtype: object

>  <hydroph_interaction:HIS:21>  (97) 
hydroph_interaction:HIS:21    0.0
hydroph_interaction:HIS:21      0
Name: 96, dtype: object

>  <pistack:HIS:21>  (97) 
pistack:HIS:21    0.0
pistack:HIS:21      0
Name: 96, dtype: object

>  <pication:HIS:21>  (97) 
pication:HIS:21    1.0
pication:HIS:21      1
Name: 96, dtype: object

>  <saltbridge:HIS:21>  (97) 
saltbridge:HIS:21    0.0
saltbridge:HIS:21      0
Name: 96, dtype: object

>  <halogenbond:HIS:21>  (97) 
halogenbond:HIS:21    0.0
halogenbond:HIS:21      0
Name: 96, dtype: object

>  <hydroph_interaction:LEU:22>  (97) 
hydroph_interaction:LEU:22    0.0
hydroph_interaction:LEU:22      0
Name: 96, dtype: object

>  <hbond:LEU:22>  (97) 
hbond:LEU:22    0.0
hbond:LEU:22      0
Name: 96, dtype: object

>  <hydroph_interaction:TRP:28>  (97) 
hydroph_interaction:TRP:28    0.0
hydroph_interaction:TRP:28      0
Name: 96, dtype: object

>  <hbond:SER:36>  (97) 
hbond:SER:36    0.0
hbond:SER:36      0
Name: 96, dtype: object

>  <halogenbond:SER:36>  (97) 
halogenbond:SER:36    0.0
halogenbond:SER:36      0
Name: 96, dtype: object

>  <hbond:SER:37>  (97) 
hbond:SER:37    NaN
hbond:SER:37     -1
Name: 96, dtype: object

>  <hbond:ARG:38>  (97) 
hbond:ARG:38    0.0
hbond:ARG:38      0
Name: 96, dtype: object

>  <halogenbond:ARG:38>  (97) 
halogenbond:ARG:38    0.0
halogenbond:ARG:38      0
Name: 96, dtype: object

>  <saltbridge:ASP:39>  (97) 
saltbridge:ASP:39    0.0
saltbridge:ASP:39      0
Name: 96, dtype: object

>  <halogenbond:ASP:39>  (97) 
halogenbond:ASP:39    0.0
halogenbond:ASP:39      0
Name: 96, dtype: object

>  <hbond:ASP:39>  (97) 
hbond:ASP:39    1.0
hbond:ASP:39      1
Name: 96, dtype: object

>  <hydroph_interaction:ASP:39>  (97) 
hydroph_interaction:ASP:39    0.0
hydroph_interaction:ASP:39      0
Name: 96, dtype: object

>  <hydroph_interaction:LEU:40>  (97) 
hydroph_interaction:LEU:40    0.0
hydroph_interaction:LEU:40      0
Name: 96, dtype: object

>  <hydroph_interaction:TYR:63>  (97) 
hydroph_interaction:TYR:63    0.0
hydroph_interaction:TYR:63      0
Name: 96, dtype: object

>  <hbond:TYR:63>  (97) 
hbond:TYR:63    0.0
hbond:TYR:63      0
Name: 96, dtype: object

>  <pistack:TYR:63>  (97) 
pistack:TYR:63    0.0
pistack:TYR:63      0
Name: 96, dtype: object

>  <pication:TYR:63>  (97) 
pication:TYR:63    NaN
pication:TYR:63     -1
Name: 96, dtype: object

>  <halogenbond:TYR:64>  (97) 
halogenbond:TYR:64    0.0
halogenbond:TYR:64      0
Name: 96, dtype: object

>  <hbond:TYR:64>  (97) 
hbond:TYR:64    0.0
hbond:TYR:64      0
Name: 96, dtype: object

>  <hydroph_interaction:TYR:64>  (97) 
hydroph_interaction:TYR:64    0.0
hydroph_interaction:TYR:64      0
Name: 96, dtype: object

>  <halogenbond:CYS:65>  (97) 
halogenbond:CYS:65    0.0
halogenbond:CYS:65      0
Name: 96, dtype: object

>  <hbond:CYS:65>  (97) 
hbond:CYS:65    0.0
hbond:CYS:65      0
Name: 96, dtype: object

>  <hbond:SER:66>  (97) 
hbond:SER:66    0.0
hbond:SER:66      0
Name: 96, dtype: object

>  <halogenbond:SER:66>  (97) 
halogenbond:SER:66    NaN
halogenbond:SER:66     -1
Name: 96, dtype: object

>  <hbond:SER:67>  (97) 
hbond:SER:67    0.0
hbond:SER:67      0
Name: 96, dtype: object

>  <halogenbond:SER:67>  (97) 
halogenbond:SER:67    0.0
halogenbond:SER:67      0
Name: 96, dtype: object

>  <hbond:ARG:68>  (97) 
hbond:ARG:68    0.0
hbond:ARG:68      0
Name: 96, dtype: object

>  <saltbridge:ARG:68>  (97) 
saltbridge:ARG:68    0.0
saltbridge:ARG:68      0
Name: 96, dtype: object

>  <hydroph_interaction:ARG:68>  (97) 
hydroph_interaction:ARG:68    0.0
hydroph_interaction:ARG:68      0
Name: 96, dtype: object

>  <pication:ARG:68>  (97) 
pication:ARG:68    0.0
pication:ARG:68      0
Name: 96, dtype: object

>  <hydroph_interaction:TYR:72>  (97) 
hydroph_interaction:TYR:72    0.0
hydroph_interaction:TYR:72      0
Name: 96, dtype: object

>  <hydroph_interaction:VAL:74>  (97) 
hydroph_interaction:VAL:74    0.0
hydroph_interaction:VAL:74      0
Name: 96, dtype: object

>  <hydroph_interaction:PHE:76>  (97) 
hydroph_interaction:PHE:76    0.0
hydroph_interaction:PHE:76      0
Name: 96, dtype: object

>  <hbond:SER:77>  (97) 
hbond:SER:77    0.0
hbond:SER:77      0
Name: 96, dtype: object

>  <hbond:SER:80>  (97) 
hbond:SER:80    0.0
hbond:SER:80      0
Name: 96, dtype: object

>  <hbond:LEU:81>  (97) 
hbond:LEU:81    0.0
hbond:LEU:81      0
Name: 96, dtype: object

>  <halogenbond:LEU:81>  (97) 
halogenbond:LEU:81    0.0
halogenbond:LEU:81      0
Name: 96, dtype: object

>  <hydroph_interaction:LEU:81>  (97) 
hydroph_interaction:LEU:81    0.0
hydroph_interaction:LEU:81      0
Name: 96, dtype: object

>  <hydroph_interaction:ILE:82>  (97) 
hydroph_interaction:ILE:82    0.0
hydroph_interaction:ILE:82      0
Name: 96, dtype: object

>  <halogenbond:ILE:82>  (97) 
halogenbond:ILE:82    NaN
halogenbond:ILE:82     -1
Name: 96, dtype: object

>  <hbond:ILE:82>  (97) 
hbond:ILE:82    0.0
hbond:ILE:82      0
Name: 96, dtype: object

>  <hbond:PHE:83>  (97) 
hbond:PHE:83    0.0
hbond:PHE:83      0
Name: 96, dtype: object

>  <hydroph_interaction:PHE:83>  (97) 
hydroph_interaction:PHE:83    0.0
hydroph_interaction:PHE:83      0
Name: 96, dtype: object

>  <halogenbond:PHE:83>  (97) 
halogenbond:PHE:83    0.0
halogenbond:PHE:83      0
Name: 96, dtype: object

>  <pistack:PHE:83>  (97) 
pistack:PHE:83    0.0
pistack:PHE:83      0
Name: 96, dtype: object

>  <pication:PHE:83>  (97) 
pication:PHE:83    NaN
pication:PHE:83     -1
Name: 96, dtype: object

>  <hydroph_interaction:VAL:84>  (97) 
hydroph_interaction:VAL:84    1.0
hydroph_interaction:VAL:84      1
Name: 96, dtype: object

>  <halogenbond:VAL:84>  (97) 
halogenbond:VAL:84    0.0
halogenbond:VAL:84      0
Name: 96, dtype: object

>  <hbond:VAL:84>  (97) 
hbond:VAL:84    0.0
hbond:VAL:84      0
Name: 96, dtype: object

>  <hydroph_interaction:GLU:85>  (97) 
hydroph_interaction:GLU:85    0.0
hydroph_interaction:GLU:85      0
Name: 96, dtype: object

>  <hbond:GLU:85>  (97) 
hbond:GLU:85    0.0
hbond:GLU:85      0
Name: 96, dtype: object

>  <halogenbond:GLU:85>  (97) 
halogenbond:GLU:85    0.0
halogenbond:GLU:85      0
Name: 96, dtype: object

>  <saltbridge:GLU:85>  (97) 
saltbridge:GLU:85    0.0
saltbridge:GLU:85      0
Name: 96, dtype: object

>  <halogenbond:ALA:86>  (97) 
halogenbond:ALA:86    0.0
halogenbond:ALA:86      0
Name: 96, dtype: object

>  <hbond:ALA:86>  (97) 
hbond:ALA:86    0.0
hbond:ALA:86      0
Name: 96, dtype: object

>  <hydroph_interaction:ALA:86>  (97) 
hydroph_interaction:ALA:86    0.0
hydroph_interaction:ALA:86      0
Name: 96, dtype: object

>  <hbond:SER:87>  (97) 
hbond:SER:87    1
hbond:SER:87    1
Name: 96, dtype: object

>  <halogenbond:SER:87>  (97) 
halogenbond:SER:87    0.0
halogenbond:SER:87      0
Name: 96, dtype: object

>  <hbond:GLU:88>  (97) 
hbond:GLU:88    0.0
hbond:GLU:88      0
Name: 96, dtype: object

>  <hydroph_interaction:GLU:88>  (97) 
hydroph_interaction:GLU:88    0.0
hydroph_interaction:GLU:88      0
Name: 96, dtype: object

>  <halogenbond:GLU:88>  (97) 
halogenbond:GLU:88    0.0
halogenbond:GLU:88      0
Name: 96, dtype: object

>  <saltbridge:GLU:88>  (97) 
saltbridge:GLU:88    0.0
saltbridge:GLU:88      0
Name: 96, dtype: object

>  <hydroph_interaction:TYR:89>  (97) 
hydroph_interaction:TYR:89    0.0
hydroph_interaction:TYR:89      0
Name: 96, dtype: object

>  <pistack:TYR:89>  (97) 
pistack:TYR:89    0.0
pistack:TYR:89      0
Name: 96, dtype: object

>  <hbond:TYR:89>  (97) 
hbond:TYR:89    0.0
hbond:TYR:89      0
Name: 96, dtype: object

>  <halogenbond:TYR:89>  (97) 
halogenbond:TYR:89    0.0
halogenbond:TYR:89      0
Name: 96, dtype: object

>  <hydroph_interaction:TYR:90>  (97) 
hydroph_interaction:TYR:90    2.0
hydroph_interaction:TYR:90      2
Name: 96, dtype: object

>  <hbond:TYR:90>  (97) 
hbond:TYR:90    0.0
hbond:TYR:90      0
Name: 96, dtype: object

>  <pistack:TYR:90>  (97) 
pistack:TYR:90    0.0
pistack:TYR:90      0
Name: 96, dtype: object

>  <halogenbond:TYR:90>  (97) 
halogenbond:TYR:90    0.0
halogenbond:TYR:90      0
Name: 96, dtype: object

>  <pication:TYR:90>  (97) 
pication:TYR:90    0.0
pication:TYR:90      0
Name: 96, dtype: object

>  <hbond:PRO:91>  (97) 
hbond:PRO:91    0.0
hbond:PRO:91      0
Name: 96, dtype: object

>  <hydroph_interaction:PRO:91>  (97) 
hydroph_interaction:PRO:91    0.0
hydroph_interaction:PRO:91      0
Name: 96, dtype: object

>  <halogenbond:PRO:91>  (97) 
halogenbond:PRO:91    0.0
halogenbond:PRO:91      0
Name: 96, dtype: object

>  <hbond:ALA:92>  (97) 
hbond:ALA:92    NaN
hbond:ALA:92     -1
Name: 96, dtype: object

>  <hydroph_interaction:ALA:92>  (97) 
hydroph_interaction:ALA:92    0.0
hydroph_interaction:ALA:92      0
Name: 96, dtype: object

>  <saltbridge:ARG:93>  (97) 
saltbridge:ARG:93    0.0
saltbridge:ARG:93      0
Name: 96, dtype: object

>  <hbond:ARG:93>  (97) 
hbond:ARG:93    0.0
hbond:ARG:93      0
Name: 96, dtype: object

>  <hydroph_interaction:ARG:93>  (97) 
hydroph_interaction:ARG:93    1.0
hydroph_interaction:ARG:93      1
Name: 96, dtype: object

>  <halogenbond:ARG:93>  (97) 
halogenbond:ARG:93    0.0
halogenbond:ARG:93      0
Name: 96, dtype: object

>  <pication:ARG:93>  (97) 
pication:ARG:93    0.0
pication:ARG:93      0
Name: 96, dtype: object

>  <hydroph_interaction:TYR:94>  (97) 
hydroph_interaction:TYR:94    0.0
hydroph_interaction:TYR:94      0
Name: 96, dtype: object

>  <pistack:TYR:94>  (97) 
pistack:TYR:94    NaN
pistack:TYR:94     -1
Name: 96, dtype: object

>  <hbond:TYR:94>  (97) 
hbond:TYR:94    0.0
hbond:TYR:94      0
Name: 96, dtype: object

>  <hbond:GLN:95>  (97) 
hbond:GLN:95    0.0
hbond:GLN:95      0
Name: 96, dtype: object

>  <hydroph_interaction:GLN:95>  (97) 
hydroph_interaction:GLN:95    0.0
hydroph_interaction:GLN:95      0
Name: 96, dtype: object

>  <halogenbond:GLN:95>  (97) 
halogenbond:GLN:95    0.0
halogenbond:GLN:95      0
Name: 96, dtype: object

>  <hbond:SER:96>  (97) 
hbond:SER:96    0.0
hbond:SER:96      0
Name: 96, dtype: object

>  <halogenbond:HIS:97>  (97) 
halogenbond:HIS:97    NaN
halogenbond:HIS:97     -1
Name: 96, dtype: object

>  <hydroph_interaction:LEU:98>  (97) 
hydroph_interaction:LEU:98    0.0
hydroph_interaction:LEU:98      0
Name: 96, dtype: object

>  <hbond:LEU:98>  (97) 
hbond:LEU:98    0.0
hbond:LEU:98      0
Name: 96, dtype: object

>  <halogenbond:LEU:98>  (97) 
halogenbond:LEU:98    NaN
halogenbond:LEU:98     -1
Name: 96, dtype: object

>  <hbond:MET:99>  (97) 
hbond:MET:99    0.0
hbond:MET:99      0
Name: 96, dtype: object

>  <hydroph_interaction:MET:99>  (97) 
hydroph_interaction:MET:99    0.0
hydroph_interaction:MET:99      0
Name: 96, dtype: object

>  <halogenbond:MET:99>  (97) 
halogenbond:MET:99    0.0
halogenbond:MET:99      0
Name: 96, dtype: object

>  <hydroph_interaction:LEU:100>  (97) 
hydroph_interaction:LEU:100    0.0
hydroph_interaction:LEU:100      0
Name: 96, dtype: object

>  <hbond:LEU:100>  (97) 
hbond:LEU:100    0.0
hbond:LEU:100      0
Name: 96, dtype: object

>  <hbond:ALA:101>  (97) 
hbond:ALA:101    0.0
hbond:ALA:101      0
Name: 96, dtype: object

>  <hydroph_interaction:ALA:101>  (97) 
hydroph_interaction:ALA:101    0.0
hydroph_interaction:ALA:101      0
Name: 96, dtype: object

>  <hydroph_interaction:VAL:102>  (97) 
hydroph_interaction:VAL:102    0.0
hydroph_interaction:VAL:102      0
Name: 96, dtype: object

>  <hbond:VAL:102>  (97) 
hbond:VAL:102    0.0
hbond:VAL:102      0
Name: 96, dtype: object

>  <hbond:GLY:103>  (97) 
hbond:GLY:103    0.0
hbond:GLY:103      0
Name: 96, dtype: object

>  <halogenbond:GLY:103>  (97) 
halogenbond:GLY:103    0.0
halogenbond:GLY:103      0
Name: 96, dtype: object

>  <hbond:HIS:104>  (97) 
hbond:HIS:104    0.0
hbond:HIS:104      0
Name: 96, dtype: object

>  <saltbridge:HIS:104>  (97) 
saltbridge:HIS:104    0.0
saltbridge:HIS:104      0
Name: 96, dtype: object

>  <pication:HIS:104>  (97) 
pication:HIS:104    0.0
pication:HIS:104      0
Name: 96, dtype: object

>  <halogenbond:HIS:104>  (97) 
halogenbond:HIS:104    0.0
halogenbond:HIS:104      0
Name: 96, dtype: object

>  <hydroph_interaction:HIS:104>  (97) 
hydroph_interaction:HIS:104    0.0
hydroph_interaction:HIS:104      0
Name: 96, dtype: object

>  <pistack:HIS:104>  (97) 
pistack:HIS:104    0.0
pistack:HIS:104      0
Name: 96, dtype: object

>  <halogenbond:SER:105>  (97) 
halogenbond:SER:105    0.0
halogenbond:SER:105      0
Name: 96, dtype: object

>  <hbond:SER:105>  (97) 
hbond:SER:105    0.0
hbond:SER:105      0
Name: 96, dtype: object

>  <hbond:GLU:106>  (97) 
hbond:GLU:106    0.0
hbond:GLU:106      0
Name: 96, dtype: object

>  <hydroph_interaction:GLU:106>  (97) 
hydroph_interaction:GLU:106    0.0
hydroph_interaction:GLU:106      0
Name: 96, dtype: object

>  <saltbridge:GLU:106>  (97) 
saltbridge:GLU:106    0.0
saltbridge:GLU:106      0
Name: 96, dtype: object

>  <halogenbond:GLU:106>  (97) 
halogenbond:GLU:106    0.0
halogenbond:GLU:106      0
Name: 96, dtype: object

>  <hydroph_interaction:PRO:107>  (97) 
hydroph_interaction:PRO:107    1
hydroph_interaction:PRO:107    1
Name: 96, dtype: object

>  <hbond:PRO:107>  (97) 
hbond:PRO:107    0.0
hbond:PRO:107      0
Name: 96, dtype: object

>  <halogenbond:PRO:107>  (97) 
halogenbond:PRO:107    0.0
halogenbond:PRO:107      0
Name: 96, dtype: object

>  <hbond:GLY:108>  (97) 
hbond:GLY:108    0.0
hbond:GLY:108      0
Name: 96, dtype: object

>  <halogenbond:GLY:108>  (97) 
halogenbond:GLY:108    0.0
halogenbond:GLY:108      0
Name: 96, dtype: object

>  <hbond:ASP:109>  (97) 
hbond:ASP:109    0.0
hbond:ASP:109      0
Name: 96, dtype: object

>  <hydroph_interaction:ASP:109>  (97) 
hydroph_interaction:ASP:109    0.0
hydroph_interaction:ASP:109      0
Name: 96, dtype: object

>  <saltbridge:ASP:109>  (97) 
saltbridge:ASP:109    0.0
saltbridge:ASP:109      0
Name: 96, dtype: object

>  <halogenbond:CYS:110>  (97) 
halogenbond:CYS:110    0.0
halogenbond:CYS:110      0
Name: 96, dtype: object

>  <hbond:CYS:110>  (97) 
hbond:CYS:110    0.0
hbond:CYS:110      0
Name: 96, dtype: object

>  <hbond:GLY:111>  (97) 
hbond:GLY:111    0.0
hbond:GLY:111      0
Name: 96, dtype: object

>  <hbond:GLY:112>  (97) 
hbond:GLY:112    0.0
hbond:GLY:112      0
Name: 96, dtype: object

>  <hbond:ILE:113>  (97) 
hbond:ILE:113    0.0
hbond:ILE:113      0
Name: 96, dtype: object

>  <hydroph_interaction:LEU:114>  (97) 
hydroph_interaction:LEU:114    0.0
hydroph_interaction:LEU:114      0
Name: 96, dtype: object

>  <hbond:LEU:114>  (97) 
hbond:LEU:114    0.0
hbond:LEU:114      0
Name: 96, dtype: object

>  <hydroph_interaction:ILE:123>  (97) 
hydroph_interaction:ILE:123    0.0
hydroph_interaction:ILE:123      0
Name: 96, dtype: object

>  <hbond:ILE:123>  (97) 
hbond:ILE:123    0.0
hbond:ILE:123      0
Name: 96, dtype: object

>  <hydroph_interaction:VAL:124>  (97) 
hydroph_interaction:VAL:124    0.0
hydroph_interaction:VAL:124      0
Name: 96, dtype: object

>  <hbond:VAL:124>  (97) 
hbond:VAL:124    0.0
hbond:VAL:124      0
Name: 96, dtype: object

>  <halogenbond:VAL:124>  (97) 
halogenbond:VAL:124    0.0
halogenbond:VAL:124      0
Name: 96, dtype: object

>  <hbond:SER:125>  (97) 
hbond:SER:125    0
hbond:SER:125    0
Name: 96, dtype: object

>  <halogenbond:SER:125>  (97) 
halogenbond:SER:125    0.0
halogenbond:SER:125      0
Name: 96, dtype: object

>  <hydroph_interaction:THR:126>  (97) 
hydroph_interaction:THR:126    1.0
hydroph_interaction:THR:126      1
Name: 96, dtype: object

>  <hbond:THR:126>  (97) 
hbond:THR:126    0.0
hbond:THR:126      0
Name: 96, dtype: object

>  <halogenbond:THR:126>  (97) 
halogenbond:THR:126    0.0
halogenbond:THR:126      0
Name: 96, dtype: object

>  <hbond:GLY:127>  (97) 
hbond:GLY:127    0
hbond:GLY:127    0
Name: 96, dtype: object

>  <halogenbond:GLY:127>  (97) 
halogenbond:GLY:127    0.0
halogenbond:GLY:127      0
Name: 96, dtype: object

>  <hydroph_interaction:GLY:127>  (97) 
hydroph_interaction:GLY:127    0.0
hydroph_interaction:GLY:127      0
Name: 96, dtype: object

>  <hbond:GLY:128>  (97) 
hbond:GLY:128    0.0
hbond:GLY:128      0
Name: 96, dtype: object

>  <halogenbond:GLY:128>  (97) 
halogenbond:GLY:128    0.0
halogenbond:GLY:128      0
Name: 96, dtype: object

>  <hydroph_interaction:GLY:128>  (97) 
hydroph_interaction:GLY:128    0.0
hydroph_interaction:GLY:128      0
Name: 96, dtype: object

>  <hbond:ASN:129>  (97) 
hbond:ASN:129    0.0
hbond:ASN:129      0
Name: 96, dtype: object

>  <hydroph_interaction:ASN:129>  (97) 
hydroph_interaction:ASN:129    0.0
hydroph_interaction:ASN:129      0
Name: 96, dtype: object

>  <halogenbond:ASN:129>  (97) 
halogenbond:ASN:129    0.0
halogenbond:ASN:129      0
Name: 96, dtype: object

>  <hbond:GLY:130>  (97) 
hbond:GLY:130    0.0
hbond:GLY:130      0
Name: 96, dtype: object

>  <hbond:LEU:131>  (97) 
hbond:LEU:131    0.0
hbond:LEU:131      0
Name: 96, dtype: object

>  <hydroph_interaction:LEU:131>  (97) 
hydroph_interaction:LEU:131    0.0
hydroph_interaction:LEU:131      0
Name: 96, dtype: object

>  <halogenbond:LEU:131>  (97) 
halogenbond:LEU:131    0.0
halogenbond:LEU:131      0
Name: 96, dtype: object

>  <hydroph_interaction:VAL:132>  (97) 
hydroph_interaction:VAL:132    0.0
hydroph_interaction:VAL:132      0
Name: 96, dtype: object

>  <hbond:VAL:132>  (97) 
hbond:VAL:132    0.0
hbond:VAL:132      0
Name: 96, dtype: object

>  <hbond:GLY:133>  (97) 
hbond:GLY:133    0.0
hbond:GLY:133      0
Name: 96, dtype: object

>  <halogenbond:GLY:133>  (97) 
halogenbond:GLY:133    0.0
halogenbond:GLY:133      0
Name: 96, dtype: object

>  <hydroph_interaction:PHE:134>  (97) 
hydroph_interaction:PHE:134    0.0
hydroph_interaction:PHE:134      0
Name: 96, dtype: object

>  <hbond:PHE:134>  (97) 
hbond:PHE:134    0.0
hbond:PHE:134      0
Name: 96, dtype: object

>  <pistack:PHE:134>  (97) 
pistack:PHE:134    0.0
pistack:PHE:134      0
Name: 96, dtype: object

>  <pication:PHE:134>  (97) 
pication:PHE:134    0.0
pication:PHE:134      0
Name: 96, dtype: object

>  <halogenbond:PHE:134>  (97) 
halogenbond:PHE:134    NaN
halogenbond:PHE:134     -1
Name: 96, dtype: object

>  <hydroph_interaction:ALA:135>  (97) 
hydroph_interaction:ALA:135    0.0
hydroph_interaction:ALA:135      0
Name: 96, dtype: object

>  <hbond:ALA:135>  (97) 
hbond:ALA:135    0.0
hbond:ALA:135      0
Name: 96, dtype: object

$$$$
PV_006825438282
     RDKit          3D

 42 44  0  0  0  0  0  0  0  0999 V2000
    6.3690   13.8220   25.0990 C   0  0  0  0  0  0  0  0  0  0  0  0
    6.7870   12.8340   25.9810 N   0  0  0  0  0  0  0  0  0  0  0  0
    7.2700   11.5530   25.6180 C   0  0  0  0  0  0  0  0  0  0  0  0
    6.8500   10.5030   26.0530 O   0  0  0  0  0  0  0  0  0  0  0  0
    8.2940   11.3830   24.7040 C   0  0  0  0  0  0  0  0  0  0  0  0
    8.6690   10.0710   24.0220 C   0  0  0  0  0  0  0  0  0  0  0  0
    9.7130   10.0950   23.1020 C   0  0  0  0  0  0  0  0  0  0  0  0
   10.1770    9.0220   22.3840 C   0  0  0  0  0  0  0  0  0  0  0  0
   10.3510   11.2570   22.8590 C   0  0  0  0  0  0  0  0  0  0  0  0
   10.0620   12.4360   23.4660 C   0  0  0  0  0  0  0  0  0  0  0  0
   10.7830   13.5550   23.1330 N   0  0  0  0  0  0  0  0  0  0  0  0
   10.1110   14.1970   22.1900 C   0  0  0  0  0  0  0  0  0  0  0  0
    8.6290   14.1590   22.4460 C   0  0  0  0  0  0  0  0  0  0  0  0
    7.8240   14.8030   21.4770 C   0  0  0  0  0  0  0  0  0  0  0  0
    8.4360   15.3620   20.4580 N   0  0  0  0  0  0  0  0  0  0  0  0
    9.7540   15.3450   20.2770 C   0  0  0  0  0  0  0  0  0  0  0  0
   10.0680   16.0400   18.9450 C   0  0  0  0  0  0  0  0  0  0  0  0
    8.9780   16.9900   18.5180 C   0  0  0  0  0  0  0  0  0  0  0  0
    8.9910   17.7130   17.3600 C   0  0  0  0  0  0  0  0  0  0  0  0
   10.1300   17.5190   16.5570 C   0  0  0  0  0  0  0  0  0  0  0  0
   11.1690   16.6600   16.9080 C   0  0  0  0  0  0  0  0  0  0  0  0
   11.1570   15.9090   18.0960 C   0  0  0  0  0  0  0  0  0  0  0  0
   10.6690   14.7900   21.1120 N   0  0  0  0  0  0  0  0  0  0  0  0
    9.0280   12.5110   24.3880 C   0  0  0  0  0  0  0  0  0  0  0  0
    6.8010   14.7800   25.4050 H   0  0  0  0  0  0  0  0  0  0  0  0
    5.2790   13.8920   25.1420 H   0  0  0  0  0  0  0  0  0  0  0  0
    6.6600   13.5680   24.0790 H   0  0  0  0  0  0  0  0  0  0  0  0
    6.6470   13.0170   26.9660 H   0  0  0  0  0  0  0  0  0  0  0  0
    8.1430    9.1500   24.2310 H   0  0  0  0  0  0  0  0  0  0  0  0
   10.7780    8.3920   23.0470 H   0  0  0  0  0  0  0  0  0  0  0  0
    9.4650    8.4080   21.8610 H   0  0  0  0  0  0  0  0  0  0  0  0
   10.8690    9.3960   21.6290 H   0  0  0  0  0  0  0  0  0  0  0  0
   11.1340   11.2400   22.1390 H   0  0  0  0  0  0  0  0  0  0  0  0
   11.7020   13.3200   22.7580 H   0  0  0  0  0  0  0  0  0  0  0  0
    8.1980   13.6680   23.3220 H   0  0  0  0  0  0  0  0  0  0  0  0
    6.7410   14.8410   21.5640 H   0  0  0  0  0  0  0  0  0  0  0  0
    8.1430   17.0620   19.2200 H   0  0  0  0  0  0  0  0  0  0  0  0
    8.2260   18.4010   17.0090 H   0  0  0  0  0  0  0  0  0  0  0  0
   10.2110   18.0580   15.6190 H   0  0  0  0  0  0  0  0  0  0  0  0
   12.0000   16.5830   16.2300 H   0  0  0  0  0  0  0  0  0  0  0  0
   11.9880   15.2410   18.3280 H   0  0  0  0  0  0  0  0  0  0  0  0
    8.7880   13.4600   24.8640 H   0  0  0  0  0  0  0  0  0  0  0  0
  1  2  1  0
  2  3  1  0
  3  4  2  0
  3  5  1  0
  5  6  2  0
  6  7  1  0
  7  8  1  0
  7  9  2  0
  9 10  1  0
 10 11  1  0
 11 12  1  0
 12 13  2  0
 13 14  1  0
 14 15  2  0
 15 16  1  0
 16 17  1  0
 17 18  2  0
 18 19  1  0
 19 20  2  0
 20 21  1  0
 21 22  2  0
 16 23  2  0
 10 24  2  0
 24  5  1  0
 23 12  1  0
 22 17  1  0
  1 25  1  0
  1 26  1  0
  1 27  1  0
  2 28  1  0
  6 29  1  0
  8 30  1  0
  8 31  1  0
  8 32  1  0
  9 33  1  0
 11 34  1  0
 13 35  1  0
 14 36  1  0
 18 37  1  0
 19 38  1  0
 20 39  1  0
 21 40  1  0
 22 41  1  0
 24 42  1  0
A    1
 C1 
A    2
 N1 
A    3
 C2 
A    4
 O1 
A    5
 C3 
A    6
 C4 
A    7
 C5 
A    8
 C6 
A    9
 C7 
A   10
 C8 
A   11
 N2 
A   12
 C9 
A   13
 C10
A   14
 C11
A   15
 N3 
A   16
 C12
A   17
 C13
A   18
 C14
A   19
 C15
A   20
 C16
A   21
 C17
A   22
 C18
A   23
 N4 
A   24
 C19
A   25
 H1 
A   26
 H2 
A   27
 H3 
A   28
 H4 
A   29
 H5 
A   30
 H6 
A   31
 H7 
A   32
 H8 
A   33
 H9 
A   34
 H10
A   35
 H11
A   36
 H12
A   37
 H13
A   38
 H14
A   39
 H15
A   40
 H16
A   41
 H17
A   42
 H18
M  END
>  <ref_pdb>  (98) 
x0310_0A

>  <ref_mols>  (98) 
x0554_0A,x0739_0A

>  <original SMILES>  (98) 
CNC(=O)c1cc(C)cc(Nc2ccnc(-c3ccccc3)n2)c1

>  <rationale>  (98) 
info halogenbond:I82+H97+F134+L98+S66; hbond:S87+A92+S37; hydroph_interaction:V84+V124+Y90+T126+P107+D39+Q95+R93+V18; pication:Y63+F83; pistack:Y94; 

>  <intxn_cluster>  (98) 
103

>  <intxn_cluster_rank>  (98) 
2

>  <N_interactions>  (98) 
12

>  <∆∆G>  (98) 
-11.564674

>  <$/mg>  (98) 
163.0

>  <comRMSD>  (98) 
0.727574

>  <N_rotatable_bonds>  (98) 
6

>  <deep_P1_sidechain>  (98) 
True

>  <farthest_distance_to_substrate>  (98) 
3.16584

>  <hbond:SER:7>  (98) 
hbond:SER:7    0.0
hbond:SER:7      0
Name: 97, dtype: object

>  <halogenbond:SER:7>  (98) 
halogenbond:SER:7    0.0
halogenbond:SER:7      0
Name: 97, dtype: object

>  <hbond:GLY:8>  (98) 
hbond:GLY:8    0.0
hbond:GLY:8      0
Name: 97, dtype: object

>  <hydroph_interaction:VAL:18>  (98) 
hydroph_interaction:VAL:18    NaN
hydroph_interaction:VAL:18     -1
Name: 97, dtype: object

>  <hbond:ASN:19>  (98) 
hbond:ASN:19    0.0
hbond:ASN:19      0
Name: 97, dtype: object

>  <hydroph_interaction:ASN:19>  (98) 
hydroph_interaction:ASN:19    0.0
hydroph_interaction:ASN:19      0
Name: 97, dtype: object

>  <halogenbond:ASN:19>  (98) 
halogenbond:ASN:19    0.0
halogenbond:ASN:19      0
Name: 97, dtype: object

>  <hbond:ARG:20>  (98) 
hbond:ARG:20    0.0
hbond:ARG:20      0
Name: 97, dtype: object

>  <hydroph_interaction:ARG:20>  (98) 
hydroph_interaction:ARG:20    0.0
hydroph_interaction:ARG:20      0
Name: 97, dtype: object

>  <saltbridge:ARG:20>  (98) 
saltbridge:ARG:20    0.0
saltbridge:ARG:20      0
Name: 97, dtype: object

>  <halogenbond:ARG:20>  (98) 
halogenbond:ARG:20    0.0
halogenbond:ARG:20      0
Name: 97, dtype: object

>  <pication:ARG:20>  (98) 
pication:ARG:20    0.0
pication:ARG:20      0
Name: 97, dtype: object

>  <hbond:HIS:21>  (98) 
hbond:HIS:21    0.0
hbond:HIS:21      0
Name: 97, dtype: object

>  <hydroph_interaction:HIS:21>  (98) 
hydroph_interaction:HIS:21    0.0
hydroph_interaction:HIS:21      0
Name: 97, dtype: object

>  <pistack:HIS:21>  (98) 
pistack:HIS:21    0.0
pistack:HIS:21      0
Name: 97, dtype: object

>  <pication:HIS:21>  (98) 
pication:HIS:21    0.0
pication:HIS:21      0
Name: 97, dtype: object

>  <saltbridge:HIS:21>  (98) 
saltbridge:HIS:21    0.0
saltbridge:HIS:21      0
Name: 97, dtype: object

>  <halogenbond:HIS:21>  (98) 
halogenbond:HIS:21    0.0
halogenbond:HIS:21      0
Name: 97, dtype: object

>  <hydroph_interaction:LEU:22>  (98) 
hydroph_interaction:LEU:22    0.0
hydroph_interaction:LEU:22      0
Name: 97, dtype: object

>  <hbond:LEU:22>  (98) 
hbond:LEU:22    0.0
hbond:LEU:22      0
Name: 97, dtype: object

>  <hydroph_interaction:TRP:28>  (98) 
hydroph_interaction:TRP:28    0.0
hydroph_interaction:TRP:28      0
Name: 97, dtype: object

>  <hbond:SER:36>  (98) 
hbond:SER:36    0.0
hbond:SER:36      0
Name: 97, dtype: object

>  <halogenbond:SER:36>  (98) 
halogenbond:SER:36    0.0
halogenbond:SER:36      0
Name: 97, dtype: object

>  <hbond:SER:37>  (98) 
hbond:SER:37    NaN
hbond:SER:37     -1
Name: 97, dtype: object

>  <hbond:ARG:38>  (98) 
hbond:ARG:38    0.0
hbond:ARG:38      0
Name: 97, dtype: object

>  <halogenbond:ARG:38>  (98) 
halogenbond:ARG:38    0.0
halogenbond:ARG:38      0
Name: 97, dtype: object

>  <saltbridge:ASP:39>  (98) 
saltbridge:ASP:39    0.0
saltbridge:ASP:39      0
Name: 97, dtype: object

>  <halogenbond:ASP:39>  (98) 
halogenbond:ASP:39    0.0
halogenbond:ASP:39      0
Name: 97, dtype: object

>  <hbond:ASP:39>  (98) 
hbond:ASP:39    0.0
hbond:ASP:39      0
Name: 97, dtype: object

>  <hydroph_interaction:ASP:39>  (98) 
hydroph_interaction:ASP:39    1.0
hydroph_interaction:ASP:39      1
Name: 97, dtype: object

>  <hydroph_interaction:LEU:40>  (98) 
hydroph_interaction:LEU:40    0.0
hydroph_interaction:LEU:40      0
Name: 97, dtype: object

>  <hydroph_interaction:TYR:63>  (98) 
hydroph_interaction:TYR:63    0.0
hydroph_interaction:TYR:63      0
Name: 97, dtype: object

>  <hbond:TYR:63>  (98) 
hbond:TYR:63    0.0
hbond:TYR:63      0
Name: 97, dtype: object

>  <pistack:TYR:63>  (98) 
pistack:TYR:63    0.0
pistack:TYR:63      0
Name: 97, dtype: object

>  <pication:TYR:63>  (98) 
pication:TYR:63    NaN
pication:TYR:63     -1
Name: 97, dtype: object

>  <halogenbond:TYR:64>  (98) 
halogenbond:TYR:64    0.0
halogenbond:TYR:64      0
Name: 97, dtype: object

>  <hbond:TYR:64>  (98) 
hbond:TYR:64    0.0
hbond:TYR:64      0
Name: 97, dtype: object

>  <hydroph_interaction:TYR:64>  (98) 
hydroph_interaction:TYR:64    0.0
hydroph_interaction:TYR:64      0
Name: 97, dtype: object

>  <halogenbond:CYS:65>  (98) 
halogenbond:CYS:65    0.0
halogenbond:CYS:65      0
Name: 97, dtype: object

>  <hbond:CYS:65>  (98) 
hbond:CYS:65    0.0
hbond:CYS:65      0
Name: 97, dtype: object

>  <hbond:SER:66>  (98) 
hbond:SER:66    0.0
hbond:SER:66      0
Name: 97, dtype: object

>  <halogenbond:SER:66>  (98) 
halogenbond:SER:66    NaN
halogenbond:SER:66     -1
Name: 97, dtype: object

>  <hbond:SER:67>  (98) 
hbond:SER:67    0.0
hbond:SER:67      0
Name: 97, dtype: object

>  <halogenbond:SER:67>  (98) 
halogenbond:SER:67    0.0
halogenbond:SER:67      0
Name: 97, dtype: object

>  <hbond:ARG:68>  (98) 
hbond:ARG:68    0.0
hbond:ARG:68      0
Name: 97, dtype: object

>  <saltbridge:ARG:68>  (98) 
saltbridge:ARG:68    0.0
saltbridge:ARG:68      0
Name: 97, dtype: object

>  <hydroph_interaction:ARG:68>  (98) 
hydroph_interaction:ARG:68    0.0
hydroph_interaction:ARG:68      0
Name: 97, dtype: object

>  <pication:ARG:68>  (98) 
pication:ARG:68    0.0
pication:ARG:68      0
Name: 97, dtype: object

>  <hydroph_interaction:TYR:72>  (98) 
hydroph_interaction:TYR:72    0.0
hydroph_interaction:TYR:72      0
Name: 97, dtype: object

>  <hydroph_interaction:VAL:74>  (98) 
hydroph_interaction:VAL:74    0.0
hydroph_interaction:VAL:74      0
Name: 97, dtype: object

>  <hydroph_interaction:PHE:76>  (98) 
hydroph_interaction:PHE:76    0.0
hydroph_interaction:PHE:76      0
Name: 97, dtype: object

>  <hbond:SER:77>  (98) 
hbond:SER:77    0.0
hbond:SER:77      0
Name: 97, dtype: object

>  <hbond:SER:80>  (98) 
hbond:SER:80    0.0
hbond:SER:80      0
Name: 97, dtype: object

>  <hbond:LEU:81>  (98) 
hbond:LEU:81    0.0
hbond:LEU:81      0
Name: 97, dtype: object

>  <halogenbond:LEU:81>  (98) 
halogenbond:LEU:81    0.0
halogenbond:LEU:81      0
Name: 97, dtype: object

>  <hydroph_interaction:LEU:81>  (98) 
hydroph_interaction:LEU:81    0.0
hydroph_interaction:LEU:81      0
Name: 97, dtype: object

>  <hydroph_interaction:ILE:82>  (98) 
hydroph_interaction:ILE:82    0.0
hydroph_interaction:ILE:82      0
Name: 97, dtype: object

>  <halogenbond:ILE:82>  (98) 
halogenbond:ILE:82    NaN
halogenbond:ILE:82     -1
Name: 97, dtype: object

>  <hbond:ILE:82>  (98) 
hbond:ILE:82    0.0
hbond:ILE:82      0
Name: 97, dtype: object

>  <hbond:PHE:83>  (98) 
hbond:PHE:83    0.0
hbond:PHE:83      0
Name: 97, dtype: object

>  <hydroph_interaction:PHE:83>  (98) 
hydroph_interaction:PHE:83    0.0
hydroph_interaction:PHE:83      0
Name: 97, dtype: object

>  <halogenbond:PHE:83>  (98) 
halogenbond:PHE:83    0.0
halogenbond:PHE:83      0
Name: 97, dtype: object

>  <pistack:PHE:83>  (98) 
pistack:PHE:83    0.0
pistack:PHE:83      0
Name: 97, dtype: object

>  <pication:PHE:83>  (98) 
pication:PHE:83    NaN
pication:PHE:83     -1
Name: 97, dtype: object

>  <hydroph_interaction:VAL:84>  (98) 
hydroph_interaction:VAL:84    2.0
hydroph_interaction:VAL:84      2
Name: 97, dtype: object

>  <halogenbond:VAL:84>  (98) 
halogenbond:VAL:84    0.0
halogenbond:VAL:84      0
Name: 97, dtype: object

>  <hbond:VAL:84>  (98) 
hbond:VAL:84    0.0
hbond:VAL:84      0
Name: 97, dtype: object

>  <hydroph_interaction:GLU:85>  (98) 
hydroph_interaction:GLU:85    0.0
hydroph_interaction:GLU:85      0
Name: 97, dtype: object

>  <hbond:GLU:85>  (98) 
hbond:GLU:85    0.0
hbond:GLU:85      0
Name: 97, dtype: object

>  <halogenbond:GLU:85>  (98) 
halogenbond:GLU:85    0.0
halogenbond:GLU:85      0
Name: 97, dtype: object

>  <saltbridge:GLU:85>  (98) 
saltbridge:GLU:85    0.0
saltbridge:GLU:85      0
Name: 97, dtype: object

>  <halogenbond:ALA:86>  (98) 
halogenbond:ALA:86    0.0
halogenbond:ALA:86      0
Name: 97, dtype: object

>  <hbond:ALA:86>  (98) 
hbond:ALA:86    0.0
hbond:ALA:86      0
Name: 97, dtype: object

>  <hydroph_interaction:ALA:86>  (98) 
hydroph_interaction:ALA:86    0.0
hydroph_interaction:ALA:86      0
Name: 97, dtype: object

>  <hbond:SER:87>  (98) 
hbond:SER:87    1
hbond:SER:87    1
Name: 97, dtype: object

>  <halogenbond:SER:87>  (98) 
halogenbond:SER:87    0.0
halogenbond:SER:87      0
Name: 97, dtype: object

>  <hbond:GLU:88>  (98) 
hbond:GLU:88    0.0
hbond:GLU:88      0
Name: 97, dtype: object

>  <hydroph_interaction:GLU:88>  (98) 
hydroph_interaction:GLU:88    0.0
hydroph_interaction:GLU:88      0
Name: 97, dtype: object

>  <halogenbond:GLU:88>  (98) 
halogenbond:GLU:88    0.0
halogenbond:GLU:88      0
Name: 97, dtype: object

>  <saltbridge:GLU:88>  (98) 
saltbridge:GLU:88    0.0
saltbridge:GLU:88      0
Name: 97, dtype: object

>  <hydroph_interaction:TYR:89>  (98) 
hydroph_interaction:TYR:89    0.0
hydroph_interaction:TYR:89      0
Name: 97, dtype: object

>  <pistack:TYR:89>  (98) 
pistack:TYR:89    0.0
pistack:TYR:89      0
Name: 97, dtype: object

>  <hbond:TYR:89>  (98) 
hbond:TYR:89    0.0
hbond:TYR:89      0
Name: 97, dtype: object

>  <halogenbond:TYR:89>  (98) 
halogenbond:TYR:89    0.0
halogenbond:TYR:89      0
Name: 97, dtype: object

>  <hydroph_interaction:TYR:90>  (98) 
hydroph_interaction:TYR:90    3.0
hydroph_interaction:TYR:90      3
Name: 97, dtype: object

>  <hbond:TYR:90>  (98) 
hbond:TYR:90    0.0
hbond:TYR:90      0
Name: 97, dtype: object

>  <pistack:TYR:90>  (98) 
pistack:TYR:90    0.0
pistack:TYR:90      0
Name: 97, dtype: object

>  <halogenbond:TYR:90>  (98) 
halogenbond:TYR:90    0.0
halogenbond:TYR:90      0
Name: 97, dtype: object

>  <pication:TYR:90>  (98) 
pication:TYR:90    0.0
pication:TYR:90      0
Name: 97, dtype: object

>  <hbond:PRO:91>  (98) 
hbond:PRO:91    0.0
hbond:PRO:91      0
Name: 97, dtype: object

>  <hydroph_interaction:PRO:91>  (98) 
hydroph_interaction:PRO:91    0.0
hydroph_interaction:PRO:91      0
Name: 97, dtype: object

>  <halogenbond:PRO:91>  (98) 
halogenbond:PRO:91    0.0
halogenbond:PRO:91      0
Name: 97, dtype: object

>  <hbond:ALA:92>  (98) 
hbond:ALA:92    NaN
hbond:ALA:92     -1
Name: 97, dtype: object

>  <hydroph_interaction:ALA:92>  (98) 
hydroph_interaction:ALA:92    0.0
hydroph_interaction:ALA:92      0
Name: 97, dtype: object

>  <saltbridge:ARG:93>  (98) 
saltbridge:ARG:93    0.0
saltbridge:ARG:93      0
Name: 97, dtype: object

>  <hbond:ARG:93>  (98) 
hbond:ARG:93    0.0
hbond:ARG:93      0
Name: 97, dtype: object

>  <hydroph_interaction:ARG:93>  (98) 
hydroph_interaction:ARG:93    1.0
hydroph_interaction:ARG:93      1
Name: 97, dtype: object

>  <halogenbond:ARG:93>  (98) 
halogenbond:ARG:93    0.0
halogenbond:ARG:93      0
Name: 97, dtype: object

>  <pication:ARG:93>  (98) 
pication:ARG:93    0.0
pication:ARG:93      0
Name: 97, dtype: object

>  <hydroph_interaction:TYR:94>  (98) 
hydroph_interaction:TYR:94    0.0
hydroph_interaction:TYR:94      0
Name: 97, dtype: object

>  <pistack:TYR:94>  (98) 
pistack:TYR:94    NaN
pistack:TYR:94     -1
Name: 97, dtype: object

>  <hbond:TYR:94>  (98) 
hbond:TYR:94    0.0
hbond:TYR:94      0
Name: 97, dtype: object

>  <hbond:GLN:95>  (98) 
hbond:GLN:95    0.0
hbond:GLN:95      0
Name: 97, dtype: object

>  <hydroph_interaction:GLN:95>  (98) 
hydroph_interaction:GLN:95    1.0
hydroph_interaction:GLN:95      1
Name: 97, dtype: object

>  <halogenbond:GLN:95>  (98) 
halogenbond:GLN:95    0.0
halogenbond:GLN:95      0
Name: 97, dtype: object

>  <hbond:SER:96>  (98) 
hbond:SER:96    0.0
hbond:SER:96      0
Name: 97, dtype: object

>  <halogenbond:HIS:97>  (98) 
halogenbond:HIS:97    NaN
halogenbond:HIS:97     -1
Name: 97, dtype: object

>  <hydroph_interaction:LEU:98>  (98) 
hydroph_interaction:LEU:98    0.0
hydroph_interaction:LEU:98      0
Name: 97, dtype: object

>  <hbond:LEU:98>  (98) 
hbond:LEU:98    0.0
hbond:LEU:98      0
Name: 97, dtype: object

>  <halogenbond:LEU:98>  (98) 
halogenbond:LEU:98    NaN
halogenbond:LEU:98     -1
Name: 97, dtype: object

>  <hbond:MET:99>  (98) 
hbond:MET:99    0.0
hbond:MET:99      0
Name: 97, dtype: object

>  <hydroph_interaction:MET:99>  (98) 
hydroph_interaction:MET:99    0.0
hydroph_interaction:MET:99      0
Name: 97, dtype: object

>  <halogenbond:MET:99>  (98) 
halogenbond:MET:99    0.0
halogenbond:MET:99      0
Name: 97, dtype: object

>  <hydroph_interaction:LEU:100>  (98) 
hydroph_interaction:LEU:100    0.0
hydroph_interaction:LEU:100      0
Name: 97, dtype: object

>  <hbond:LEU:100>  (98) 
hbond:LEU:100    0.0
hbond:LEU:100      0
Name: 97, dtype: object

>  <hbond:ALA:101>  (98) 
hbond:ALA:101    0.0
hbond:ALA:101      0
Name: 97, dtype: object

>  <hydroph_interaction:ALA:101>  (98) 
hydroph_interaction:ALA:101    0.0
hydroph_interaction:ALA:101      0
Name: 97, dtype: object

>  <hydroph_interaction:VAL:102>  (98) 
hydroph_interaction:VAL:102    0.0
hydroph_interaction:VAL:102      0
Name: 97, dtype: object

>  <hbond:VAL:102>  (98) 
hbond:VAL:102    0.0
hbond:VAL:102      0
Name: 97, dtype: object

>  <hbond:GLY:103>  (98) 
hbond:GLY:103    0.0
hbond:GLY:103      0
Name: 97, dtype: object

>  <halogenbond:GLY:103>  (98) 
halogenbond:GLY:103    0.0
halogenbond:GLY:103      0
Name: 97, dtype: object

>  <hbond:HIS:104>  (98) 
hbond:HIS:104    0.0
hbond:HIS:104      0
Name: 97, dtype: object

>  <saltbridge:HIS:104>  (98) 
saltbridge:HIS:104    0.0
saltbridge:HIS:104      0
Name: 97, dtype: object

>  <pication:HIS:104>  (98) 
pication:HIS:104    0.0
pication:HIS:104      0
Name: 97, dtype: object

>  <halogenbond:HIS:104>  (98) 
halogenbond:HIS:104    0.0
halogenbond:HIS:104      0
Name: 97, dtype: object

>  <hydroph_interaction:HIS:104>  (98) 
hydroph_interaction:HIS:104    0.0
hydroph_interaction:HIS:104      0
Name: 97, dtype: object

>  <pistack:HIS:104>  (98) 
pistack:HIS:104    0.0
pistack:HIS:104      0
Name: 97, dtype: object

>  <halogenbond:SER:105>  (98) 
halogenbond:SER:105    0.0
halogenbond:SER:105      0
Name: 97, dtype: object

>  <hbond:SER:105>  (98) 
hbond:SER:105    0.0
hbond:SER:105      0
Name: 97, dtype: object

>  <hbond:GLU:106>  (98) 
hbond:GLU:106    0.0
hbond:GLU:106      0
Name: 97, dtype: object

>  <hydroph_interaction:GLU:106>  (98) 
hydroph_interaction:GLU:106    0.0
hydroph_interaction:GLU:106      0
Name: 97, dtype: object

>  <saltbridge:GLU:106>  (98) 
saltbridge:GLU:106    0.0
saltbridge:GLU:106      0
Name: 97, dtype: object

>  <halogenbond:GLU:106>  (98) 
halogenbond:GLU:106    0.0
halogenbond:GLU:106      0
Name: 97, dtype: object

>  <hydroph_interaction:PRO:107>  (98) 
hydroph_interaction:PRO:107    1
hydroph_interaction:PRO:107    1
Name: 97, dtype: object

>  <hbond:PRO:107>  (98) 
hbond:PRO:107    0.0
hbond:PRO:107      0
Name: 97, dtype: object

>  <halogenbond:PRO:107>  (98) 
halogenbond:PRO:107    0.0
halogenbond:PRO:107      0
Name: 97, dtype: object

>  <hbond:GLY:108>  (98) 
hbond:GLY:108    0.0
hbond:GLY:108      0
Name: 97, dtype: object

>  <halogenbond:GLY:108>  (98) 
halogenbond:GLY:108    0.0
halogenbond:GLY:108      0
Name: 97, dtype: object

>  <hbond:ASP:109>  (98) 
hbond:ASP:109    0.0
hbond:ASP:109      0
Name: 97, dtype: object

>  <hydroph_interaction:ASP:109>  (98) 
hydroph_interaction:ASP:109    0.0
hydroph_interaction:ASP:109      0
Name: 97, dtype: object

>  <saltbridge:ASP:109>  (98) 
saltbridge:ASP:109    0.0
saltbridge:ASP:109      0
Name: 97, dtype: object

>  <halogenbond:CYS:110>  (98) 
halogenbond:CYS:110    0.0
halogenbond:CYS:110      0
Name: 97, dtype: object

>  <hbond:CYS:110>  (98) 
hbond:CYS:110    0.0
hbond:CYS:110      0
Name: 97, dtype: object

>  <hbond:GLY:111>  (98) 
hbond:GLY:111    0.0
hbond:GLY:111      0
Name: 97, dtype: object

>  <hbond:GLY:112>  (98) 
hbond:GLY:112    0.0
hbond:GLY:112      0
Name: 97, dtype: object

>  <hbond:ILE:113>  (98) 
hbond:ILE:113    0.0
hbond:ILE:113      0
Name: 97, dtype: object

>  <hydroph_interaction:LEU:114>  (98) 
hydroph_interaction:LEU:114    0.0
hydroph_interaction:LEU:114      0
Name: 97, dtype: object

>  <hbond:LEU:114>  (98) 
hbond:LEU:114    0.0
hbond:LEU:114      0
Name: 97, dtype: object

>  <hydroph_interaction:ILE:123>  (98) 
hydroph_interaction:ILE:123    0.0
hydroph_interaction:ILE:123      0
Name: 97, dtype: object

>  <hbond:ILE:123>  (98) 
hbond:ILE:123    0.0
hbond:ILE:123      0
Name: 97, dtype: object

>  <hydroph_interaction:VAL:124>  (98) 
hydroph_interaction:VAL:124    1.0
hydroph_interaction:VAL:124      1
Name: 97, dtype: object

>  <hbond:VAL:124>  (98) 
hbond:VAL:124    0.0
hbond:VAL:124      0
Name: 97, dtype: object

>  <halogenbond:VAL:124>  (98) 
halogenbond:VAL:124    0.0
halogenbond:VAL:124      0
Name: 97, dtype: object

>  <hbond:SER:125>  (98) 
hbond:SER:125    0
hbond:SER:125    0
Name: 97, dtype: object

>  <halogenbond:SER:125>  (98) 
halogenbond:SER:125    0.0
halogenbond:SER:125      0
Name: 97, dtype: object

>  <hydroph_interaction:THR:126>  (98) 
hydroph_interaction:THR:126    1.0
hydroph_interaction:THR:126      1
Name: 97, dtype: object

>  <hbond:THR:126>  (98) 
hbond:THR:126    0.0
hbond:THR:126      0
Name: 97, dtype: object

>  <halogenbond:THR:126>  (98) 
halogenbond:THR:126    0.0
halogenbond:THR:126      0
Name: 97, dtype: object

>  <hbond:GLY:127>  (98) 
hbond:GLY:127    0
hbond:GLY:127    0
Name: 97, dtype: object

>  <halogenbond:GLY:127>  (98) 
halogenbond:GLY:127    0.0
halogenbond:GLY:127      0
Name: 97, dtype: object

>  <hydroph_interaction:GLY:127>  (98) 
hydroph_interaction:GLY:127    0.0
hydroph_interaction:GLY:127      0
Name: 97, dtype: object

>  <hbond:GLY:128>  (98) 
hbond:GLY:128    0.0
hbond:GLY:128      0
Name: 97, dtype: object

>  <halogenbond:GLY:128>  (98) 
halogenbond:GLY:128    0.0
halogenbond:GLY:128      0
Name: 97, dtype: object

>  <hydroph_interaction:GLY:128>  (98) 
hydroph_interaction:GLY:128    0.0
hydroph_interaction:GLY:128      0
Name: 97, dtype: object

>  <hbond:ASN:129>  (98) 
hbond:ASN:129    0.0
hbond:ASN:129      0
Name: 97, dtype: object

>  <hydroph_interaction:ASN:129>  (98) 
hydroph_interaction:ASN:129    0.0
hydroph_interaction:ASN:129      0
Name: 97, dtype: object

>  <halogenbond:ASN:129>  (98) 
halogenbond:ASN:129    0.0
halogenbond:ASN:129      0
Name: 97, dtype: object

>  <hbond:GLY:130>  (98) 
hbond:GLY:130    0.0
hbond:GLY:130      0
Name: 97, dtype: object

>  <hbond:LEU:131>  (98) 
hbond:LEU:131    0.0
hbond:LEU:131      0
Name: 97, dtype: object

>  <hydroph_interaction:LEU:131>  (98) 
hydroph_interaction:LEU:131    0.0
hydroph_interaction:LEU:131      0
Name: 97, dtype: object

>  <halogenbond:LEU:131>  (98) 
halogenbond:LEU:131    0.0
halogenbond:LEU:131      0
Name: 97, dtype: object

>  <hydroph_interaction:VAL:132>  (98) 
hydroph_interaction:VAL:132    0.0
hydroph_interaction:VAL:132      0
Name: 97, dtype: object

>  <hbond:VAL:132>  (98) 
hbond:VAL:132    0.0
hbond:VAL:132      0
Name: 97, dtype: object

>  <hbond:GLY:133>  (98) 
hbond:GLY:133    0.0
hbond:GLY:133      0
Name: 97, dtype: object

>  <halogenbond:GLY:133>  (98) 
halogenbond:GLY:133    0.0
halogenbond:GLY:133      0
Name: 97, dtype: object

>  <hydroph_interaction:PHE:134>  (98) 
hydroph_interaction:PHE:134    0.0
hydroph_interaction:PHE:134      0
Name: 97, dtype: object

>  <hbond:PHE:134>  (98) 
hbond:PHE:134    0.0
hbond:PHE:134      0
Name: 97, dtype: object

>  <pistack:PHE:134>  (98) 
pistack:PHE:134    0.0
pistack:PHE:134      0
Name: 97, dtype: object

>  <pication:PHE:134>  (98) 
pication:PHE:134    0.0
pication:PHE:134      0
Name: 97, dtype: object

>  <halogenbond:PHE:134>  (98) 
halogenbond:PHE:134    NaN
halogenbond:PHE:134     -1
Name: 97, dtype: object

>  <hydroph_interaction:ALA:135>  (98) 
hydroph_interaction:ALA:135    0.0
hydroph_interaction:ALA:135      0
Name: 97, dtype: object

>  <hbond:ALA:135>  (98) 
hbond:ALA:135    0.0
hbond:ALA:135      0
Name: 97, dtype: object

$$$$
Z3934776425
     RDKit          3D

 33 33  0  0  0  0  0  0  0  0999 V2000
   12.2260   16.2210   21.5750 C   0  0  0  0  0  0  0  0  0  0  0  0
   12.4160   14.8050   22.0630 C   0  0  0  0  0  0  0  0  0  0  0  0
   12.4240   14.7000   23.5870 C   0  0  2  0  0  0  0  0  0  0  0  0
   13.3450   13.5720   23.9900 C   0  0  0  0  0  0  0  0  0  0  0  0
   11.0260   14.4620   24.1510 C   0  0  0  0  0  0  0  0  0  0  0  0
   10.7120   14.8720   25.2640 O   0  0  0  0  0  0  0  0  0  0  0  0
   10.2040   13.7630   23.2790 N   0  0  0  0  0  0  0  0  0  0  0  0
    9.6190   12.5170   23.5480 C   0  0  0  0  0  0  0  0  0  0  0  0
    8.5610   12.3330   24.4170 C   0  0  0  0  0  0  0  0  0  0  0  0
    8.0740   11.0520   24.6190 C   0  0  0  0  0  0  0  0  0  0  0  0
    6.9250   10.8500   25.5580 C   0  0  0  0  0  0  0  0  0  0  0  0
    8.5900    9.9630   23.9990 N   0  0  0  0  0  0  0  0  0  0  0  0
    9.6170   10.1630   23.1540 C   0  0  0  0  0  0  0  0  0  0  0  0
   10.1910    8.9820   22.4670 C   0  0  0  0  0  0  0  0  0  0  0  0
   10.1490   11.4120   22.9040 C   0  0  0  0  0  0  0  0  0  0  0  0
   13.0620   16.5220   20.9420 H   0  0  0  0  0  0  0  0  0  0  0  0
   12.1370   16.9260   22.4050 H   0  0  0  0  0  0  0  0  0  0  0  0
   11.3050   16.2890   20.9910 H   0  0  0  0  0  0  0  0  0  0  0  0
   11.6350   14.1650   21.6330 H   0  0  0  0  0  0  0  0  0  0  0  0
   13.3740   14.4440   21.6710 H   0  0  0  0  0  0  0  0  0  0  0  0
   12.8280   15.6180   24.0220 H   0  0  0  0  0  0  0  0  0  0  0  0
   12.7740   12.6860   24.2500 H   0  0  0  0  0  0  0  0  0  0  0  0
   13.9890   13.3020   23.1680 H   0  0  0  0  0  0  0  0  0  0  0  0
   13.9770   13.8480   24.8390 H   0  0  0  0  0  0  0  0  0  0  0  0
   10.2490   14.0290   22.3020 H   0  0  0  0  0  0  0  0  0  0  0  0
    8.1000   13.1550   24.9500 H   0  0  0  0  0  0  0  0  0  0  0  0
    6.2040   11.6670   25.4690 H   0  0  0  0  0  0  0  0  0  0  0  0
    6.4100    9.9170   25.3260 H   0  0  0  0  0  0  0  0  0  0  0  0
    7.2610   10.8150   26.5900 H   0  0  0  0  0  0  0  0  0  0  0  0
    9.3960    8.3120   22.1350 H   0  0  0  0  0  0  0  0  0  0  0  0
   10.8730    8.4440   23.1330 H   0  0  0  0  0  0  0  0  0  0  0  0
   10.7510    9.3010   21.5880 H   0  0  0  0  0  0  0  0  0  0  0  0
   10.9720   11.5130   22.2170 H   0  0  0  0  0  0  0  0  0  0  0  0
  1  2  1  0
  2  3  1  0
  3  4  1  0
  3  5  1  0
  5  6  2  0
  5  7  1  0
  7  8  1  0
  8  9  2  0
  9 10  1  0
 10 11  1  0
 10 12  2  0
 12 13  1  0
 13 14  1  0
 13 15  2  0
 15  8  1  0
  1 16  1  0
  1 17  1  0
  1 18  1  0
  2 19  1  0
  2 20  1  0
  3 21  1  1
  4 22  1  0
  4 23  1  0
  4 24  1  0
  7 25  1  0
  9 26  1  0
 11 27  1  0
 11 28  1  0
 11 29  1  0
 14 30  1  0
 14 31  1  0
 14 32  1  0
 15 33  1  0
A    1
 C1 
A    2
 C2 
A    3
 C3 
A    4
 C4 
A    5
 C5 
A    6
 O1 
A    7
 N1 
A    8
 C6 
A    9
 C7 
A   10
 C8 
A   11
 C9 
A   12
 N2 
A   13
 C10
A   14
 C11
A   15
 C12
A   16
 H1 
A   17
 H2 
A   18
 H3 
A   19
 H4 
A   20
 H5 
A   21
 H6 
A   22
 H7 
A   23
 H8 
A   24
 H9 
A   25
 H10
A   26
 H11
A   27
 H12
A   28
 H13
A   29
 H14
A   30
 H15
A   31
 H16
A   32
 H17
A   33
 H18
M  END
>  <ref_pdb>  (99) 
x0310_0A

>  <ref_mols>  (99) 
x0451_0A,x0739_0A

>  <original SMILES>  (99) 
CC[C@H](C)C(=O)Nc1cc(C)nc(C)c1

>  <rationale>  (99) 
info halogenbond:I82+H97+F134+L98+S66; hbond:S87+E88+A92+S37; hydroph_interaction:V124+Y90+Y89+P107+V18; pication:Y63+F83; pistack:Y94; 

>  <intxn_cluster>  (99) 
107

>  <intxn_cluster_rank>  (99) 
5

>  <N_interactions>  (99) 
8

>  <∆∆G>  (99) 
-13.382108

>  <$/mg>  (99) 
163.0

>  <comRMSD>  (99) 
0.742455

>  <N_rotatable_bonds>  (99) 
7

>  <deep_P1_sidechain>  (99) 
True

>  <farthest_distance_to_substrate>  (99) 
2.602945

>  <hbond:SER:7>  (99) 
hbond:SER:7    0.0
hbond:SER:7      0
Name: 98, dtype: object

>  <halogenbond:SER:7>  (99) 
halogenbond:SER:7    0.0
halogenbond:SER:7      0
Name: 98, dtype: object

>  <hbond:GLY:8>  (99) 
hbond:GLY:8    0.0
hbond:GLY:8      0
Name: 98, dtype: object

>  <hydroph_interaction:VAL:18>  (99) 
hydroph_interaction:VAL:18    NaN
hydroph_interaction:VAL:18     -1
Name: 98, dtype: object

>  <hbond:ASN:19>  (99) 
hbond:ASN:19    0.0
hbond:ASN:19      0
Name: 98, dtype: object

>  <hydroph_interaction:ASN:19>  (99) 
hydroph_interaction:ASN:19    0.0
hydroph_interaction:ASN:19      0
Name: 98, dtype: object

>  <halogenbond:ASN:19>  (99) 
halogenbond:ASN:19    0.0
halogenbond:ASN:19      0
Name: 98, dtype: object

>  <hbond:ARG:20>  (99) 
hbond:ARG:20    0.0
hbond:ARG:20      0
Name: 98, dtype: object

>  <hydroph_interaction:ARG:20>  (99) 
hydroph_interaction:ARG:20    0.0
hydroph_interaction:ARG:20      0
Name: 98, dtype: object

>  <saltbridge:ARG:20>  (99) 
saltbridge:ARG:20    0.0
saltbridge:ARG:20      0
Name: 98, dtype: object

>  <halogenbond:ARG:20>  (99) 
halogenbond:ARG:20    0.0
halogenbond:ARG:20      0
Name: 98, dtype: object

>  <pication:ARG:20>  (99) 
pication:ARG:20    0.0
pication:ARG:20      0
Name: 98, dtype: object

>  <hbond:HIS:21>  (99) 
hbond:HIS:21    0.0
hbond:HIS:21      0
Name: 98, dtype: object

>  <hydroph_interaction:HIS:21>  (99) 
hydroph_interaction:HIS:21    0.0
hydroph_interaction:HIS:21      0
Name: 98, dtype: object

>  <pistack:HIS:21>  (99) 
pistack:HIS:21    0.0
pistack:HIS:21      0
Name: 98, dtype: object

>  <pication:HIS:21>  (99) 
pication:HIS:21    0.0
pication:HIS:21      0
Name: 98, dtype: object

>  <saltbridge:HIS:21>  (99) 
saltbridge:HIS:21    0.0
saltbridge:HIS:21      0
Name: 98, dtype: object

>  <halogenbond:HIS:21>  (99) 
halogenbond:HIS:21    0.0
halogenbond:HIS:21      0
Name: 98, dtype: object

>  <hydroph_interaction:LEU:22>  (99) 
hydroph_interaction:LEU:22    0.0
hydroph_interaction:LEU:22      0
Name: 98, dtype: object

>  <hbond:LEU:22>  (99) 
hbond:LEU:22    0.0
hbond:LEU:22      0
Name: 98, dtype: object

>  <hydroph_interaction:TRP:28>  (99) 
hydroph_interaction:TRP:28    0.0
hydroph_interaction:TRP:28      0
Name: 98, dtype: object

>  <hbond:SER:36>  (99) 
hbond:SER:36    0.0
hbond:SER:36      0
Name: 98, dtype: object

>  <halogenbond:SER:36>  (99) 
halogenbond:SER:36    0.0
halogenbond:SER:36      0
Name: 98, dtype: object

>  <hbond:SER:37>  (99) 
hbond:SER:37    NaN
hbond:SER:37     -1
Name: 98, dtype: object

>  <hbond:ARG:38>  (99) 
hbond:ARG:38    0.0
hbond:ARG:38      0
Name: 98, dtype: object

>  <halogenbond:ARG:38>  (99) 
halogenbond:ARG:38    0.0
halogenbond:ARG:38      0
Name: 98, dtype: object

>  <saltbridge:ASP:39>  (99) 
saltbridge:ASP:39    0.0
saltbridge:ASP:39      0
Name: 98, dtype: object

>  <halogenbond:ASP:39>  (99) 
halogenbond:ASP:39    0.0
halogenbond:ASP:39      0
Name: 98, dtype: object

>  <hbond:ASP:39>  (99) 
hbond:ASP:39    0.0
hbond:ASP:39      0
Name: 98, dtype: object

>  <hydroph_interaction:ASP:39>  (99) 
hydroph_interaction:ASP:39    0.0
hydroph_interaction:ASP:39      0
Name: 98, dtype: object

>  <hydroph_interaction:LEU:40>  (99) 
hydroph_interaction:LEU:40    0.0
hydroph_interaction:LEU:40      0
Name: 98, dtype: object

>  <hydroph_interaction:TYR:63>  (99) 
hydroph_interaction:TYR:63    0.0
hydroph_interaction:TYR:63      0
Name: 98, dtype: object

>  <hbond:TYR:63>  (99) 
hbond:TYR:63    0.0
hbond:TYR:63      0
Name: 98, dtype: object

>  <pistack:TYR:63>  (99) 
pistack:TYR:63    0.0
pistack:TYR:63      0
Name: 98, dtype: object

>  <pication:TYR:63>  (99) 
pication:TYR:63    NaN
pication:TYR:63     -1
Name: 98, dtype: object

>  <halogenbond:TYR:64>  (99) 
halogenbond:TYR:64    0.0
halogenbond:TYR:64      0
Name: 98, dtype: object

>  <hbond:TYR:64>  (99) 
hbond:TYR:64    0.0
hbond:TYR:64      0
Name: 98, dtype: object

>  <hydroph_interaction:TYR:64>  (99) 
hydroph_interaction:TYR:64    0.0
hydroph_interaction:TYR:64      0
Name: 98, dtype: object

>  <halogenbond:CYS:65>  (99) 
halogenbond:CYS:65    0.0
halogenbond:CYS:65      0
Name: 98, dtype: object

>  <hbond:CYS:65>  (99) 
hbond:CYS:65    0.0
hbond:CYS:65      0
Name: 98, dtype: object

>  <hbond:SER:66>  (99) 
hbond:SER:66    0.0
hbond:SER:66      0
Name: 98, dtype: object

>  <halogenbond:SER:66>  (99) 
halogenbond:SER:66    NaN
halogenbond:SER:66     -1
Name: 98, dtype: object

>  <hbond:SER:67>  (99) 
hbond:SER:67    0.0
hbond:SER:67      0
Name: 98, dtype: object

>  <halogenbond:SER:67>  (99) 
halogenbond:SER:67    0.0
halogenbond:SER:67      0
Name: 98, dtype: object

>  <hbond:ARG:68>  (99) 
hbond:ARG:68    0.0
hbond:ARG:68      0
Name: 98, dtype: object

>  <saltbridge:ARG:68>  (99) 
saltbridge:ARG:68    0.0
saltbridge:ARG:68      0
Name: 98, dtype: object

>  <hydroph_interaction:ARG:68>  (99) 
hydroph_interaction:ARG:68    0.0
hydroph_interaction:ARG:68      0
Name: 98, dtype: object

>  <pication:ARG:68>  (99) 
pication:ARG:68    0.0
pication:ARG:68      0
Name: 98, dtype: object

>  <hydroph_interaction:TYR:72>  (99) 
hydroph_interaction:TYR:72    0.0
hydroph_interaction:TYR:72      0
Name: 98, dtype: object

>  <hydroph_interaction:VAL:74>  (99) 
hydroph_interaction:VAL:74    0.0
hydroph_interaction:VAL:74      0
Name: 98, dtype: object

>  <hydroph_interaction:PHE:76>  (99) 
hydroph_interaction:PHE:76    0.0
hydroph_interaction:PHE:76      0
Name: 98, dtype: object

>  <hbond:SER:77>  (99) 
hbond:SER:77    0.0
hbond:SER:77      0
Name: 98, dtype: object

>  <hbond:SER:80>  (99) 
hbond:SER:80    0.0
hbond:SER:80      0
Name: 98, dtype: object

>  <hbond:LEU:81>  (99) 
hbond:LEU:81    0.0
hbond:LEU:81      0
Name: 98, dtype: object

>  <halogenbond:LEU:81>  (99) 
halogenbond:LEU:81    0.0
halogenbond:LEU:81      0
Name: 98, dtype: object

>  <hydroph_interaction:LEU:81>  (99) 
hydroph_interaction:LEU:81    0.0
hydroph_interaction:LEU:81      0
Name: 98, dtype: object

>  <hydroph_interaction:ILE:82>  (99) 
hydroph_interaction:ILE:82    0.0
hydroph_interaction:ILE:82      0
Name: 98, dtype: object

>  <halogenbond:ILE:82>  (99) 
halogenbond:ILE:82    NaN
halogenbond:ILE:82     -1
Name: 98, dtype: object

>  <hbond:ILE:82>  (99) 
hbond:ILE:82    0.0
hbond:ILE:82      0
Name: 98, dtype: object

>  <hbond:PHE:83>  (99) 
hbond:PHE:83    0.0
hbond:PHE:83      0
Name: 98, dtype: object

>  <hydroph_interaction:PHE:83>  (99) 
hydroph_interaction:PHE:83    0.0
hydroph_interaction:PHE:83      0
Name: 98, dtype: object

>  <halogenbond:PHE:83>  (99) 
halogenbond:PHE:83    0.0
halogenbond:PHE:83      0
Name: 98, dtype: object

>  <pistack:PHE:83>  (99) 
pistack:PHE:83    0.0
pistack:PHE:83      0
Name: 98, dtype: object

>  <pication:PHE:83>  (99) 
pication:PHE:83    NaN
pication:PHE:83     -1
Name: 98, dtype: object

>  <hydroph_interaction:VAL:84>  (99) 
hydroph_interaction:VAL:84    0.0
hydroph_interaction:VAL:84      0
Name: 98, dtype: object

>  <halogenbond:VAL:84>  (99) 
halogenbond:VAL:84    0.0
halogenbond:VAL:84      0
Name: 98, dtype: object

>  <hbond:VAL:84>  (99) 
hbond:VAL:84    0.0
hbond:VAL:84      0
Name: 98, dtype: object

>  <hydroph_interaction:GLU:85>  (99) 
hydroph_interaction:GLU:85    0.0
hydroph_interaction:GLU:85      0
Name: 98, dtype: object

>  <hbond:GLU:85>  (99) 
hbond:GLU:85    0.0
hbond:GLU:85      0
Name: 98, dtype: object

>  <halogenbond:GLU:85>  (99) 
halogenbond:GLU:85    0.0
halogenbond:GLU:85      0
Name: 98, dtype: object

>  <saltbridge:GLU:85>  (99) 
saltbridge:GLU:85    0.0
saltbridge:GLU:85      0
Name: 98, dtype: object

>  <halogenbond:ALA:86>  (99) 
halogenbond:ALA:86    0.0
halogenbond:ALA:86      0
Name: 98, dtype: object

>  <hbond:ALA:86>  (99) 
hbond:ALA:86    0.0
hbond:ALA:86      0
Name: 98, dtype: object

>  <hydroph_interaction:ALA:86>  (99) 
hydroph_interaction:ALA:86    0.0
hydroph_interaction:ALA:86      0
Name: 98, dtype: object

>  <hbond:SER:87>  (99) 
hbond:SER:87    2
hbond:SER:87    2
Name: 98, dtype: object

>  <halogenbond:SER:87>  (99) 
halogenbond:SER:87    0.0
halogenbond:SER:87      0
Name: 98, dtype: object

>  <hbond:GLU:88>  (99) 
hbond:GLU:88    1.0
hbond:GLU:88      1
Name: 98, dtype: object

>  <hydroph_interaction:GLU:88>  (99) 
hydroph_interaction:GLU:88    0.0
hydroph_interaction:GLU:88      0
Name: 98, dtype: object

>  <halogenbond:GLU:88>  (99) 
halogenbond:GLU:88    0.0
halogenbond:GLU:88      0
Name: 98, dtype: object

>  <saltbridge:GLU:88>  (99) 
saltbridge:GLU:88    0.0
saltbridge:GLU:88      0
Name: 98, dtype: object

>  <hydroph_interaction:TYR:89>  (99) 
hydroph_interaction:TYR:89    1.0
hydroph_interaction:TYR:89      1
Name: 98, dtype: object

>  <pistack:TYR:89>  (99) 
pistack:TYR:89    0.0
pistack:TYR:89      0
Name: 98, dtype: object

>  <hbond:TYR:89>  (99) 
hbond:TYR:89    0.0
hbond:TYR:89      0
Name: 98, dtype: object

>  <halogenbond:TYR:89>  (99) 
halogenbond:TYR:89    0.0
halogenbond:TYR:89      0
Name: 98, dtype: object

>  <hydroph_interaction:TYR:90>  (99) 
hydroph_interaction:TYR:90    1.0
hydroph_interaction:TYR:90      1
Name: 98, dtype: object

>  <hbond:TYR:90>  (99) 
hbond:TYR:90    0.0
hbond:TYR:90      0
Name: 98, dtype: object

>  <pistack:TYR:90>  (99) 
pistack:TYR:90    0.0
pistack:TYR:90      0
Name: 98, dtype: object

>  <halogenbond:TYR:90>  (99) 
halogenbond:TYR:90    0.0
halogenbond:TYR:90      0
Name: 98, dtype: object

>  <pication:TYR:90>  (99) 
pication:TYR:90    0.0
pication:TYR:90      0
Name: 98, dtype: object

>  <hbond:PRO:91>  (99) 
hbond:PRO:91    0.0
hbond:PRO:91      0
Name: 98, dtype: object

>  <hydroph_interaction:PRO:91>  (99) 
hydroph_interaction:PRO:91    0.0
hydroph_interaction:PRO:91      0
Name: 98, dtype: object

>  <halogenbond:PRO:91>  (99) 
halogenbond:PRO:91    0.0
halogenbond:PRO:91      0
Name: 98, dtype: object

>  <hbond:ALA:92>  (99) 
hbond:ALA:92    NaN
hbond:ALA:92     -1
Name: 98, dtype: object

>  <hydroph_interaction:ALA:92>  (99) 
hydroph_interaction:ALA:92    0.0
hydroph_interaction:ALA:92      0
Name: 98, dtype: object

>  <saltbridge:ARG:93>  (99) 
saltbridge:ARG:93    0.0
saltbridge:ARG:93      0
Name: 98, dtype: object

>  <hbond:ARG:93>  (99) 
hbond:ARG:93    0.0
hbond:ARG:93      0
Name: 98, dtype: object

>  <hydroph_interaction:ARG:93>  (99) 
hydroph_interaction:ARG:93    0.0
hydroph_interaction:ARG:93      0
Name: 98, dtype: object

>  <halogenbond:ARG:93>  (99) 
halogenbond:ARG:93    0.0
halogenbond:ARG:93      0
Name: 98, dtype: object

>  <pication:ARG:93>  (99) 
pication:ARG:93    0.0
pication:ARG:93      0
Name: 98, dtype: object

>  <hydroph_interaction:TYR:94>  (99) 
hydroph_interaction:TYR:94    0.0
hydroph_interaction:TYR:94      0
Name: 98, dtype: object

>  <pistack:TYR:94>  (99) 
pistack:TYR:94    NaN
pistack:TYR:94     -1
Name: 98, dtype: object

>  <hbond:TYR:94>  (99) 
hbond:TYR:94    0.0
hbond:TYR:94      0
Name: 98, dtype: object

>  <hbond:GLN:95>  (99) 
hbond:GLN:95    0.0
hbond:GLN:95      0
Name: 98, dtype: object

>  <hydroph_interaction:GLN:95>  (99) 
hydroph_interaction:GLN:95    0.0
hydroph_interaction:GLN:95      0
Name: 98, dtype: object

>  <halogenbond:GLN:95>  (99) 
halogenbond:GLN:95    0.0
halogenbond:GLN:95      0
Name: 98, dtype: object

>  <hbond:SER:96>  (99) 
hbond:SER:96    0.0
hbond:SER:96      0
Name: 98, dtype: object

>  <halogenbond:HIS:97>  (99) 
halogenbond:HIS:97    NaN
halogenbond:HIS:97     -1
Name: 98, dtype: object

>  <hydroph_interaction:LEU:98>  (99) 
hydroph_interaction:LEU:98    0.0
hydroph_interaction:LEU:98      0
Name: 98, dtype: object

>  <hbond:LEU:98>  (99) 
hbond:LEU:98    0.0
hbond:LEU:98      0
Name: 98, dtype: object

>  <halogenbond:LEU:98>  (99) 
halogenbond:LEU:98    NaN
halogenbond:LEU:98     -1
Name: 98, dtype: object

>  <hbond:MET:99>  (99) 
hbond:MET:99    0.0
hbond:MET:99      0
Name: 98, dtype: object

>  <hydroph_interaction:MET:99>  (99) 
hydroph_interaction:MET:99    0.0
hydroph_interaction:MET:99      0
Name: 98, dtype: object

>  <halogenbond:MET:99>  (99) 
halogenbond:MET:99    0.0
halogenbond:MET:99      0
Name: 98, dtype: object

>  <hydroph_interaction:LEU:100>  (99) 
hydroph_interaction:LEU:100    0.0
hydroph_interaction:LEU:100      0
Name: 98, dtype: object

>  <hbond:LEU:100>  (99) 
hbond:LEU:100    0.0
hbond:LEU:100      0
Name: 98, dtype: object

>  <hbond:ALA:101>  (99) 
hbond:ALA:101    0.0
hbond:ALA:101      0
Name: 98, dtype: object

>  <hydroph_interaction:ALA:101>  (99) 
hydroph_interaction:ALA:101    0.0
hydroph_interaction:ALA:101      0
Name: 98, dtype: object

>  <hydroph_interaction:VAL:102>  (99) 
hydroph_interaction:VAL:102    0.0
hydroph_interaction:VAL:102      0
Name: 98, dtype: object

>  <hbond:VAL:102>  (99) 
hbond:VAL:102    0.0
hbond:VAL:102      0
Name: 98, dtype: object

>  <hbond:GLY:103>  (99) 
hbond:GLY:103    0.0
hbond:GLY:103      0
Name: 98, dtype: object

>  <halogenbond:GLY:103>  (99) 
halogenbond:GLY:103    0.0
halogenbond:GLY:103      0
Name: 98, dtype: object

>  <hbond:HIS:104>  (99) 
hbond:HIS:104    0.0
hbond:HIS:104      0
Name: 98, dtype: object

>  <saltbridge:HIS:104>  (99) 
saltbridge:HIS:104    0.0
saltbridge:HIS:104      0
Name: 98, dtype: object

>  <pication:HIS:104>  (99) 
pication:HIS:104    0.0
pication:HIS:104      0
Name: 98, dtype: object

>  <halogenbond:HIS:104>  (99) 
halogenbond:HIS:104    0.0
halogenbond:HIS:104      0
Name: 98, dtype: object

>  <hydroph_interaction:HIS:104>  (99) 
hydroph_interaction:HIS:104    0.0
hydroph_interaction:HIS:104      0
Name: 98, dtype: object

>  <pistack:HIS:104>  (99) 
pistack:HIS:104    0.0
pistack:HIS:104      0
Name: 98, dtype: object

>  <halogenbond:SER:105>  (99) 
halogenbond:SER:105    0.0
halogenbond:SER:105      0
Name: 98, dtype: object

>  <hbond:SER:105>  (99) 
hbond:SER:105    0.0
hbond:SER:105      0
Name: 98, dtype: object

>  <hbond:GLU:106>  (99) 
hbond:GLU:106    0.0
hbond:GLU:106      0
Name: 98, dtype: object

>  <hydroph_interaction:GLU:106>  (99) 
hydroph_interaction:GLU:106    0.0
hydroph_interaction:GLU:106      0
Name: 98, dtype: object

>  <saltbridge:GLU:106>  (99) 
saltbridge:GLU:106    0.0
saltbridge:GLU:106      0
Name: 98, dtype: object

>  <halogenbond:GLU:106>  (99) 
halogenbond:GLU:106    0.0
halogenbond:GLU:106      0
Name: 98, dtype: object

>  <hydroph_interaction:PRO:107>  (99) 
hydroph_interaction:PRO:107    2
hydroph_interaction:PRO:107    2
Name: 98, dtype: object

>  <hbond:PRO:107>  (99) 
hbond:PRO:107    0.0
hbond:PRO:107      0
Name: 98, dtype: object

>  <halogenbond:PRO:107>  (99) 
halogenbond:PRO:107    0.0
halogenbond:PRO:107      0
Name: 98, dtype: object

>  <hbond:GLY:108>  (99) 
hbond:GLY:108    0.0
hbond:GLY:108      0
Name: 98, dtype: object

>  <halogenbond:GLY:108>  (99) 
halogenbond:GLY:108    0.0
halogenbond:GLY:108      0
Name: 98, dtype: object

>  <hbond:ASP:109>  (99) 
hbond:ASP:109    0.0
hbond:ASP:109      0
Name: 98, dtype: object

>  <hydroph_interaction:ASP:109>  (99) 
hydroph_interaction:ASP:109    0.0
hydroph_interaction:ASP:109      0
Name: 98, dtype: object

>  <saltbridge:ASP:109>  (99) 
saltbridge:ASP:109    0.0
saltbridge:ASP:109      0
Name: 98, dtype: object

>  <halogenbond:CYS:110>  (99) 
halogenbond:CYS:110    0.0
halogenbond:CYS:110      0
Name: 98, dtype: object

>  <hbond:CYS:110>  (99) 
hbond:CYS:110    0.0
hbond:CYS:110      0
Name: 98, dtype: object

>  <hbond:GLY:111>  (99) 
hbond:GLY:111    0.0
hbond:GLY:111      0
Name: 98, dtype: object

>  <hbond:GLY:112>  (99) 
hbond:GLY:112    0.0
hbond:GLY:112      0
Name: 98, dtype: object

>  <hbond:ILE:113>  (99) 
hbond:ILE:113    0.0
hbond:ILE:113      0
Name: 98, dtype: object

>  <hydroph_interaction:LEU:114>  (99) 
hydroph_interaction:LEU:114    0.0
hydroph_interaction:LEU:114      0
Name: 98, dtype: object

>  <hbond:LEU:114>  (99) 
hbond:LEU:114    0.0
hbond:LEU:114      0
Name: 98, dtype: object

>  <hydroph_interaction:ILE:123>  (99) 
hydroph_interaction:ILE:123    0.0
hydroph_interaction:ILE:123      0
Name: 98, dtype: object

>  <hbond:ILE:123>  (99) 
hbond:ILE:123    0.0
hbond:ILE:123      0
Name: 98, dtype: object

>  <hydroph_interaction:VAL:124>  (99) 
hydroph_interaction:VAL:124    1.0
hydroph_interaction:VAL:124      1
Name: 98, dtype: object

>  <hbond:VAL:124>  (99) 
hbond:VAL:124    0.0
hbond:VAL:124      0
Name: 98, dtype: object

>  <halogenbond:VAL:124>  (99) 
halogenbond:VAL:124    0.0
halogenbond:VAL:124      0
Name: 98, dtype: object

>  <hbond:SER:125>  (99) 
hbond:SER:125    0
hbond:SER:125    0
Name: 98, dtype: object

>  <halogenbond:SER:125>  (99) 
halogenbond:SER:125    0.0
halogenbond:SER:125      0
Name: 98, dtype: object

>  <hydroph_interaction:THR:126>  (99) 
hydroph_interaction:THR:126    0.0
hydroph_interaction:THR:126      0
Name: 98, dtype: object

>  <hbond:THR:126>  (99) 
hbond:THR:126    0.0
hbond:THR:126      0
Name: 98, dtype: object

>  <halogenbond:THR:126>  (99) 
halogenbond:THR:126    0.0
halogenbond:THR:126      0
Name: 98, dtype: object

>  <hbond:GLY:127>  (99) 
hbond:GLY:127    0
hbond:GLY:127    0
Name: 98, dtype: object

>  <halogenbond:GLY:127>  (99) 
halogenbond:GLY:127    0.0
halogenbond:GLY:127      0
Name: 98, dtype: object

>  <hydroph_interaction:GLY:127>  (99) 
hydroph_interaction:GLY:127    0.0
hydroph_interaction:GLY:127      0
Name: 98, dtype: object

>  <hbond:GLY:128>  (99) 
hbond:GLY:128    0.0
hbond:GLY:128      0
Name: 98, dtype: object

>  <halogenbond:GLY:128>  (99) 
halogenbond:GLY:128    0.0
halogenbond:GLY:128      0
Name: 98, dtype: object

>  <hydroph_interaction:GLY:128>  (99) 
hydroph_interaction:GLY:128    0.0
hydroph_interaction:GLY:128      0
Name: 98, dtype: object

>  <hbond:ASN:129>  (99) 
hbond:ASN:129    0.0
hbond:ASN:129      0
Name: 98, dtype: object

>  <hydroph_interaction:ASN:129>  (99) 
hydroph_interaction:ASN:129    0.0
hydroph_interaction:ASN:129      0
Name: 98, dtype: object

>  <halogenbond:ASN:129>  (99) 
halogenbond:ASN:129    0.0
halogenbond:ASN:129      0
Name: 98, dtype: object

>  <hbond:GLY:130>  (99) 
hbond:GLY:130    0.0
hbond:GLY:130      0
Name: 98, dtype: object

>  <hbond:LEU:131>  (99) 
hbond:LEU:131    0.0
hbond:LEU:131      0
Name: 98, dtype: object

>  <hydroph_interaction:LEU:131>  (99) 
hydroph_interaction:LEU:131    0.0
hydroph_interaction:LEU:131      0
Name: 98, dtype: object

>  <halogenbond:LEU:131>  (99) 
halogenbond:LEU:131    0.0
halogenbond:LEU:131      0
Name: 98, dtype: object

>  <hydroph_interaction:VAL:132>  (99) 
hydroph_interaction:VAL:132    0.0
hydroph_interaction:VAL:132      0
Name: 98, dtype: object

>  <hbond:VAL:132>  (99) 
hbond:VAL:132    0.0
hbond:VAL:132      0
Name: 98, dtype: object

>  <hbond:GLY:133>  (99) 
hbond:GLY:133    0.0
hbond:GLY:133      0
Name: 98, dtype: object

>  <halogenbond:GLY:133>  (99) 
halogenbond:GLY:133    0.0
halogenbond:GLY:133      0
Name: 98, dtype: object

>  <hydroph_interaction:PHE:134>  (99) 
hydroph_interaction:PHE:134    0.0
hydroph_interaction:PHE:134      0
Name: 98, dtype: object

>  <hbond:PHE:134>  (99) 
hbond:PHE:134    0.0
hbond:PHE:134      0
Name: 98, dtype: object

>  <pistack:PHE:134>  (99) 
pistack:PHE:134    0.0
pistack:PHE:134      0
Name: 98, dtype: object

>  <pication:PHE:134>  (99) 
pication:PHE:134    0.0
pication:PHE:134      0
Name: 98, dtype: object

>  <halogenbond:PHE:134>  (99) 
halogenbond:PHE:134    NaN
halogenbond:PHE:134     -1
Name: 98, dtype: object

>  <hydroph_interaction:ALA:135>  (99) 
hydroph_interaction:ALA:135    0.0
hydroph_interaction:ALA:135      0
Name: 98, dtype: object

>  <hbond:ALA:135>  (99) 
hbond:ALA:135    0.0
hbond:ALA:135      0
Name: 98, dtype: object

$$$$
PV_002735478814
     RDKit          3D

 32 32  0  0  0  0  0  0  0  0999 V2000
    4.3740   13.3440   16.0020 C   0  0  0  0  0  0  0  0  0  0  0  0
    4.2980   12.2570   16.7420 C   0  0  0  0  0  0  0  0  0  0  0  0
    3.5330   12.1430   17.9690 C   0  0  0  0  0  0  0  0  0  0  0  0
    2.5290   13.0460   18.2710 C   0  0  0  0  0  0  0  0  0  0  0  0
    1.7900   12.9060   19.4630 C   0  0  0  0  0  0  0  0  0  0  0  0
    0.6770   13.8590   19.8100 C   0  0  0  0  0  0  0  0  0  0  0  0
    0.2140   14.6260   18.5590 C   0  0  0  0  0  0  0  0  0  0  0  0
    1.1100   14.8860   20.8560 C   0  0  0  0  0  0  0  0  0  0  0  0
   -0.4910   13.0300   20.3860 C   0  0  0  0  0  0  0  0  0  0  0  0
    2.0930   11.8680   20.3310 C   0  0  0  0  0  0  0  0  0  0  0  0
    3.0830   10.9840   20.0230 C   0  0  0  0  0  0  0  0  0  0  0  0
    3.7740   11.1300   18.8560 C   0  0  0  0  0  0  0  0  0  0  0  0
    4.6800   10.2720   18.5160 O   0  0  0  0  0  0  0  0  0  0  0  0
    3.8530    9.1870   18.4300 C   0  0  0  0  0  0  0  0  0  0  0  0
    3.8430   14.2440   16.2690 H   0  0  0  0  0  0  0  0  0  0  0  0
    4.9750   13.3600   15.1050 H   0  0  0  0  0  0  0  0  0  0  0  0
    4.8270   11.3680   16.4590 H   0  0  0  0  0  0  0  0  0  0  0  0
    2.3160   13.8540   17.5720 H   0  0  0  0  0  0  0  0  0  0  0  0
   -0.8750   14.7240   18.5050 H   0  0  0  0  0  0  0  0  0  0  0  0
    0.5440   14.1270   17.6420 H   0  0  0  0  0  0  0  0  0  0  0  0
    0.6230   15.6450   18.5530 H   0  0  0  0  0  0  0  0  0  0  0  0
    0.6660   14.6870   21.8390 H   0  0  0  0  0  0  0  0  0  0  0  0
    2.1990   14.8800   20.9870 H   0  0  0  0  0  0  0  0  0  0  0  0
    0.8230   15.8970   20.5480 H   0  0  0  0  0  0  0  0  0  0  0  0
   -0.1390   12.3210   21.1480 H   0  0  0  0  0  0  0  0  0  0  0  0
   -1.2380   13.6800   20.8550 H   0  0  0  0  0  0  0  0  0  0  0  0
   -1.0010   12.4460   19.6180 H   0  0  0  0  0  0  0  0  0  0  0  0
    1.5590   11.7180   21.2660 H   0  0  0  0  0  0  0  0  0  0  0  0
    3.2800   10.1800   20.7230 H   0  0  0  0  0  0  0  0  0  0  0  0
    3.9030    8.6800   19.3580 H   0  0  0  0  0  0  0  0  0  0  0  0
    4.0470    8.5430   17.5900 H   0  0  0  0  0  0  0  0  0  0  0  0
    2.8420    9.5790   18.3340 H   0  0  0  0  0  0  0  0  0  0  0  0
  1  2  2  0
  2  3  1  0
  3  4  2  0
  4  5  1  0
  5  6  1  0
  6  7  1  0
  6  8  1  0
  6  9  1  0
  5 10  2  0
 10 11  1  0
 11 12  2  0
 12 13  1  0
 13 14  1  0
 12  3  1  0
  1 15  1  0
  1 16  1  0
  2 17  1  0
  4 18  1  0
  7 19  1  0
  7 20  1  0
  7 21  1  0
  8 22  1  0
  8 23  1  0
  8 24  1  0
  9 25  1  0
  9 26  1  0
  9 27  1  0
 10 28  1  0
 11 29  1  0
 14 30  1  0
 14 31  1  0
 14 32  1  0
A    1
 C1 
A    2
 C2 
A    3
 C3 
A    4
 C4 
A    5
 C5 
A    6
 C6 
A    7
 C7 
A    8
 C8 
A    9
 C9 
A   10
 C10
A   11
 C11
A   12
 C12
A   13
 O1 
A   14
 C13
A   15
 H1 
A   16
 H2 
A   17
 H3 
A   18
 H4 
A   19
 H5 
A   20
 H6 
A   21
 H7 
A   22
 H8 
A   23
 H9 
A   24
 H10
A   25
 H11
A   26
 H12
A   27
 H13
A   28
 H14
A   29
 H15
A   30
 H16
A   31
 H17
A   32
 H18
M  END
>  <ref_pdb>  (100) 
x0310_0A

>  <ref_mols>  (100) 
x0473_0A,x0416_0A

>  <original SMILES>  (100) 
C=Cc1cc(C(C)(C)C)ccc1OC

>  <rationale>  (100) 
info halogenbond:I82+H97+F134+L98+S66; hbond:A92+S37; hydroph_interaction:V84+E85+I82+L100+L98+L131+V18; pication:Y63+F83; pistack:Y94; 

>  <intxn_cluster>  (100) 
206

>  <intxn_cluster_rank>  (100) 
10

>  <N_interactions>  (100) 
6

>  <∆∆G>  (100) 
-10.467025

>  <$/mg>  (100) 
0.0

>  <comRMSD>  (100) 
0.60216

>  <N_rotatable_bonds>  (100) 
3

>  <deep_P1_sidechain>  (100) 
False

>  <farthest_distance_to_substrate>  (100) 
4.317502

>  <hbond:SER:7>  (100) 
hbond:SER:7    0.0
hbond:SER:7      0
Name: 99, dtype: object

>  <halogenbond:SER:7>  (100) 
halogenbond:SER:7    0.0
halogenbond:SER:7      0
Name: 99, dtype: object

>  <hbond:GLY:8>  (100) 
hbond:GLY:8    0.0
hbond:GLY:8      0
Name: 99, dtype: object

>  <hydroph_interaction:VAL:18>  (100) 
hydroph_interaction:VAL:18    NaN
hydroph_interaction:VAL:18     -1
Name: 99, dtype: object

>  <hbond:ASN:19>  (100) 
hbond:ASN:19    0.0
hbond:ASN:19      0
Name: 99, dtype: object

>  <hydroph_interaction:ASN:19>  (100) 
hydroph_interaction:ASN:19    0.0
hydroph_interaction:ASN:19      0
Name: 99, dtype: object

>  <halogenbond:ASN:19>  (100) 
halogenbond:ASN:19    0.0
halogenbond:ASN:19      0
Name: 99, dtype: object

>  <hbond:ARG:20>  (100) 
hbond:ARG:20    0.0
hbond:ARG:20      0
Name: 99, dtype: object

>  <hydroph_interaction:ARG:20>  (100) 
hydroph_interaction:ARG:20    0.0
hydroph_interaction:ARG:20      0
Name: 99, dtype: object

>  <saltbridge:ARG:20>  (100) 
saltbridge:ARG:20    0.0
saltbridge:ARG:20      0
Name: 99, dtype: object

>  <halogenbond:ARG:20>  (100) 
halogenbond:ARG:20    0.0
halogenbond:ARG:20      0
Name: 99, dtype: object

>  <pication:ARG:20>  (100) 
pication:ARG:20    0.0
pication:ARG:20      0
Name: 99, dtype: object

>  <hbond:HIS:21>  (100) 
hbond:HIS:21    0.0
hbond:HIS:21      0
Name: 99, dtype: object

>  <hydroph_interaction:HIS:21>  (100) 
hydroph_interaction:HIS:21    0.0
hydroph_interaction:HIS:21      0
Name: 99, dtype: object

>  <pistack:HIS:21>  (100) 
pistack:HIS:21    0.0
pistack:HIS:21      0
Name: 99, dtype: object

>  <pication:HIS:21>  (100) 
pication:HIS:21    0.0
pication:HIS:21      0
Name: 99, dtype: object

>  <saltbridge:HIS:21>  (100) 
saltbridge:HIS:21    0.0
saltbridge:HIS:21      0
Name: 99, dtype: object

>  <halogenbond:HIS:21>  (100) 
halogenbond:HIS:21    0.0
halogenbond:HIS:21      0
Name: 99, dtype: object

>  <hydroph_interaction:LEU:22>  (100) 
hydroph_interaction:LEU:22    0.0
hydroph_interaction:LEU:22      0
Name: 99, dtype: object

>  <hbond:LEU:22>  (100) 
hbond:LEU:22    0.0
hbond:LEU:22      0
Name: 99, dtype: object

>  <hydroph_interaction:TRP:28>  (100) 
hydroph_interaction:TRP:28    0.0
hydroph_interaction:TRP:28      0
Name: 99, dtype: object

>  <hbond:SER:36>  (100) 
hbond:SER:36    0.0
hbond:SER:36      0
Name: 99, dtype: object

>  <halogenbond:SER:36>  (100) 
halogenbond:SER:36    0.0
halogenbond:SER:36      0
Name: 99, dtype: object

>  <hbond:SER:37>  (100) 
hbond:SER:37    NaN
hbond:SER:37     -1
Name: 99, dtype: object

>  <hbond:ARG:38>  (100) 
hbond:ARG:38    0.0
hbond:ARG:38      0
Name: 99, dtype: object

>  <halogenbond:ARG:38>  (100) 
halogenbond:ARG:38    0.0
halogenbond:ARG:38      0
Name: 99, dtype: object

>  <saltbridge:ASP:39>  (100) 
saltbridge:ASP:39    0.0
saltbridge:ASP:39      0
Name: 99, dtype: object

>  <halogenbond:ASP:39>  (100) 
halogenbond:ASP:39    0.0
halogenbond:ASP:39      0
Name: 99, dtype: object

>  <hbond:ASP:39>  (100) 
hbond:ASP:39    0.0
hbond:ASP:39      0
Name: 99, dtype: object

>  <hydroph_interaction:ASP:39>  (100) 
hydroph_interaction:ASP:39    0.0
hydroph_interaction:ASP:39      0
Name: 99, dtype: object

>  <hydroph_interaction:LEU:40>  (100) 
hydroph_interaction:LEU:40    0.0
hydroph_interaction:LEU:40      0
Name: 99, dtype: object

>  <hydroph_interaction:TYR:63>  (100) 
hydroph_interaction:TYR:63    0.0
hydroph_interaction:TYR:63      0
Name: 99, dtype: object

>  <hbond:TYR:63>  (100) 
hbond:TYR:63    0.0
hbond:TYR:63      0
Name: 99, dtype: object

>  <pistack:TYR:63>  (100) 
pistack:TYR:63    0.0
pistack:TYR:63      0
Name: 99, dtype: object

>  <pication:TYR:63>  (100) 
pication:TYR:63    NaN
pication:TYR:63     -1
Name: 99, dtype: object

>  <halogenbond:TYR:64>  (100) 
halogenbond:TYR:64    0.0
halogenbond:TYR:64      0
Name: 99, dtype: object

>  <hbond:TYR:64>  (100) 
hbond:TYR:64    0.0
hbond:TYR:64      0
Name: 99, dtype: object

>  <hydroph_interaction:TYR:64>  (100) 
hydroph_interaction:TYR:64    0.0
hydroph_interaction:TYR:64      0
Name: 99, dtype: object

>  <halogenbond:CYS:65>  (100) 
halogenbond:CYS:65    0.0
halogenbond:CYS:65      0
Name: 99, dtype: object

>  <hbond:CYS:65>  (100) 
hbond:CYS:65    0.0
hbond:CYS:65      0
Name: 99, dtype: object

>  <hbond:SER:66>  (100) 
hbond:SER:66    0.0
hbond:SER:66      0
Name: 99, dtype: object

>  <halogenbond:SER:66>  (100) 
halogenbond:SER:66    NaN
halogenbond:SER:66     -1
Name: 99, dtype: object

>  <hbond:SER:67>  (100) 
hbond:SER:67    0.0
hbond:SER:67      0
Name: 99, dtype: object

>  <halogenbond:SER:67>  (100) 
halogenbond:SER:67    0.0
halogenbond:SER:67      0
Name: 99, dtype: object

>  <hbond:ARG:68>  (100) 
hbond:ARG:68    0.0
hbond:ARG:68      0
Name: 99, dtype: object

>  <saltbridge:ARG:68>  (100) 
saltbridge:ARG:68    0.0
saltbridge:ARG:68      0
Name: 99, dtype: object

>  <hydroph_interaction:ARG:68>  (100) 
hydroph_interaction:ARG:68    0.0
hydroph_interaction:ARG:68      0
Name: 99, dtype: object

>  <pication:ARG:68>  (100) 
pication:ARG:68    0.0
pication:ARG:68      0
Name: 99, dtype: object

>  <hydroph_interaction:TYR:72>  (100) 
hydroph_interaction:TYR:72    0.0
hydroph_interaction:TYR:72      0
Name: 99, dtype: object

>  <hydroph_interaction:VAL:74>  (100) 
hydroph_interaction:VAL:74    0.0
hydroph_interaction:VAL:74      0
Name: 99, dtype: object

>  <hydroph_interaction:PHE:76>  (100) 
hydroph_interaction:PHE:76    0.0
hydroph_interaction:PHE:76      0
Name: 99, dtype: object

>  <hbond:SER:77>  (100) 
hbond:SER:77    0.0
hbond:SER:77      0
Name: 99, dtype: object

>  <hbond:SER:80>  (100) 
hbond:SER:80    0.0
hbond:SER:80      0
Name: 99, dtype: object

>  <hbond:LEU:81>  (100) 
hbond:LEU:81    0.0
hbond:LEU:81      0
Name: 99, dtype: object

>  <halogenbond:LEU:81>  (100) 
halogenbond:LEU:81    0.0
halogenbond:LEU:81      0
Name: 99, dtype: object

>  <hydroph_interaction:LEU:81>  (100) 
hydroph_interaction:LEU:81    0.0
hydroph_interaction:LEU:81      0
Name: 99, dtype: object

>  <hydroph_interaction:ILE:82>  (100) 
hydroph_interaction:ILE:82    1.0
hydroph_interaction:ILE:82      1
Name: 99, dtype: object

>  <halogenbond:ILE:82>  (100) 
halogenbond:ILE:82    NaN
halogenbond:ILE:82     -1
Name: 99, dtype: object

>  <hbond:ILE:82>  (100) 
hbond:ILE:82    0.0
hbond:ILE:82      0
Name: 99, dtype: object

>  <hbond:PHE:83>  (100) 
hbond:PHE:83    0.0
hbond:PHE:83      0
Name: 99, dtype: object

>  <hydroph_interaction:PHE:83>  (100) 
hydroph_interaction:PHE:83    0.0
hydroph_interaction:PHE:83      0
Name: 99, dtype: object

>  <halogenbond:PHE:83>  (100) 
halogenbond:PHE:83    0.0
halogenbond:PHE:83      0
Name: 99, dtype: object

>  <pistack:PHE:83>  (100) 
pistack:PHE:83    0.0
pistack:PHE:83      0
Name: 99, dtype: object

>  <pication:PHE:83>  (100) 
pication:PHE:83    NaN
pication:PHE:83     -1
Name: 99, dtype: object

>  <hydroph_interaction:VAL:84>  (100) 
hydroph_interaction:VAL:84    1.0
hydroph_interaction:VAL:84      1
Name: 99, dtype: object

>  <halogenbond:VAL:84>  (100) 
halogenbond:VAL:84    0.0
halogenbond:VAL:84      0
Name: 99, dtype: object

>  <hbond:VAL:84>  (100) 
hbond:VAL:84    0.0
hbond:VAL:84      0
Name: 99, dtype: object

>  <hydroph_interaction:GLU:85>  (100) 
hydroph_interaction:GLU:85    1.0
hydroph_interaction:GLU:85      1
Name: 99, dtype: object

>  <hbond:GLU:85>  (100) 
hbond:GLU:85    0.0
hbond:GLU:85      0
Name: 99, dtype: object

>  <halogenbond:GLU:85>  (100) 
halogenbond:GLU:85    0.0
halogenbond:GLU:85      0
Name: 99, dtype: object

>  <saltbridge:GLU:85>  (100) 
saltbridge:GLU:85    0.0
saltbridge:GLU:85      0
Name: 99, dtype: object

>  <halogenbond:ALA:86>  (100) 
halogenbond:ALA:86    0.0
halogenbond:ALA:86      0
Name: 99, dtype: object

>  <hbond:ALA:86>  (100) 
hbond:ALA:86    0.0
hbond:ALA:86      0
Name: 99, dtype: object

>  <hydroph_interaction:ALA:86>  (100) 
hydroph_interaction:ALA:86    0.0
hydroph_interaction:ALA:86      0
Name: 99, dtype: object

>  <hbond:SER:87>  (100) 
hbond:SER:87    0
hbond:SER:87    0
Name: 99, dtype: object

>  <halogenbond:SER:87>  (100) 
halogenbond:SER:87    0.0
halogenbond:SER:87      0
Name: 99, dtype: object

>  <hbond:GLU:88>  (100) 
hbond:GLU:88    0.0
hbond:GLU:88      0
Name: 99, dtype: object

>  <hydroph_interaction:GLU:88>  (100) 
hydroph_interaction:GLU:88    0.0
hydroph_interaction:GLU:88      0
Name: 99, dtype: object

>  <halogenbond:GLU:88>  (100) 
halogenbond:GLU:88    0.0
halogenbond:GLU:88      0
Name: 99, dtype: object

>  <saltbridge:GLU:88>  (100) 
saltbridge:GLU:88    0.0
saltbridge:GLU:88      0
Name: 99, dtype: object

>  <hydroph_interaction:TYR:89>  (100) 
hydroph_interaction:TYR:89    0.0
hydroph_interaction:TYR:89      0
Name: 99, dtype: object

>  <pistack:TYR:89>  (100) 
pistack:TYR:89    0.0
pistack:TYR:89      0
Name: 99, dtype: object

>  <hbond:TYR:89>  (100) 
hbond:TYR:89    0.0
hbond:TYR:89      0
Name: 99, dtype: object

>  <halogenbond:TYR:89>  (100) 
halogenbond:TYR:89    0.0
halogenbond:TYR:89      0
Name: 99, dtype: object

>  <hydroph_interaction:TYR:90>  (100) 
hydroph_interaction:TYR:90    0.0
hydroph_interaction:TYR:90      0
Name: 99, dtype: object

>  <hbond:TYR:90>  (100) 
hbond:TYR:90    0.0
hbond:TYR:90      0
Name: 99, dtype: object

>  <pistack:TYR:90>  (100) 
pistack:TYR:90    0.0
pistack:TYR:90      0
Name: 99, dtype: object

>  <halogenbond:TYR:90>  (100) 
halogenbond:TYR:90    0.0
halogenbond:TYR:90      0
Name: 99, dtype: object

>  <pication:TYR:90>  (100) 
pication:TYR:90    0.0
pication:TYR:90      0
Name: 99, dtype: object

>  <hbond:PRO:91>  (100) 
hbond:PRO:91    0.0
hbond:PRO:91      0
Name: 99, dtype: object

>  <hydroph_interaction:PRO:91>  (100) 
hydroph_interaction:PRO:91    0.0
hydroph_interaction:PRO:91      0
Name: 99, dtype: object

>  <halogenbond:PRO:91>  (100) 
halogenbond:PRO:91    0.0
halogenbond:PRO:91      0
Name: 99, dtype: object

>  <hbond:ALA:92>  (100) 
hbond:ALA:92    NaN
hbond:ALA:92     -1
Name: 99, dtype: object

>  <hydroph_interaction:ALA:92>  (100) 
hydroph_interaction:ALA:92    0.0
hydroph_interaction:ALA:92      0
Name: 99, dtype: object

>  <saltbridge:ARG:93>  (100) 
saltbridge:ARG:93    0.0
saltbridge:ARG:93      0
Name: 99, dtype: object

>  <hbond:ARG:93>  (100) 
hbond:ARG:93    0.0
hbond:ARG:93      0
Name: 99, dtype: object

>  <hydroph_interaction:ARG:93>  (100) 
hydroph_interaction:ARG:93    0.0
hydroph_interaction:ARG:93      0
Name: 99, dtype: object

>  <halogenbond:ARG:93>  (100) 
halogenbond:ARG:93    0.0
halogenbond:ARG:93      0
Name: 99, dtype: object

>  <pication:ARG:93>  (100) 
pication:ARG:93    0.0
pication:ARG:93      0
Name: 99, dtype: object

>  <hydroph_interaction:TYR:94>  (100) 
hydroph_interaction:TYR:94    0.0
hydroph_interaction:TYR:94      0
Name: 99, dtype: object

>  <pistack:TYR:94>  (100) 
pistack:TYR:94    NaN
pistack:TYR:94     -1
Name: 99, dtype: object

>  <hbond:TYR:94>  (100) 
hbond:TYR:94    0.0
hbond:TYR:94      0
Name: 99, dtype: object

>  <hbond:GLN:95>  (100) 
hbond:GLN:95    0.0
hbond:GLN:95      0
Name: 99, dtype: object

>  <hydroph_interaction:GLN:95>  (100) 
hydroph_interaction:GLN:95    0.0
hydroph_interaction:GLN:95      0
Name: 99, dtype: object

>  <halogenbond:GLN:95>  (100) 
halogenbond:GLN:95    0.0
halogenbond:GLN:95      0
Name: 99, dtype: object

>  <hbond:SER:96>  (100) 
hbond:SER:96    0.0
hbond:SER:96      0
Name: 99, dtype: object

>  <halogenbond:HIS:97>  (100) 
halogenbond:HIS:97    NaN
halogenbond:HIS:97     -1
Name: 99, dtype: object

>  <hydroph_interaction:LEU:98>  (100) 
hydroph_interaction:LEU:98    1.0
hydroph_interaction:LEU:98      1
Name: 99, dtype: object

>  <hbond:LEU:98>  (100) 
hbond:LEU:98    0.0
hbond:LEU:98      0
Name: 99, dtype: object

>  <halogenbond:LEU:98>  (100) 
halogenbond:LEU:98    NaN
halogenbond:LEU:98     -1
Name: 99, dtype: object

>  <hbond:MET:99>  (100) 
hbond:MET:99    0.0
hbond:MET:99      0
Name: 99, dtype: object

>  <hydroph_interaction:MET:99>  (100) 
hydroph_interaction:MET:99    0.0
hydroph_interaction:MET:99      0
Name: 99, dtype: object

>  <halogenbond:MET:99>  (100) 
halogenbond:MET:99    0.0
halogenbond:MET:99      0
Name: 99, dtype: object

>  <hydroph_interaction:LEU:100>  (100) 
hydroph_interaction:LEU:100    1.0
hydroph_interaction:LEU:100      1
Name: 99, dtype: object

>  <hbond:LEU:100>  (100) 
hbond:LEU:100    0.0
hbond:LEU:100      0
Name: 99, dtype: object

>  <hbond:ALA:101>  (100) 
hbond:ALA:101    0.0
hbond:ALA:101      0
Name: 99, dtype: object

>  <hydroph_interaction:ALA:101>  (100) 
hydroph_interaction:ALA:101    0.0
hydroph_interaction:ALA:101      0
Name: 99, dtype: object

>  <hydroph_interaction:VAL:102>  (100) 
hydroph_interaction:VAL:102    0.0
hydroph_interaction:VAL:102      0
Name: 99, dtype: object

>  <hbond:VAL:102>  (100) 
hbond:VAL:102    0.0
hbond:VAL:102      0
Name: 99, dtype: object

>  <hbond:GLY:103>  (100) 
hbond:GLY:103    0.0
hbond:GLY:103      0
Name: 99, dtype: object

>  <halogenbond:GLY:103>  (100) 
halogenbond:GLY:103    0.0
halogenbond:GLY:103      0
Name: 99, dtype: object

>  <hbond:HIS:104>  (100) 
hbond:HIS:104    0.0
hbond:HIS:104      0
Name: 99, dtype: object

>  <saltbridge:HIS:104>  (100) 
saltbridge:HIS:104    0.0
saltbridge:HIS:104      0
Name: 99, dtype: object

>  <pication:HIS:104>  (100) 
pication:HIS:104    0.0
pication:HIS:104      0
Name: 99, dtype: object

>  <halogenbond:HIS:104>  (100) 
halogenbond:HIS:104    0.0
halogenbond:HIS:104      0
Name: 99, dtype: object

>  <hydroph_interaction:HIS:104>  (100) 
hydroph_interaction:HIS:104    0.0
hydroph_interaction:HIS:104      0
Name: 99, dtype: object

>  <pistack:HIS:104>  (100) 
pistack:HIS:104    0.0
pistack:HIS:104      0
Name: 99, dtype: object

>  <halogenbond:SER:105>  (100) 
halogenbond:SER:105    0.0
halogenbond:SER:105      0
Name: 99, dtype: object

>  <hbond:SER:105>  (100) 
hbond:SER:105    0.0
hbond:SER:105      0
Name: 99, dtype: object

>  <hbond:GLU:106>  (100) 
hbond:GLU:106    0.0
hbond:GLU:106      0
Name: 99, dtype: object

>  <hydroph_interaction:GLU:106>  (100) 
hydroph_interaction:GLU:106    0.0
hydroph_interaction:GLU:106      0
Name: 99, dtype: object

>  <saltbridge:GLU:106>  (100) 
saltbridge:GLU:106    0.0
saltbridge:GLU:106      0
Name: 99, dtype: object

>  <halogenbond:GLU:106>  (100) 
halogenbond:GLU:106    0.0
halogenbond:GLU:106      0
Name: 99, dtype: object

>  <hydroph_interaction:PRO:107>  (100) 
hydroph_interaction:PRO:107    0
hydroph_interaction:PRO:107    0
Name: 99, dtype: object

>  <hbond:PRO:107>  (100) 
hbond:PRO:107    0.0
hbond:PRO:107      0
Name: 99, dtype: object

>  <halogenbond:PRO:107>  (100) 
halogenbond:PRO:107    0.0
halogenbond:PRO:107      0
Name: 99, dtype: object

>  <hbond:GLY:108>  (100) 
hbond:GLY:108    0.0
hbond:GLY:108      0
Name: 99, dtype: object

>  <halogenbond:GLY:108>  (100) 
halogenbond:GLY:108    0.0
halogenbond:GLY:108      0
Name: 99, dtype: object

>  <hbond:ASP:109>  (100) 
hbond:ASP:109    0.0
hbond:ASP:109      0
Name: 99, dtype: object

>  <hydroph_interaction:ASP:109>  (100) 
hydroph_interaction:ASP:109    0.0
hydroph_interaction:ASP:109      0
Name: 99, dtype: object

>  <saltbridge:ASP:109>  (100) 
saltbridge:ASP:109    0.0
saltbridge:ASP:109      0
Name: 99, dtype: object

>  <halogenbond:CYS:110>  (100) 
halogenbond:CYS:110    0.0
halogenbond:CYS:110      0
Name: 99, dtype: object

>  <hbond:CYS:110>  (100) 
hbond:CYS:110    0.0
hbond:CYS:110      0
Name: 99, dtype: object

>  <hbond:GLY:111>  (100) 
hbond:GLY:111    0.0
hbond:GLY:111      0
Name: 99, dtype: object

>  <hbond:GLY:112>  (100) 
hbond:GLY:112    0.0
hbond:GLY:112      0
Name: 99, dtype: object

>  <hbond:ILE:113>  (100) 
hbond:ILE:113    0.0
hbond:ILE:113      0
Name: 99, dtype: object

>  <hydroph_interaction:LEU:114>  (100) 
hydroph_interaction:LEU:114    0.0
hydroph_interaction:LEU:114      0
Name: 99, dtype: object

>  <hbond:LEU:114>  (100) 
hbond:LEU:114    0.0
hbond:LEU:114      0
Name: 99, dtype: object

>  <hydroph_interaction:ILE:123>  (100) 
hydroph_interaction:ILE:123    0.0
hydroph_interaction:ILE:123      0
Name: 99, dtype: object

>  <hbond:ILE:123>  (100) 
hbond:ILE:123    0.0
hbond:ILE:123      0
Name: 99, dtype: object

>  <hydroph_interaction:VAL:124>  (100) 
hydroph_interaction:VAL:124    0.0
hydroph_interaction:VAL:124      0
Name: 99, dtype: object

>  <hbond:VAL:124>  (100) 
hbond:VAL:124    0.0
hbond:VAL:124      0
Name: 99, dtype: object

>  <halogenbond:VAL:124>  (100) 
halogenbond:VAL:124    0.0
halogenbond:VAL:124      0
Name: 99, dtype: object

>  <hbond:SER:125>  (100) 
hbond:SER:125    0
hbond:SER:125    0
Name: 99, dtype: object

>  <halogenbond:SER:125>  (100) 
halogenbond:SER:125    0.0
halogenbond:SER:125      0
Name: 99, dtype: object

>  <hydroph_interaction:THR:126>  (100) 
hydroph_interaction:THR:126    0.0
hydroph_interaction:THR:126      0
Name: 99, dtype: object

>  <hbond:THR:126>  (100) 
hbond:THR:126    0.0
hbond:THR:126      0
Name: 99, dtype: object

>  <halogenbond:THR:126>  (100) 
halogenbond:THR:126    0.0
halogenbond:THR:126      0
Name: 99, dtype: object

>  <hbond:GLY:127>  (100) 
hbond:GLY:127    0
hbond:GLY:127    0
Name: 99, dtype: object

>  <halogenbond:GLY:127>  (100) 
halogenbond:GLY:127    0.0
halogenbond:GLY:127      0
Name: 99, dtype: object

>  <hydroph_interaction:GLY:127>  (100) 
hydroph_interaction:GLY:127    0.0
hydroph_interaction:GLY:127      0
Name: 99, dtype: object

>  <hbond:GLY:128>  (100) 
hbond:GLY:128    0.0
hbond:GLY:128      0
Name: 99, dtype: object

>  <halogenbond:GLY:128>  (100) 
halogenbond:GLY:128    0.0
halogenbond:GLY:128      0
Name: 99, dtype: object

>  <hydroph_interaction:GLY:128>  (100) 
hydroph_interaction:GLY:128    0.0
hydroph_interaction:GLY:128      0
Name: 99, dtype: object

>  <hbond:ASN:129>  (100) 
hbond:ASN:129    0.0
hbond:ASN:129      0
Name: 99, dtype: object

>  <hydroph_interaction:ASN:129>  (100) 
hydroph_interaction:ASN:129    0.0
hydroph_interaction:ASN:129      0
Name: 99, dtype: object

>  <halogenbond:ASN:129>  (100) 
halogenbond:ASN:129    0.0
halogenbond:ASN:129      0
Name: 99, dtype: object

>  <hbond:GLY:130>  (100) 
hbond:GLY:130    0.0
hbond:GLY:130      0
Name: 99, dtype: object

>  <hbond:LEU:131>  (100) 
hbond:LEU:131    0.0
hbond:LEU:131      0
Name: 99, dtype: object

>  <hydroph_interaction:LEU:131>  (100) 
hydroph_interaction:LEU:131    1.0
hydroph_interaction:LEU:131      1
Name: 99, dtype: object

>  <halogenbond:LEU:131>  (100) 
halogenbond:LEU:131    0.0
halogenbond:LEU:131      0
Name: 99, dtype: object

>  <hydroph_interaction:VAL:132>  (100) 
hydroph_interaction:VAL:132    0.0
hydroph_interaction:VAL:132      0
Name: 99, dtype: object

>  <hbond:VAL:132>  (100) 
hbond:VAL:132    0.0
hbond:VAL:132      0
Name: 99, dtype: object

>  <hbond:GLY:133>  (100) 
hbond:GLY:133    0.0
hbond:GLY:133      0
Name: 99, dtype: object

>  <halogenbond:GLY:133>  (100) 
halogenbond:GLY:133    0.0
halogenbond:GLY:133      0
Name: 99, dtype: object

>  <hydroph_interaction:PHE:134>  (100) 
hydroph_interaction:PHE:134    0.0
hydroph_interaction:PHE:134      0
Name: 99, dtype: object

>  <hbond:PHE:134>  (100) 
hbond:PHE:134    0.0
hbond:PHE:134      0
Name: 99, dtype: object

>  <pistack:PHE:134>  (100) 
pistack:PHE:134    0.0
pistack:PHE:134      0
Name: 99, dtype: object

>  <pication:PHE:134>  (100) 
pication:PHE:134    0.0
pication:PHE:134      0
Name: 99, dtype: object

>  <halogenbond:PHE:134>  (100) 
halogenbond:PHE:134    NaN
halogenbond:PHE:134     -1
Name: 99, dtype: object

>  <hydroph_interaction:ALA:135>  (100) 
hydroph_interaction:ALA:135    0.0
hydroph_interaction:ALA:135      0
Name: 99, dtype: object

>  <hbond:ALA:135>  (100) 
hbond:ALA:135    0.0
hbond:ALA:135      0
Name: 99, dtype: object

$$$$
