ver_1.2
     RDKit          3D

 14 15  0  0  0  0  0  0  0  0999 V2000
   -2.6228   -2.0514   -0.7741 C   0  0  0  0  0  0  0  0  0  0  0  0
   -2.0209   -0.7526   -0.5292 N   0  0  0  0  0  0  0  0  0  0  0  0
   -2.6750    0.4218   -0.5852 C   0  0  0  0  0  0  0  0  0  0  0  0
   -1.8256    1.4230   -0.3072 N   0  0  0  0  0  0  0  0  0  0  0  0
   -0.5959    0.9168   -0.0635 C   0  0  0  0  0  0  0  0  0  0  0  0
   -0.7465   -0.4575   -0.2101 C   0  0  0  0  0  0  0  0  0  0  0  0
    0.3605   -1.2455   -0.0177 C   0  0  0  0  0  0  0  0  0  0  0  0
    0.2345   -2.4862   -0.1477 O   0  0  0  0  0  0  0  0  0  0  0  0
    1.5201   -0.6448    0.2997 N   0  0  0  0  0  0  0  0  0  0  0  0
    1.6466    0.6870    0.4371 C   0  0  0  0  0  0  0  0  0  0  0  0
    2.7362    1.2417    0.7346 O   0  0  0  0  0  0  0  0  0  0  0  0
    0.5873    1.4816    0.2564 N   0  0  0  0  0  0  0  0  0  0  0  0
    0.7113    2.9129    0.4013 C   0  0  0  0  0  0  0  0  0  0  0  0
    2.6902   -1.4467    0.5055 C   0  0  0  0  0  0  0  0  0  0  0  0
  1  2  1  0
  2  3  1  0
  3  4  2  0
  4  5  1  0
  5  6  2  0
  6  7  1  0
  7  8  2  0
  7  9  1  0
  9 10  1  0
 10 11  2  0
 10 12  1  0
 12 13  1  0
  9 14  1  0
  6  2  1  0
 12  5  1  0
M  END
>  <ref_url>  (1) 
https://www.example.com

>  <submitter_name>  (1) 
Matteo Ferla

>  <submitter_email>  (1) 
matteo.ferla@stats.ox.ac.uk

>  <submitter_institution>  (1) 
University of Oxford

>  <generation_date>  (1) 
2023-11-14

>  <method>  (1) 
A71-Fragmenstein

>  <rationale>  (1) 
rationale

>  <cluster_rank>  (1) 
cluster_rank

>  <N_interactions>  (1) 
N_interactions

>  <N_interactions_lost>  (1) 
N_interactions_lost

>  <∆∆G>  (1) 
∆∆G

>  <comRMSD>  (1) 
comRMSD

>  <N_rotatable_bonds>  (1) 
N_rotatable_bonds

>  <N_unconstrained_atoms>  (1) 
N_unconstrained_atoms

>  <N_constrained_atoms>  (1) 
N_constrained_atoms

$$$$
Z57189107
     RDKit          3D

 25 26  0  0  0  0  0  0  0  0999 V2000
   11.9170   14.5440   22.4290 C   0  0  0  0  0  0  0  0  0  0  0  0
   11.1560   13.7200   23.4940 C   0  0  0  0  0  0  0  0  0  0  0  0
   11.1830   14.0140   24.6800 O   0  0  0  0  0  0  0  0  0  0  0  0
   10.4990   12.6810   22.8930 N   0  0  0  0  0  0  0  0  0  0  0  0
    9.8710   11.5410   23.4490 C   0  0  0  0  0  0  0  0  0  0  0  0
   10.3990   10.1980   22.9990 C   0  0  0  0  0  0  0  0  0  0  0  0
    9.8480    9.0530   23.4670 C   0  0  0  0  0  0  0  0  0  0  0  0
    8.8270    9.1720   24.3330 C   0  0  0  0  0  0  0  0  0  0  0  0
    8.3890    8.0060   24.7170 F   0  0  0  0  0  0  0  0  0  0  0  0
    8.2560   10.3420   24.8120 C   0  0  0  0  0  0  0  0  0  0  0  0
    7.0970   10.1460   25.7800 C   0  0  0  0  0  0  0  0  0  0  0  0
    6.3660   11.3640   26.3960 C   0  0  0  0  0  0  0  0  0  0  0  0
    6.9480   12.5610   25.9170 C   0  0  0  0  0  0  0  0  0  0  0  0
    8.1320   12.6750   24.9240 C   0  0  0  0  0  0  0  0  0  0  0  0
    8.7650   11.5800   24.3870 C   0  0  0  0  0  0  0  0  0  0  0  0
   11.7670   14.1230   21.4270 H   0  0  0  0  0  0  0  0  0  0  0  0
   12.9910   14.5520   22.6210 H   0  0  0  0  0  0  0  0  0  0  0  0
   11.5780   15.5870   22.4160 H   0  0  0  0  0  0  0  0  0  0  0  0
   10.8660   12.4820   21.9590 H   0  0  0  0  0  0  0  0  0  0  0  0
   11.2100   10.1010   22.3010 H   0  0  0  0  0  0  0  0  0  0  0  0
   10.2170    8.0810   23.1550 H   0  0  0  0  0  0  0  0  0  0  0  0
    6.7690    9.1520   26.0490 H   0  0  0  0  0  0  0  0  0  0  0  0
    5.5340   11.2030   27.0900 H   0  0  0  0  0  0  0  0  0  0  0  0
    6.5190   13.4910   26.2810 H   0  0  0  0  0  0  0  0  0  0  0  0
    8.4410   13.6820   24.6680 H   0  0  0  0  0  0  0  0  0  0  0  0
  1  2  1  0
  2  3  2  0
  2  4  1  0
  4  5  1  0
  5  6  2  0
  6  7  1  0
  7  8  2  0
  8  9  1  0
  8 10  1  0
 10 11  2  0
 11 12  1  0
 12 13  2  0
 13 14  1  0
 14 15  2  0
 15  5  1  0
 15 10  1  0
  1 16  1  0
  1 17  1  0
  1 18  1  0
  4 19  1  0
  6 20  1  0
  7 21  1  0
 11 22  1  0
 12 23  1  0
 13 24  1  0
 14 25  1  0
A    1
 C1 
A    2
 C2 
A    3
 O1 
A    4
 N1 
A    5
 C3 
A    6
 C4 
A    7
 C5 
A    8
 C6 
A    9
 F1 
A   10
 C7 
A   11
 C8 
A   12
 C9 
A   13
 C10
A   14
 C11
A   15
 C12
A   16
 H1 
A   17
 H2 
A   18
 H3 
A   19
 H4 
A   20
 H5 
A   21
 H6 
A   22
 H7 
A   23
 H8 
A   24
 H9 
A   25
 H10
M  END
>  <ref_pdb>  (1) 
x0554_0A

>  <ref_mols>  (1) 
x0554_0A,x0451_0A

>  <original SMILES>  (1) 
CC(=O)Nc1ccc(F)c2ccccc12

>  <rationale>  (1) 
info cluster #5 (rank 1); halogenbond:D109; hbond:S125; hydroph_interaction:Y89+V124; 

>  <cluster_rank>  (1) 
1

>  <N_interactions>  (1) 
4

>  <N_interactions_lost>  (1) 
1

>  <∆∆G>  (1) 
-6.592294

>  <comRMSD>  (1) 
0.799959

>  <N_rotatable_bonds>  (1) 
2

>  <N_unconstrained_atoms>  (1) 
1

>  <N_constrained_atoms>  (1) 
16

$$$$
Z1509204059
     RDKit          3D

 27 28  0  0  0  0  0  0  0  0999 V2000
   11.9890   14.5250   21.9300 C   0  0  0  0  0  0  0  0  0  0  0  0
   11.5500   13.6910   23.1040 C   0  0  0  0  0  0  0  0  0  0  0  0
   11.3750   14.1980   24.2060 O   0  0  0  0  0  0  0  0  0  0  0  0
   11.3610   12.3680   22.8020 N   0  0  0  0  0  0  0  0  0  0  0  0
   10.3880   11.5830   23.4090 C   0  0  0  0  0  0  0  0  0  0  0  0
   10.2050   10.2080   23.2040 C   0  0  0  0  0  0  0  0  0  0  0  0
    9.1890    9.5400   23.8810 C   0  0  0  0  0  0  0  0  0  0  0  0
    9.0100    8.1920   23.6660 C   0  0  0  0  0  0  0  0  0  0  0  0
    8.3750   10.2860   24.7660 C   0  0  0  0  0  0  0  0  0  0  0  0
    7.3340    9.7940   25.5350 C   0  0  0  0  0  0  0  0  0  0  0  0
    6.5720   10.5900   26.3670 C   0  0  0  0  0  0  0  0  0  0  0  0
    6.8500   11.9310   26.4510 C   0  0  0  0  0  0  0  0  0  0  0  0
    7.8910   12.4500   25.7060 C   0  0  0  0  0  0  0  0  0  0  0  0
    8.6650   11.6520   24.8630 C   0  0  0  0  0  0  0  0  0  0  0  0
    9.6210   12.2640   24.2210 N   0  0  0  0  0  0  0  0  0  0  0  0
   11.2700   15.3230   21.7280 H   0  0  0  0  0  0  0  0  0  0  0  0
   12.9650   14.9640   22.1470 H   0  0  0  0  0  0  0  0  0  0  0  0
   12.0760   13.8830   21.0510 H   0  0  0  0  0  0  0  0  0  0  0  0
   11.4670   12.1380   21.8240 H   0  0  0  0  0  0  0  0  0  0  0  0
   10.8360    9.6400   22.5280 H   0  0  0  0  0  0  0  0  0  0  0  0
    8.1790    8.0800   22.9630 H   0  0  0  0  0  0  0  0  0  0  0  0
    8.7230    7.6000   24.5290 H   0  0  0  0  0  0  0  0  0  0  0  0
    9.8560    7.6770   23.2260 H   0  0  0  0  0  0  0  0  0  0  0  0
    7.1000    8.7690   25.5020 H   0  0  0  0  0  0  0  0  0  0  0  0
    5.7630   10.1540   26.9470 H   0  0  0  0  0  0  0  0  0  0  0  0
    6.2610   12.5770   27.0980 H   0  0  0  0  0  0  0  0  0  0  0  0
    8.0780   13.5110   25.8080 H   0  0  0  0  0  0  0  0  0  0  0  0
  1  2  1  0
  2  3  2  0
  2  4  1  0
  4  5  1  0
  5  6  2  0
  6  7  1  0
  7  8  1  0
  7  9  2  0
  9 10  1  0
 10 11  2  0
 11 12  1  0
 12 13  2  0
 13 14  1  0
 14 15  2  0
 15  5  1  0
 14  9  1  0
  1 16  1  0
  1 17  1  0
  1 18  1  0
  4 19  1  0
  6 20  1  0
  8 21  1  0
  8 22  1  0
  8 23  1  0
 10 24  1  0
 11 25  1  0
 12 26  1  0
 13 27  1  0
A    1
 C1 
A    2
 C2 
A    3
 O1 
A    4
 N1 
A    5
 C3 
A    6
 C4 
A    7
 C5 
A    8
 C6 
A    9
 C7 
A   10
 C8 
A   11
 C9 
A   12
 C10
A   13
 C11
A   14
 C12
A   15
 N2 
A   16
 H1 
A   17
 H2 
A   18
 H3 
A   19
 H4 
A   20
 H5 
A   21
 H6 
A   22
 H7 
A   23
 H8 
A   24
 H9 
A   25
 H10
A   26
 H11
A   27
 H12
M  END
>  <ref_pdb>  (2) 
x0554_0A

>  <ref_mols>  (2) 
x0451_0A,x0554_0A

>  <original SMILES>  (2) 
CC(=O)Nc1cc(C)c2ccccc2n1

>  <rationale>  (2) 
info cluster #8 (rank 1); hbond:S125; hydroph_interaction:Y89+D109+V124; 

>  <cluster_rank>  (2) 
1

>  <N_interactions>  (2) 
4

>  <N_interactions_lost>  (2) 
1

>  <∆∆G>  (2) 
-10.049581

>  <comRMSD>  (2) 
0.932843

>  <N_rotatable_bonds>  (2) 
3

>  <N_unconstrained_atoms>  (2) 
2

>  <N_constrained_atoms>  (2) 
15

$$$$
PV_006093142965
     RDKit          3D

 26 26  0  0  0  0  0  0  0  0999 V2000
   10.1630   15.6130   19.2370 N   0  0  0  0  0  0  0  0  0  0  0  0
   10.7230   14.8110   20.1950 C   0  0  0  0  0  0  0  0  0  0  0  0
   11.9070   14.2080   20.0430 N   0  0  0  0  0  0  0  0  0  0  0  0
    9.9940   14.6490   21.3370 N   0  0  0  0  0  0  0  0  0  0  0  0
   10.4080   14.2620   22.6140 C   0  0  0  0  0  0  0  0  0  0  0  0
   11.5270   14.4590   23.0450 O   0  0  0  0  0  0  0  0  0  0  0  0
    9.2990   13.6410   23.4390 C   0  0  1  0  0  0  0  0  0  0  0  0
    8.0080   14.0810   22.8630 N   0  0  0  0  0  0  0  0  0  0  0  0
    9.1970   12.2490   23.7810 C   0  0  0  0  0  0  0  0  0  0  0  0
   10.1140   11.1580   23.3310 C   0  0  0  0  0  0  0  0  0  0  0  0
    9.9420    9.8010   23.7110 C   0  0  0  0  0  0  0  0  0  0  0  0
    8.8040    9.4820   24.5950 C   0  0  0  0  0  0  0  0  0  0  0  0
    7.9650   10.5120   25.0050 C   0  0  0  0  0  0  0  0  0  0  0  0
    8.1320   11.8490   24.6270 C   0  0  0  0  0  0  0  0  0  0  0  0
   10.7020   15.7200   18.3870 H   0  0  0  0  0  0  0  0  0  0  0  0
   12.3430   14.3840   19.1330 H   0  0  0  0  0  0  0  0  0  0  0  0
   11.9210   13.2160   20.2680 H   0  0  0  0  0  0  0  0  0  0  0  0
    9.0200   14.9170   21.2650 H   0  0  0  0  0  0  0  0  0  0  0  0
    9.3740   14.1660   24.3960 H   0  0  0  0  0  0  0  0  0  0  0  0
    7.8560   13.6140   21.9670 H   0  0  0  0  0  0  0  0  0  0  0  0
    7.2570   13.7250   23.4650 H   0  0  0  0  0  0  0  0  0  0  0  0
   10.9590   11.3880   22.6800 H   0  0  0  0  0  0  0  0  0  0  0  0
   10.6740    9.0860   23.3170 H   0  0  0  0  0  0  0  0  0  0  0  0
    8.6470    8.4430   24.9090 H   0  0  0  0  0  0  0  0  0  0  0  0
    7.1250   10.2560   25.6600 H   0  0  0  0  0  0  0  0  0  0  0  0
    7.4200   12.5840   24.9990 H   0  0  0  0  0  0  0  0  0  0  0  0
  1  2  2  3
  2  3  1  0
  2  4  1  0
  4  5  1  0
  5  6  2  0
  5  7  1  0
  7  8  1  0
  7  9  1  0
  9 10  2  0
 10 11  1  0
 11 12  2  0
 12 13  1  0
 13 14  2  0
 14  9  1  0
  1 15  1  0
  3 16  1  0
  3 17  1  0
  4 18  1  0
  7 19  1  1
  8 20  1  0
  8 21  1  0
 10 22  1  0
 11 23  1  0
 12 24  1  0
 13 25  1  0
 14 26  1  0
A    1
 N1 
A    2
 C1 
A    3
 N2 
A    4
 N3 
A    5
 C2 
A    6
 O1 
A    7
 C3 
A    8
 N4 
A    9
 C4 
A   10
 C5 
A   11
 C6 
A   12
 C7 
A   13
 C8 
A   14
 C9 
A   15
 H1 
A   16
 H2 
A   17
 H3 
A   18
 H4 
A   19
 H5 
A   20
 H6 
A   21
 H7 
A   22
 H8 
A   23
 H9 
A   24
 H10
A   25
 H11
A   26
 H12
M  END
>  <ref_pdb>  (3) 
x0554_0A

>  <ref_mols>  (3) 
x0566_0A

>  <original SMILES>  (3) 
N=C(N)NC(=O)[C@@H](N)c1ccccc1

>  <rationale>  (3) 
info cluster #6 (rank 1); hbond:H21+G127; saltbridge:D39; 

>  <cluster_rank>  (3) 
1

>  <N_interactions>  (3) 
4

>  <N_interactions_lost>  (3) 
0

>  <∆∆G>  (3) 
-5.05928

>  <comRMSD>  (3) 
0.939514

>  <N_rotatable_bonds>  (3) 
3

>  <N_unconstrained_atoms>  (3) 
2

>  <N_constrained_atoms>  (3) 
13

$$$$
Z1426819182
     RDKit          3D

 27 28  0  0  0  0  0  0  0  0999 V2000
   10.6970    9.5060   22.5330 C   0  0  0  0  0  0  0  0  0  0  0  0
    9.7330   10.0500   23.4540 C   0  0  0  0  0  0  0  0  0  0  0  0
    8.9890    8.9800   24.0920 C   0  0  0  0  0  0  0  0  0  0  0  0
    8.0460    9.2740   24.9770 C   0  0  0  0  0  0  0  0  0  0  0  0
    7.7460   10.6520   25.2980 C   0  0  0  0  0  0  0  0  0  0  0  0
    6.7340   10.7970   26.2160 C   0  0  0  0  0  0  0  0  0  0  0  0
    6.3440   12.0440   26.6090 C   0  0  0  0  0  0  0  0  0  0  0  0
    6.9820   13.1520   26.0760 C   0  0  0  0  0  0  0  0  0  0  0  0
    8.0190   13.0040   25.1380 C   0  0  0  0  0  0  0  0  0  0  0  0
    8.4490   11.7320   24.7000 C   0  0  0  0  0  0  0  0  0  0  0  0
    9.4920   11.4130   23.7390 C   0  0  0  0  0  0  0  0  0  0  0  0
   10.2390   12.3740   23.0900 N   0  0  0  0  0  0  0  0  0  0  0  0
   10.9590   13.4290   23.6020 C   0  0  0  0  0  0  0  0  0  0  0  0
   11.6360   14.0910   22.6130 N   0  0  0  0  0  0  0  0  0  0  0  0
   11.0500   13.8080   24.7530 O   0  0  0  0  0  0  0  0  0  0  0  0
   10.1860    9.1000   21.6630 H   0  0  0  0  0  0  0  0  0  0  0  0
   11.3200   10.3190   22.2360 H   0  0  0  0  0  0  0  0  0  0  0  0
   11.2940    8.7220   22.9760 H   0  0  0  0  0  0  0  0  0  0  0  0
    9.2650    7.9630   23.7940 H   0  0  0  0  0  0  0  0  0  0  0  0
    7.5120    8.4980   25.4520 H   0  0  0  0  0  0  0  0  0  0  0  0
    6.2330    9.9250   26.6370 H   0  0  0  0  0  0  0  0  0  0  0  0
    5.5440   12.1620   27.3290 H   0  0  0  0  0  0  0  0  0  0  0  0
    6.6750   14.1470   26.3860 H   0  0  0  0  0  0  0  0  0  0  0  0
    8.4670   13.9180   24.7660 H   0  0  0  0  0  0  0  0  0  0  0  0
   10.6190   12.1030   22.1790 H   0  0  0  0  0  0  0  0  0  0  0  0
   11.1330   14.0790   21.7340 H   0  0  0  0  0  0  0  0  0  0  0  0
   11.9770   15.0060   22.8640 H   0  0  0  0  0  0  0  0  0  0  0  0
  1  2  1  0
  2  3  2  0
  3  4  1  0
  4  5  2  0
  5  6  1  0
  6  7  2  0
  7  8  1  0
  8  9  2  0
  9 10  1  0
 10 11  2  0
 11 12  1  0
 12 13  1  0
 13 14  1  0
 13 15  2  0
 11  2  1  0
 10  5  1  0
  1 16  1  0
  1 17  1  0
  1 18  1  0
  3 19  1  0
  4 20  1  0
  6 21  1  0
  7 22  1  0
  8 23  1  0
  9 24  1  0
 12 25  1  0
 14 26  1  0
 14 27  1  0
A    1
 C1 
A    2
 C2 
A    3
 C3 
A    4
 C4 
A    5
 C5 
A    6
 C6 
A    7
 C7 
A    8
 C8 
A    9
 C9 
A   10
 C10
A   11
 C11
A   12
 N1 
A   13
 C12
A   14
 N2 
A   15
 O1 
A   16
 H1 
A   17
 H2 
A   18
 H3 
A   19
 H4 
A   20
 H5 
A   21
 H6 
A   22
 H7 
A   23
 H8 
A   24
 H9 
A   25
 H10
A   26
 H11
A   27
 H12
M  END
>  <ref_pdb>  (4) 
x0554_0A

>  <ref_mols>  (4) 
x0554_0A,x0451_0A

>  <original SMILES>  (4) 
Cc1ccc2ccccc2c1NC(N)=O

>  <rationale>  (4) 
info cluster #0 (rank 1); hbond:S125; hydroph_interaction:A110+V124; 

>  <cluster_rank>  (4) 
1

>  <N_interactions>  (4) 
4

>  <N_interactions_lost>  (4) 
1

>  <∆∆G>  (4) 
-6.897886

>  <comRMSD>  (4) 
0.806523

>  <N_rotatable_bonds>  (4) 
2

>  <N_unconstrained_atoms>  (4) 
1

>  <N_constrained_atoms>  (4) 
15

$$$$
PV_002910358312
     RDKit          3D

 31 33  0  0  0  0  0  0  0  0999 V2000
   11.6640   15.7880   21.6810 C   0  0  0  0  0  0  0  0  0  0  0  0
   11.1410   14.8980   22.8000 C   0  0  0  0  0  0  0  0  0  0  0  0
   10.6600   13.6970   22.4530 N   0  0  0  0  0  0  0  0  0  0  0  0
   10.2330   13.0530   23.5780 C   0  0  0  0  0  0  0  0  0  0  0  0
    9.6600   11.8460   23.7750 C   0  0  0  0  0  0  0  0  0  0  0  0
   10.0190   10.5180   23.1630 C   0  0  0  0  0  0  0  0  0  0  0  0
    9.1290    9.6550   23.7150 N   0  0  0  0  0  0  0  0  0  0  0  0
    9.0830    8.2490   23.4210 C   0  0  0  0  0  0  0  0  0  0  0  0
    8.2370   10.3520   24.6430 C   0  0  0  0  0  0  0  0  0  0  0  0
    7.2130    9.8870   25.4180 C   0  0  0  0  0  0  0  0  0  0  0  0
    6.4280   10.8200   26.3000 C   0  0  0  0  0  0  0  0  0  0  0  0
    6.8130   12.1490   26.2730 C   0  0  0  0  0  0  0  0  0  0  0  0
    7.8670   12.5860   25.4730 C   0  0  0  0  0  0  0  0  0  0  0  0
    8.5830   11.6900   24.6550 C   0  0  0  0  0  0  0  0  0  0  0  0
   10.4260   13.7990   24.6460 N   0  0  0  0  0  0  0  0  0  0  0  0
   10.9740   14.9260   24.2050 N   0  0  0  0  0  0  0  0  0  0  0  0
   11.2110   15.7970   25.3300 C   0  0  0  0  0  0  0  0  0  0  0  0
   12.7590   15.8120   21.6820 H   0  0  0  0  0  0  0  0  0  0  0  0
   11.3760   15.4110   20.7000 H   0  0  0  0  0  0  0  0  0  0  0  0
   11.2870   16.8070   21.7570 H   0  0  0  0  0  0  0  0  0  0  0  0
   10.7780   10.2250   22.4510 H   0  0  0  0  0  0  0  0  0  0  0  0
    8.8290    7.7190   24.3440 H   0  0  0  0  0  0  0  0  0  0  0  0
   10.0630    7.9460   23.0480 H   0  0  0  0  0  0  0  0  0  0  0  0
    8.3290    8.0410   22.6620 H   0  0  0  0  0  0  0  0  0  0  0  0
    6.9590    8.8590   25.4110 H   0  0  0  0  0  0  0  0  0  0  0  0
    5.6080   10.4650   26.9220 H   0  0  0  0  0  0  0  0  0  0  0  0
    6.2860   12.8700   26.8880 H   0  0  0  0  0  0  0  0  0  0  0  0
    8.1370   13.6370   25.4840 H   0  0  0  0  0  0  0  0  0  0  0  0
   11.6070   16.7410   25.0170 H   0  0  0  0  0  0  0  0  0  0  0  0
   11.9020   15.3050   26.0140 H   0  0  0  0  0  0  0  0  0  0  0  0
   10.2660   15.9500   25.8600 H   0  0  0  0  0  0  0  0  0  0  0  0
  1  2  1  0
  2  3  2  0
  3  4  1  0
  4  5  1  0
  5  6  2  0
  6  7  1  0
  7  8  1  0
  7  9  1  0
  9 10  2  0
 10 11  1  0
 11 12  2  0
 12 13  1  0
 13 14  2  0
  4 15  2  0
 15 16  1  0
 16 17  1  0
 16  2  1  0
 14  5  1  0
 14  9  1  0
  1 18  1  0
  1 19  1  0
  1 20  1  0
  6 21  1  0
  8 22  1  0
  8 23  1  0
  8 24  1  0
 10 25  1  0
 11 26  1  0
 12 27  1  0
 13 28  1  0
 17 29  1  0
 17 30  1  0
 17 31  1  0
A    1
 C1 
A    2
 C2 
A    3
 N1 
A    4
 C3 
A    5
 C4 
A    6
 C5 
A    7
 N2 
A    8
 C6 
A    9
 C7 
A   10
 C8 
A   11
 C9 
A   12
 C10
A   13
 C11
A   14
 C12
A   15
 N3 
A   16
 N4 
A   17
 C13
A   18
 H1 
A   19
 H2 
A   20
 H3 
A   21
 H4 
A   22
 H5 
A   23
 H6 
A   24
 H7 
A   25
 H8 
A   26
 H9 
A   27
 H10
A   28
 H11
A   29
 H12
A   30
 H13
A   31
 H14
M  END
>  <ref_pdb>  (5) 
x0554_0A

>  <ref_mols>  (5) 
x0451_0A

>  <original SMILES>  (5) 
Cc1nc(-c2cn(C)c3ccccc23)nn1C

>  <rationale>  (5) 
info cluster #2 (rank 1); hbond:S87; hydroph_interaction:Y89+Y90; saltbridge:E88; 

>  <cluster_rank>  (5) 
1

>  <N_interactions>  (5) 
4

>  <N_interactions_lost>  (5) 
1

>  <∆∆G>  (5) 
-7.81437

>  <comRMSD>  (5) 
0.883492

>  <N_rotatable_bonds>  (5) 
4

>  <N_unconstrained_atoms>  (5) 
1

>  <N_constrained_atoms>  (5) 
18

$$$$
Z3514569097
     RDKit          3D

 32 32  0  0  0  0  0  0  0  0999 V2000
   10.0190    8.9180   23.5880 C   0  0  0  0  0  0  0  0  0  0  0  0
    9.2760   10.1540   24.0730 C   0  0  0  0  0  0  0  0  0  0  0  0
    8.1760    9.9170   25.1130 C   0  0  0  0  0  0  0  0  0  0  0  0
    7.5640   11.0930   25.4680 N   0  0  0  0  0  0  0  0  0  0  0  0
    7.8630   12.3440   24.9940 C   0  0  0  0  0  0  0  0  0  0  0  0
    6.8910   13.6030   25.6540 Cl  0  0  0  0  0  0  0  0  0  0  0  0
    8.8570   12.5390   24.0780 C   0  0  0  0  0  0  0  0  0  0  0  0
    9.1110   13.7940   23.6590 O   0  0  0  0  0  0  0  0  0  0  0  0
   10.3320   13.9700   22.9790 C   0  0  0  0  0  0  0  0  0  0  0  0
   10.5860   15.2120   22.4510 C   0  0  0  0  0  0  0  0  0  0  0  0
   11.1430   16.0180   23.1820 O   0  0  0  0  0  0  0  0  0  0  0  0
   10.1520   15.5250   21.1730 C   0  0  0  0  0  0  0  0  0  0  0  0
    8.7290   15.3780   20.9550 C   0  0  0  0  0  0  0  0  0  0  0  0
   10.9760   14.7710   20.1180 C   0  0  0  0  0  0  0  0  0  0  0  0
   10.3310   17.0050   20.9220 C   0  0  0  0  0  0  0  0  0  0  0  0
    9.5640   11.4310   23.6170 C   0  0  0  0  0  0  0  0  0  0  0  0
   10.8630    8.7200   24.2540 H   0  0  0  0  0  0  0  0  0  0  0  0
    9.3550    8.0500   23.5610 H   0  0  0  0  0  0  0  0  0  0  0  0
   10.4100    9.0770   22.5790 H   0  0  0  0  0  0  0  0  0  0  0  0
    7.8420    8.9970   25.5750 H   0  0  0  0  0  0  0  0  0  0  0  0
   10.4240   13.2540   22.1560 H   0  0  0  0  0  0  0  0  0  0  0  0
   11.1460   13.7810   23.6870 H   0  0  0  0  0  0  0  0  0  0  0  0
    8.3160   14.6220   21.6280 H   0  0  0  0  0  0  0  0  0  0  0  0
    8.5490   15.0930   19.9230 H   0  0  0  0  0  0  0  0  0  0  0  0
    8.1860   16.3100   21.1350 H   0  0  0  0  0  0  0  0  0  0  0  0
   11.0230   15.3160   19.1710 H   0  0  0  0  0  0  0  0  0  0  0  0
   12.0080   14.6100   20.4540 H   0  0  0  0  0  0  0  0  0  0  0  0
   10.5450   13.7950   19.9020 H   0  0  0  0  0  0  0  0  0  0  0  0
   11.2280   17.3480   21.4230 H   0  0  0  0  0  0  0  0  0  0  0  0
   10.4200   17.2170   19.8490 H   0  0  0  0  0  0  0  0  0  0  0  0
    9.4860   17.5920   21.2970 H   0  0  0  0  0  0  0  0  0  0  0  0
   10.3610   11.5380   22.8870 H   0  0  0  0  0  0  0  0  0  0  0  0
  1  2  1  0
  2  3  2  0
  3  4  1  0
  4  5  2  0
  5  6  1  0
  5  7  1  0
  7  8  1  0
  8  9  1  0
  9 10  1  0
 10 11  2  0
 10 12  1  0
 12 13  1  0
 12 14  1  0
 12 15  1  0
  7 16  2  0
 16  2  1  0
  1 17  1  0
  1 18  1  0
  1 19  1  0
  3 20  1  0
  9 21  1  0
  9 22  1  0
 13 23  1  0
 13 24  1  0
 13 25  1  0
 14 26  1  0
 14 27  1  0
 14 28  1  0
 15 29  1  0
 15 30  1  0
 15 31  1  0
 16 32  1  0
A    1
 C1 
A    2
 C2 
A    3
 C3 
A    4
 N1 
A    5
 C4 
A    6
CL1 
A    7
 C5 
A    8
 O1 
A    9
 C6 
A   10
 C7 
A   11
 O2 
A   12
 C8 
A   13
 C9 
A   14
 C10
A   15
 C11
A   16
 C12
A   17
 H1 
A   18
 H2 
A   19
 H3 
A   20
 H4 
A   21
 H5 
A   22
 H6 
A   23
 H7 
A   24
 H8 
A   25
 H9 
A   26
 H10
A   27
 H11
A   28
 H12
A   29
 H13
A   30
 H14
A   31
 H15
A   32
 H16
M  END
>  <ref_pdb>  (6) 
x0554_0A

>  <ref_mols>  (6) 
x0416_0A

>  <original SMILES>  (6) 
Cc1cnc(Cl)c(OCC(=O)C(C)(C)C)c1

>  <rationale>  (6) 
info cluster #7 (rank 1); hbond:S87; hydroph_interaction:Y90+D109+V124+V84; 

>  <cluster_rank>  (6) 
1

>  <N_interactions>  (6) 
5

>  <N_interactions_lost>  (6) 
1

>  <∆∆G>  (6) 
-7.542305

>  <comRMSD>  (6) 
0.533608

>  <N_rotatable_bonds>  (6) 
4

>  <N_unconstrained_atoms>  (6) 
3

>  <N_constrained_atoms>  (6) 
13

$$$$
Z3521588488
     RDKit          3D

 29 29  0  0  0  0  0  0  0  0999 V2000
    8.9650    8.6010   23.7770 C   0  0  0  0  0  0  0  0  0  0  0  0
    8.7790    9.9960   24.2630 C   0  0  0  0  0  0  0  0  0  0  0  0
    9.8420   10.9710   23.7840 C   0  0  0  0  0  0  0  0  0  0  0  0
    9.7870   12.2960   24.1750 C   0  0  0  0  0  0  0  0  0  0  0  0
   10.8230   13.2570   23.7400 C   0  0  0  0  0  0  0  0  0  0  0  0
   10.6160   13.6700   22.3870 N   0  0  0  0  0  0  0  0  0  0  0  0
   10.5670   15.0090   22.1260 C   0  0  0  0  0  0  0  0  0  0  0  0
   10.8520   15.8520   22.9760 O   0  0  0  0  0  0  0  0  0  0  0  0
   10.1310   15.3490   20.7930 C   0  0  2  0  0  0  0  0  0  0  0  0
   10.9610   14.9540   19.7500 C   0  0  0  0  0  0  0  0  0  0  0  0
    9.9180   16.8130   20.7200 N   0  0  0  0  0  0  0  0  0  0  0  0
    8.7260   12.6750   24.9960 C   0  0  0  0  0  0  0  0  0  0  0  0
    7.7650   11.8500   25.4420 N   0  0  0  0  0  0  0  0  0  0  0  0
    7.8000   10.5610   25.0910 C   0  0  0  0  0  0  0  0  0  0  0  0
    6.4720    9.8190   25.8460 Cl  0  0  0  0  0  0  0  0  0  0  0  0
    8.3190    8.3830   22.9200 H   0  0  0  0  0  0  0  0  0  0  0  0
    8.7180    7.8800   24.5610 H   0  0  0  0  0  0  0  0  0  0  0  0
   10.0010    8.4380   23.4640 H   0  0  0  0  0  0  0  0  0  0  0  0
   10.6150   10.5400   23.1400 H   0  0  0  0  0  0  0  0  0  0  0  0
   11.8170   12.7920   23.7820 H   0  0  0  0  0  0  0  0  0  0  0  0
   10.8490   14.1280   24.4060 H   0  0  0  0  0  0  0  0  0  0  0  0
   10.8670   13.0080   21.6410 H   0  0  0  0  0  0  0  0  0  0  0  0
    9.1530   14.8890   20.6350 H   0  0  0  0  0  0  0  0  0  0  0  0
   12.0100   15.0620   20.0560 H   0  0  0  0  0  0  0  0  0  0  0  0
   10.8220   13.8870   19.5570 H   0  0  0  0  0  0  0  0  0  0  0  0
   10.8730   15.4460   18.7760 H   0  0  0  0  0  0  0  0  0  0  0  0
    8.9120   16.9870   20.7610 H   0  0  0  0  0  0  0  0  0  0  0  0
   10.2680   17.2730   21.5760 H   0  0  0  0  0  0  0  0  0  0  0  0
    8.6230   13.7120   25.3350 H   0  0  0  0  0  0  0  0  0  0  0  0
  1  2  1  0
  2  3  2  0
  3  4  1  0
  4  5  1  0
  5  6  1  0
  6  7  1  0
  7  8  2  0
  7  9  1  0
  9 10  1  0
  9 11  1  0
  4 12  2  0
 12 13  1  0
 13 14  2  0
 14 15  1  0
 14  2  1  0
  1 16  1  0
  1 17  1  0
  1 18  1  0
  3 19  1  0
  5 20  1  0
  5 21  1  0
  6 22  1  0
  9 23  1  6
 10 24  1  0
 10 25  1  0
 10 26  1  0
 11 27  1  0
 11 28  1  0
 12 29  1  0
A    1
 C1 
A    2
 C2 
A    3
 C3 
A    4
 C4 
A    5
 C5 
A    6
 N1 
A    7
 C6 
A    8
 O1 
A    9
 C7 
A   10
 C8 
A   11
 N2 
A   12
 C9 
A   13
 N3 
A   14
 C10
A   15
CL1 
A   16
 H1 
A   17
 H2 
A   18
 H3 
A   19
 H4 
A   20
 H5 
A   21
 H6 
A   22
 H7 
A   23
 H8 
A   24
 H9 
A   25
 H10
A   26
 H11
A   27
 H12
A   28
 H13
A   29
 H14
M  END
>  <ref_pdb>  (7) 
x0554_0A

>  <ref_mols>  (7) 
x0416_0A

>  <original SMILES>  (7) 
Cc1cc(CNC(=O)[C@H](C)N)cnc1Cl

>  <rationale>  (7) 
info cluster #3 (rank 1); hbond:S87+S125; hydroph_interaction:Y90+D109; 

>  <cluster_rank>  (7) 
1

>  <N_interactions>  (7) 
5

>  <N_interactions_lost>  (7) 
1

>  <∆∆G>  (7) 
-9.260998

>  <comRMSD>  (7) 
0.812341

>  <N_rotatable_bonds>  (7) 
6

>  <N_unconstrained_atoms>  (7) 
3

>  <N_constrained_atoms>  (7) 
12

$$$$
Z210104396
     RDKit          3D

 28 29  0  0  0  0  0  0  0  0999 V2000
    8.7600    7.9160   23.4150 C   0  0  0  0  0  0  0  0  0  0  0  0
    9.9460    8.8000   23.3100 C   0  0  0  0  0  0  0  0  0  0  0  0
    9.6520   10.1620   23.6860 N   0  0  0  0  0  0  0  0  0  0  0  0
   10.4010   11.2850   23.2370 C   0  0  0  0  0  0  0  0  0  0  0  0
    9.8680   12.4270   23.7610 C   0  0  0  0  0  0  0  0  0  0  0  0
   10.4400   13.7810   23.4600 C   0  0  0  0  0  0  0  0  0  0  0  0
   10.6660   14.5730   24.6160 O   0  0  0  0  0  0  0  0  0  0  0  0
   10.6720   14.0970   22.1510 O   0  0  0  0  0  0  0  0  0  0  0  0
   11.9950   14.5760   21.8910 C   0  0  0  0  0  0  0  0  0  0  0  0
    8.7560   12.0300   24.5750 C   0  0  0  0  0  0  0  0  0  0  0  0
    7.8410   12.7500   25.3540 C   0  0  0  0  0  0  0  0  0  0  0  0
    6.7770   12.0290   26.1000 C   0  0  0  0  0  0  0  0  0  0  0  0
    6.7240   10.6270   25.9990 C   0  0  0  0  0  0  0  0  0  0  0  0
    7.6650    9.9080   25.1990 C   0  0  0  0  0  0  0  0  0  0  0  0
    8.6420   10.6140   24.5140 C   0  0  0  0  0  0  0  0  0  0  0  0
    8.8270    7.0860   22.7060 H   0  0  0  0  0  0  0  0  0  0  0  0
    8.6710    7.5090   24.4270 H   0  0  0  0  0  0  0  0  0  0  0  0
    7.8590    8.4650   23.1970 H   0  0  0  0  0  0  0  0  0  0  0  0
   10.7400    8.4340   23.9640 H   0  0  0  0  0  0  0  0  0  0  0  0
   10.3480    8.8240   22.2910 H   0  0  0  0  0  0  0  0  0  0  0  0
   11.2540   11.1530   22.5750 H   0  0  0  0  0  0  0  0  0  0  0  0
   12.6990   14.2200   22.6510 H   0  0  0  0  0  0  0  0  0  0  0  0
   12.3110   14.1990   20.9070 H   0  0  0  0  0  0  0  0  0  0  0  0
   12.0160   15.6710   21.8050 H   0  0  0  0  0  0  0  0  0  0  0  0
    7.9060   13.8350   25.4170 H   0  0  0  0  0  0  0  0  0  0  0  0
    6.0930   12.6470   26.6890 H   0  0  0  0  0  0  0  0  0  0  0  0
    5.9540   10.0760   26.5360 H   0  0  0  0  0  0  0  0  0  0  0  0
    7.6140    8.8370   25.1360 H   0  0  0  0  0  0  0  0  0  0  0  0
  1  2  1  0
  2  3  1  0
  3  4  1  0
  4  5  2  0
  5  6  1  0
  6  7  2  0
  6  8  1  0
  8  9  1  0
  5 10  1  0
 10 11  2  0
 11 12  1  0
 12 13  2  0
 13 14  1  0
 14 15  2  0
 15  3  1  0
 15 10  1  0
  1 16  1  0
  1 17  1  0
  1 18  1  0
  2 19  1  0
  2 20  1  0
  4 21  1  0
  9 22  1  0
  9 23  1  0
  9 24  1  0
 11 25  1  0
 12 26  1  0
 13 27  1  0
 14 28  1  0
A    1
 C1 
A    2
 C2 
A    3
 N1 
A    4
 C3 
A    5
 C4 
A    6
 C5 
A    7
 O1 
A    8
 O2 
A    9
 C6 
A   10
 C7 
A   11
 C8 
A   12
 C9 
A   13
 C10
A   14
 C11
A   15
 C12
A   16
 H1 
A   17
 H2 
A   18
 H3 
A   19
 H4 
A   20
 H5 
A   21
 H6 
A   22
 H7 
A   23
 H8 
A   24
 H9 
A   25
 H10
A   26
 H11
A   27
 H12
A   28
 H13
M  END
>  <ref_pdb>  (8) 
x0554_0A

>  <ref_mols>  (8) 
x0451_0A,x0451_0A

>  <original SMILES>  (8) 
CCn1cc(C(=O)OC)c2ccccc21

>  <rationale>  (8) 
info cluster #4 (rank 1); hydroph_interaction:D109+V124; saltbridge:H21; 

>  <cluster_rank>  (8) 
1

>  <N_interactions>  (8) 
3

>  <N_interactions_lost>  (8) 
0

>  <∆∆G>  (8) 
-8.25129

>  <comRMSD>  (8) 
0.495844

>  <N_rotatable_bonds>  (8) 
4

>  <N_unconstrained_atoms>  (8) 
1

>  <N_constrained_atoms>  (8) 
14

$$$$
PV_002906443867
     RDKit          3D

 22 23  0  0  0  0  0  0  0  0999 V2000
    9.6750   15.2520   21.5500 C   0  0  0  0  0  0  0  0  0  0  0  0
    9.1470   14.1210   22.2640 N   0  0  0  0  0  0  0  0  0  0  0  0
   10.0250   13.2730   22.9140 C   0  0  0  0  0  0  0  0  0  0  0  0
   11.2400   13.4100   22.9460 O   0  0  0  0  0  0  0  0  0  0  0  0
    9.4690   12.0510   23.6480 C   0  0  0  0  0  0  0  0  0  0  0  0
    8.2740   12.2470   24.5560 C   0  0  0  0  0  0  0  0  0  0  0  0
    7.3900   13.6920   24.9320 S   0  0  0  0  0  0  0  0  0  0  0  0
    6.3260   12.8790   25.9460 C   0  0  0  0  0  0  0  0  0  0  0  0
    5.0640   13.7400   26.7410 Cl  0  0  0  0  0  0  0  0  0  0  0  0
    6.6560   11.4000   26.0140 C   0  0  0  0  0  0  0  0  0  0  0  0
    5.7970   10.2360   26.9290 Cl  0  0  0  0  0  0  0  0  0  0  0  0
    7.7600   11.1280   25.2150 C   0  0  0  0  0  0  0  0  0  0  0  0
    8.3490    9.8810   25.0360 C   0  0  0  0  0  0  0  0  0  0  0  0
    9.4600    9.6930   24.1950 C   0  0  0  0  0  0  0  0  0  0  0  0
   10.0190   10.7690   23.5020 C   0  0  0  0  0  0  0  0  0  0  0  0
   10.1060   14.9430   20.5910 H   0  0  0  0  0  0  0  0  0  0  0  0
   10.4450   15.7380   22.1580 H   0  0  0  0  0  0  0  0  0  0  0  0
    8.8680   15.9660   21.3560 H   0  0  0  0  0  0  0  0  0  0  0  0
    8.3190   13.7110   21.8430 H   0  0  0  0  0  0  0  0  0  0  0  0
    7.9420    9.0280   25.5570 H   0  0  0  0  0  0  0  0  0  0  0  0
    9.8860    8.7010   24.0830 H   0  0  0  0  0  0  0  0  0  0  0  0
   10.8820   10.6120   22.8490 H   0  0  0  0  0  0  0  0  0  0  0  0
  1  2  1  0
  2  3  1  0
  3  4  2  0
  3  5  1  0
  5  6  2  0
  6  7  1  0
  7  8  1  0
  8  9  1  0
  8 10  2  0
 10 11  1  0
 10 12  1  0
 12 13  2  0
 13 14  1  0
 14 15  2  0
 15  5  1  0
 12  6  1  0
  1 16  1  0
  1 17  1  0
  1 18  1  0
  2 19  1  0
 13 20  1  0
 14 21  1  0
 15 22  1  0
A    1
 C1 
A    2
 N1 
A    3
 C2 
A    4
 O1 
A    5
 C3 
A    6
 C4 
A    7
 S1 
A    8
 C5 
A    9
CL1 
A   10
 C6 
A   11
CL2 
A   12
 C7 
A   13
 C8 
A   14
 C9 
A   15
 C10
A   16
 H1 
A   17
 H2 
A   18
 H3 
A   19
 H4 
A   20
 H5 
A   21
 H6 
A   22
 H7 
M  END
>  <ref_pdb>  (9) 
x0554_0A

>  <ref_mols>  (9) 
x0566_0A,x0556_0A

>  <original SMILES>  (9) 
CNC(=O)c1cccc2c(Cl)c(Cl)sc12

>  <rationale>  (9) 
info cluster #1 (rank 1); halogenbond:S105; hbond:T126; 

>  <cluster_rank>  (9) 
1

>  <N_interactions>  (9) 
2

>  <N_interactions_lost>  (9) 
0

>  <∆∆G>  (9) 
-4.943592

>  <comRMSD>  (9) 
0.571631

>  <N_rotatable_bonds>  (9) 
2

>  <N_unconstrained_atoms>  (9) 
1

>  <N_constrained_atoms>  (9) 
14

$$$$
Z4005719641
     RDKit          3D

 42 43  0  0  0  0  0  0  0  0999 V2000
    7.2190   13.0530   25.7850 C   0  0  0  0  0  0  0  0  0  0  0  0
    8.2800   13.1040   24.8400 O   0  0  0  0  0  0  0  0  0  0  0  0
    8.8410   11.8950   24.5310 C   0  0  0  0  0  0  0  0  0  0  0  0
    8.1590   10.5530   24.8460 C   0  0  0  0  0  0  0  0  0  0  0  0
    8.8170    9.3770   24.5000 C   0  0  0  0  0  0  0  0  0  0  0  0
   10.0510    9.4090   23.8760 C   0  0  0  0  0  0  0  0  0  0  0  0
   10.6600   10.6070   23.5940 C   0  0  0  0  0  0  0  0  0  0  0  0
   10.1160   11.8610   23.8990 C   0  0  0  0  0  0  0  0  0  0  0  0
   10.9140   12.9530   23.5510 C   0  0  0  0  0  0  0  0  0  0  0  0
   10.4360   13.6020   22.3180 N   0  0  0  0  0  0  0  0  0  0  0  0
   10.4930   14.9760   22.1260 C   0  0  0  0  0  0  0  0  0  0  0  0
   10.8140   15.7940   22.9870 O   0  0  0  0  0  0  0  0  0  0  0  0
   10.1010   15.4260   20.7100 C   0  0  0  0  0  0  0  0  0  0  0  0
   10.9850   14.9290   19.7770 C   0  0  0  0  0  0  0  0  0  0  0  0
   10.0600   16.9070   20.6340 N   0  0  0  0  0  0  0  0  0  0  0  0
   12.3620   12.4720   23.2810 C   0  0  0  0  0  0  0  0  0  0  0  0
   13.3440   12.9460   24.2910 C   0  0  0  0  0  0  0  0  0  0  0  0
   12.8800   12.7990   25.6410 O   0  0  0  0  0  0  0  0  0  0  0  0
   11.6540   13.4670   25.9480 C   0  0  0  0  0  0  0  0  0  0  0  0
   10.9510   14.0020   24.7120 C   0  0  0  0  0  0  0  0  0  0  0  0
    6.9960   14.0410   26.1950 H   0  0  0  0  0  0  0  0  0  0  0  0
    7.5220   12.3910   26.6050 H   0  0  0  0  0  0  0  0  0  0  0  0
    6.2980   12.6570   25.3450 H   0  0  0  0  0  0  0  0  0  0  0  0
    7.1910   10.4780   25.3290 H   0  0  0  0  0  0  0  0  0  0  0  0
    8.4060    8.4120   24.7020 H   0  0  0  0  0  0  0  0  0  0  0  0
   10.5440    8.4780   23.6080 H   0  0  0  0  0  0  0  0  0  0  0  0
   11.6110   10.5340   23.1150 H   0  0  0  0  0  0  0  0  0  0  0  0
   10.7220   13.0440   21.5000 H   0  0  0  0  0  0  0  0  0  0  0  0
    9.0940   15.0510   20.5040 H   0  0  0  0  0  0  0  0  0  0  0  0
   10.7960   13.8620   19.6470 H   0  0  0  0  0  0  0  0  0  0  0  0
   10.7510   15.3840   18.8070 H   0  0  0  0  0  0  0  0  0  0  0  0
   12.0600   15.0060   19.8790 H   0  0  0  0  0  0  0  0  0  0  0  0
   10.3150   17.3220   21.5460 H   0  0  0  0  0  0  0  0  0  0  0  0
    9.0770   17.1790   20.5280 H   0  0  0  0  0  0  0  0  0  0  0  0
   12.7000   12.7000   22.2670 H   0  0  0  0  0  0  0  0  0  0  0  0
   12.3700   11.4060   23.3580 H   0  0  0  0  0  0  0  0  0  0  0  0
   13.5750   13.9720   24.0770 H   0  0  0  0  0  0  0  0  0  0  0  0
   14.2780   12.3820   24.2040 H   0  0  0  0  0  0  0  0  0  0  0  0
   11.0080   12.7530   26.4650 H   0  0  0  0  0  0  0  0  0  0  0  0
   11.8590   14.2760   26.6640 H   0  0  0  0  0  0  0  0  0  0  0  0
   11.5120   14.8860   24.3950 H   0  0  0  0  0  0  0  0  0  0  0  0
    9.9450   14.3430   24.9880 H   0  0  0  0  0  0  0  0  0  0  0  0
  1  2  1  0
  2  3  1  0
  3  4  2  0
  4  5  1  0
  5  6  2  0
  6  7  1  0
  7  8  2  0
  8  9  1  0
  9 10  1  0
 10 11  1  0
 11 12  2  0
 11 13  1  0
 13 14  1  0
 13 15  1  0
  9 16  1  0
 16 17  1  0
 17 18  1  0
 18 19  1  0
 19 20  1  0
  8  3  1  0
 20  9  1  0
  1 21  1  0
  1 22  1  0
  1 23  1  0
  4 24  1  0
  5 25  1  0
  6 26  1  0
  7 27  1  0
 10 28  1  0
 13 29  1  0
 14 30  1  0
 14 31  1  0
 14 32  1  0
 15 33  1  0
 15 34  1  0
 16 35  1  0
 16 36  1  0
 17 37  1  0
 17 38  1  0
 19 39  1  0
 19 40  1  0
 20 41  1  0
 20 42  1  0
A    1
 C1 
A    2
 O1 
A    3
 C2 
A    4
 C3 
A    5
 C4 
A    6
 C5 
A    7
 C6 
A    8
 C7 
A    9
 C8 
A   10
 N1 
A   11
 C9 
A   12
 O2 
A   13
 C10
A   14
 C11
A   15
 N2 
A   16
 C12
A   17
 C13
A   18
 O3 
A   19
 C14
A   20
 C15
A   21
 H1 
A   22
 H2 
A   23
 H3 
A   24
 H4 
A   25
 H5 
A   26
 H6 
A   27
 H7 
A   28
 H8 
A   29
 H9 
A   30
 H10
A   31
 H11
A   32
 H12
A   33
 H13
A   34
 H14
A   35
 H15
A   36
 H16
A   37
 H17
A   38
 H18
A   39
 H19
A   40
 H20
A   41
 H21
A   42
 H22
M  END
>  <ref_pdb>  (10) 
x0554_0A

>  <ref_mols>  (10) 
x0554_0A

>  <original SMILES>  (10) 
COc1ccccc1C1(NC(=O)C(C)N)CCOCC1

>  <rationale>  (10) 
info cluster #9 (rank 1); hbond:G108+S87+T126; hydroph_interaction:A110; 

>  <cluster_rank>  (10) 
1

>  <N_interactions>  (10) 
5

>  <N_interactions_lost>  (10) 
1

>  <∆∆G>  (10) 
-8.963018

>  <comRMSD>  (10) 
0.689067

>  <N_rotatable_bonds>  (10) 
7

>  <N_unconstrained_atoms>  (10) 
2

>  <N_constrained_atoms>  (10) 
20

$$$$
Z28155836
     RDKit          3D

 28 29  0  0  0  0  0  0  0  0999 V2000
   12.2230   14.9070   21.7820 C   0  0  0  0  0  0  0  0  0  0  0  0
   10.9820   14.8540   22.6540 C   0  0  0  0  0  0  0  0  0  0  0  0
   10.8570   13.6000   23.5310 C   0  0  0  0  0  0  0  0  0  0  0  0
   10.9850   13.7310   24.7400 O   0  0  0  0  0  0  0  0  0  0  0  0
   10.6070   12.4170   22.9410 N   0  0  0  0  0  0  0  0  0  0  0  0
    9.9010   11.3860   23.4930 C   0  0  0  0  0  0  0  0  0  0  0  0
   10.2850    9.9540   23.0760 C   0  0  0  0  0  0  0  0  0  0  0  0
    9.6460    8.8400   23.5540 C   0  0  0  0  0  0  0  0  0  0  0  0
    8.5670    9.0850   24.4940 C   0  0  0  0  0  0  0  0  0  0  0  0
    8.1800   10.3410   24.8930 C   0  0  0  0  0  0  0  0  0  0  0  0
    7.1180   10.2930   25.7850 C   0  0  0  0  0  0  0  0  0  0  0  0
    6.5530   11.5130   26.3310 C   0  0  0  0  0  0  0  0  0  0  0  0
    7.1290   12.7100   25.9160 C   0  0  0  0  0  0  0  0  0  0  0  0
    8.2190   12.7280   24.9990 C   0  0  0  0  0  0  0  0  0  0  0  0
    8.7940   11.5380   24.4430 C   0  0  0  0  0  0  0  0  0  0  0  0
   12.3360   15.9000   21.3370 H   0  0  0  0  0  0  0  0  0  0  0  0
   13.1140   14.7110   22.3720 H   0  0  0  0  0  0  0  0  0  0  0  0
   12.1700   14.1710   20.9710 H   0  0  0  0  0  0  0  0  0  0  0  0
   10.9910   15.7300   23.3120 H   0  0  0  0  0  0  0  0  0  0  0  0
   10.0960   14.9590   22.0210 H   0  0  0  0  0  0  0  0  0  0  0  0
   11.0600   12.2350   22.0460 H   0  0  0  0  0  0  0  0  0  0  0  0
   11.1040    9.8650   22.3640 H   0  0  0  0  0  0  0  0  0  0  0  0
    9.9370    7.8400   23.2430 H   0  0  0  0  0  0  0  0  0  0  0  0
    8.0590    8.2220   24.8870 H   0  0  0  0  0  0  0  0  0  0  0  0
    6.6920    9.3370   26.0910 H   0  0  0  0  0  0  0  0  0  0  0  0
    5.7210   11.4900   27.0310 H   0  0  0  0  0  0  0  0  0  0  0  0
    6.7410   13.6480   26.3000 H   0  0  0  0  0  0  0  0  0  0  0  0
    8.5970   13.7110   24.7360 H   0  0  0  0  0  0  0  0  0  0  0  0
  1  2  1  0
  2  3  1  0
  3  4  2  0
  3  5  1  0
  5  6  1  0
  6  7  2  0
  7  8  1  0
  8  9  2  0
  9 10  1  0
 10 11  2  0
 11 12  1  0
 12 13  2  0
 13 14  1  0
 14 15  2  0
 15  6  1  0
 15 10  1  0
  1 16  1  0
  1 17  1  0
  1 18  1  0
  2 19  1  0
  2 20  1  0
  5 21  1  0
  7 22  1  0
  8 23  1  0
  9 24  1  0
 11 25  1  0
 12 26  1  0
 13 27  1  0
 14 28  1  0
A    1
 C1 
A    2
 C2 
A    3
 C3 
A    4
 O1 
A    5
 N1 
A    6
 C4 
A    7
 C5 
A    8
 C6 
A    9
 C7 
A   10
 C8 
A   11
 C9 
A   12
 C10
A   13
 C11
A   14
 C12
A   15
 C13
A   16
 H1 
A   17
 H2 
A   18
 H3 
A   19
 H4 
A   20
 H5 
A   21
 H6 
A   22
 H7 
A   23
 H8 
A   24
 H9 
A   25
 H10
A   26
 H11
A   27
 H12
A   28
 H13
M  END
>  <ref_pdb>  (11) 
x0554_0A

>  <ref_mols>  (11) 
x0554_0A,x0451_0A

>  <original SMILES>  (11) 
CCC(=O)Nc1cccc2ccccc12

>  <rationale>  (11) 
info cluster #8 (rank 2); hbond:S125; hydroph_interaction:Y89+D109+V124; 

>  <cluster_rank>  (11) 
2

>  <N_interactions>  (11) 
4

>  <N_interactions_lost>  (11) 
1

>  <∆∆G>  (11) 
-9.009224

>  <comRMSD>  (11) 
0.826891

>  <N_rotatable_bonds>  (11) 
3

>  <N_unconstrained_atoms>  (11) 
1

>  <N_constrained_atoms>  (11) 
16

$$$$
Z2458092266
     RDKit          3D

 38 39  0  0  0  0  0  0  0  0999 V2000
   12.3170   14.2580   22.1270 C   0  0  0  0  0  0  0  0  0  0  0  0
   10.8780   14.2470   22.2580 N   0  0  0  0  0  0  0  0  0  0  0  0
   10.3260   13.8850   23.5170 C   0  0  0  0  0  0  0  0  0  0  0  0
   10.2550   14.6950   24.4340 O   0  0  0  0  0  0  0  0  0  0  0  0
    9.8050   12.5110   23.7640 C   0  0  0  0  0  0  0  0  0  0  0  0
   10.3130   11.3060   23.2090 C   0  0  0  0  0  0  0  0  0  0  0  0
    9.5470   10.2590   23.6780 N   0  0  0  0  0  0  0  0  0  0  0  0
    9.7820    8.8810   23.2930 C   0  0  0  0  0  0  0  0  0  0  0  0
    8.5380   10.7440   24.5610 C   0  0  0  0  0  0  0  0  0  0  0  0
    7.4720    9.9730   25.3310 C   0  0  0  0  0  0  0  0  0  0  0  0
    6.5590   10.8510   26.1800 C   0  0  0  0  0  0  0  0  0  0  0  0
    6.7180   12.2210   26.2240 C   0  0  0  0  0  0  0  0  0  0  0  0
    7.8270   12.8930   25.4110 C   0  0  0  0  0  0  0  0  0  0  0  0
    8.6960   12.1400   24.6120 C   0  0  0  0  0  0  0  0  0  0  0  0
   10.1440   15.1200   21.2760 C   0  0  0  0  0  0  0  0  0  0  0  0
   10.5410   16.5720   21.3010 C   0  0  0  0  0  0  0  0  0  0  0  0
   10.4400   14.7300   19.8140 C   0  0  0  0  0  0  0  0  0  0  0  0
    8.6400   15.1750   21.5890 C   0  0  0  0  0  0  0  0  0  0  0  0
   12.5930   13.4370   21.4620 H   0  0  0  0  0  0  0  0  0  0  0  0
   12.8520   14.1210   23.0740 H   0  0  0  0  0  0  0  0  0  0  0  0
   12.6540   15.1950   21.6670 H   0  0  0  0  0  0  0  0  0  0  0  0
   11.1360   11.1430   22.5340 H   0  0  0  0  0  0  0  0  0  0  0  0
   10.6630    8.5010   23.8150 H   0  0  0  0  0  0  0  0  0  0  0  0
    8.9130    8.2790   23.5870 H   0  0  0  0  0  0  0  0  0  0  0  0
    9.9160    8.8340   22.2090 H   0  0  0  0  0  0  0  0  0  0  0  0
    7.3720    8.9100   25.2860 H   0  0  0  0  0  0  0  0  0  0  0  0
    5.7910   10.3010   26.7330 H   0  0  0  0  0  0  0  0  0  0  0  0
    6.0540   12.8280   26.8360 H   0  0  0  0  0  0  0  0  0  0  0  0
    7.9400   13.9730   25.4580 H   0  0  0  0  0  0  0  0  0  0  0  0
    9.7140   17.1660   21.6850 H   0  0  0  0  0  0  0  0  0  0  0  0
   11.4360   16.7400   21.9100 H   0  0  0  0  0  0  0  0  0  0  0  0
   10.7420   16.9390   20.2910 H   0  0  0  0  0  0  0  0  0  0  0  0
   11.3320   15.2360   19.4250 H   0  0  0  0  0  0  0  0  0  0  0  0
   10.6050   13.6630   19.7120 H   0  0  0  0  0  0  0  0  0  0  0  0
    9.6210   15.0410   19.1570 H   0  0  0  0  0  0  0  0  0  0  0  0
    8.2870   14.2340   22.0240 H   0  0  0  0  0  0  0  0  0  0  0  0
    8.0660   15.3980   20.6920 H   0  0  0  0  0  0  0  0  0  0  0  0
    8.4090   15.9550   22.3230 H   0  0  0  0  0  0  0  0  0  0  0  0
  1  2  1  0
  2  3  1  0
  3  4  2  0
  3  5  1  0
  5  6  2  0
  6  7  1  0
  7  8  1  0
  7  9  1  0
  9 10  2  0
 10 11  1  0
 11 12  2  0
 12 13  1  0
 13 14  2  0
  2 15  1  0
 15 16  1  0
 15 17  1  0
 15 18  1  0
 14  5  1  0
 14  9  1  0
  1 19  1  0
  1 20  1  0
  1 21  1  0
  6 22  1  0
  8 23  1  0
  8 24  1  0
  8 25  1  0
 10 26  1  0
 11 27  1  0
 12 28  1  0
 13 29  1  0
 16 30  1  0
 16 31  1  0
 16 32  1  0
 17 33  1  0
 17 34  1  0
 17 35  1  0
 18 36  1  0
 18 37  1  0
 18 38  1  0
A    1
 C1 
A    2
 N1 
A    3
 C2 
A    4
 O1 
A    5
 C3 
A    6
 C4 
A    7
 N2 
A    8
 C5 
A    9
 C6 
A   10
 C7 
A   11
 C8 
A   12
 C9 
A   13
 C10
A   14
 C11
A   15
 C12
A   16
 C13
A   17
 C14
A   18
 C15
A   19
 H1 
A   20
 H2 
A   21
 H3 
A   22
 H4 
A   23
 H5 
A   24
 H6 
A   25
 H7 
A   26
 H8 
A   27
 H9 
A   28
 H10
A   29
 H11
A   30
 H12
A   31
 H13
A   32
 H14
A   33
 H15
A   34
 H16
A   35
 H17
A   36
 H18
A   37
 H19
A   38
 H20
M  END
>  <ref_pdb>  (12) 
x0554_0A

>  <ref_mols>  (12) 
x0451_0A

>  <original SMILES>  (12) 
CN(C(=O)c1cn(C)c2ccccc12)C(C)(C)C

>  <rationale>  (12) 
info cluster #2 (rank 2); hydroph_interaction:Y90+V84; 

>  <cluster_rank>  (12) 
2

>  <N_interactions>  (12) 
2

>  <N_interactions_lost>  (12) 
0

>  <∆∆G>  (12) 
-10.114999

>  <comRMSD>  (12) 
0.490468

>  <N_rotatable_bonds>  (12) 
3

>  <N_unconstrained_atoms>  (12) 
1

>  <N_constrained_atoms>  (12) 
17

$$$$
Z56754686
     RDKit          3D

 24 24  0  0  0  0  0  0  0  0999 V2000
    6.5010   11.4830   26.0750 C   0  0  0  0  0  0  0  0  0  0  0  0
    7.6560   11.0410   25.2080 C   0  0  0  0  0  0  0  0  0  0  0  0
    7.7410    9.7080   25.0870 C   0  0  0  0  0  0  0  0  0  0  0  0
    8.7590    9.1280   24.3140 C   0  0  0  0  0  0  0  0  0  0  0  0
    9.6680    9.8700   23.6830 C   0  0  0  0  0  0  0  0  0  0  0  0
   10.7100    9.1950   22.9070 C   0  0  0  0  0  0  0  0  0  0  0  0
    9.6150   11.2880   23.7800 C   0  0  0  0  0  0  0  0  0  0  0  0
   10.5990   12.0640   23.0930 N   0  0  0  0  0  0  0  0  0  0  0  0
   11.0620   13.3220   23.3830 C   0  0  0  0  0  0  0  0  0  0  0  0
   11.6680   13.8660   22.2820 N   0  0  0  0  0  0  0  0  0  0  0  0
   10.9980   13.9480   24.4250 O   0  0  0  0  0  0  0  0  0  0  0  0
    8.5900   11.8650   24.5570 C   0  0  0  0  0  0  0  0  0  0  0  0
    6.0940   12.4280   25.7040 H   0  0  0  0  0  0  0  0  0  0  0  0
    5.7110   10.7260   26.0420 H   0  0  0  0  0  0  0  0  0  0  0  0
    6.8270   11.6020   27.1110 H   0  0  0  0  0  0  0  0  0  0  0  0
    7.0200    9.0770   25.5910 H   0  0  0  0  0  0  0  0  0  0  0  0
    8.7960    8.0420   24.2420 H   0  0  0  0  0  0  0  0  0  0  0  0
   10.5090    8.1240   22.8820 H   0  0  0  0  0  0  0  0  0  0  0  0
   11.6350    9.3660   23.4290 H   0  0  0  0  0  0  0  0  0  0  0  0
   10.7540    9.5620   21.8910 H   0  0  0  0  0  0  0  0  0  0  0  0
   10.8240   11.7840   22.1410 H   0  0  0  0  0  0  0  0  0  0  0  0
   11.2990   14.7550   21.9750 H   0  0  0  0  0  0  0  0  0  0  0  0
   11.7100   13.1640   21.5330 H   0  0  0  0  0  0  0  0  0  0  0  0
    8.4990   12.9440   24.6690 H   0  0  0  0  0  0  0  0  0  0  0  0
  1  2  1  0
  2  3  2  0
  3  4  1  0
  4  5  2  0
  5  6  1  0
  5  7  1  0
  7  8  1  0
  8  9  1  0
  9 10  1  0
  9 11  2  0
  7 12  2  0
 12  2  1  0
  1 13  1  0
  1 14  1  0
  1 15  1  0
  3 16  1  0
  4 17  1  0
  6 18  1  0
  6 19  1  0
  6 20  1  0
  8 21  1  0
 10 22  1  0
 10 23  1  0
 12 24  1  0
A    1
 C1 
A    2
 C2 
A    3
 C3 
A    4
 C4 
A    5
 C5 
A    6
 C6 
A    7
 C7 
A    8
 N1 
A    9
 C8 
A   10
 N2 
A   11
 O1 
A   12
 C9 
A   13
 H1 
A   14
 H2 
A   15
 H3 
A   16
 H4 
A   17
 H5 
A   18
 H6 
A   19
 H7 
A   20
 H8 
A   21
 H9 
A   22
 H10
A   23
 H11
A   24
 H12
M  END
>  <ref_pdb>  (13) 
x0554_0A

>  <ref_mols>  (13) 
x0554_0A,x0310_0A

>  <original SMILES>  (13) 
Cc1ccc(C)c(NC(N)=O)c1

>  <rationale>  (13) 
info cluster #0 (rank 2); hbond:S125; hydroph_interaction:A110+V124; 

>  <cluster_rank>  (13) 
2

>  <N_interactions>  (13) 
4

>  <N_interactions_lost>  (13) 
1

>  <∆∆G>  (13) 
-8.835842

>  <comRMSD>  (13) 
0.671253

>  <N_rotatable_bonds>  (13) 
3

>  <N_unconstrained_atoms>  (13) 
1

>  <N_constrained_atoms>  (13) 
13

$$$$
Z3018949571
     RDKit          3D

 27 27  0  0  0  0  0  0  0  0999 V2000
   12.0570   14.7820   20.4510 C   0  0  0  0  0  0  0  0  0  0  0  0
   11.6860   14.6530   21.9200 C   0  0  0  0  0  0  0  0  0  0  0  0
   11.1620   15.8820   22.4240 C   0  0  0  0  0  0  0  0  0  0  0  0
   10.7760   13.6380   22.1490 N   0  0  0  0  0  0  0  0  0  0  0  0
   10.1920   13.4130   23.4880 C   0  0  0  0  0  0  0  0  0  0  0  0
    9.7930   14.3140   24.2160 O   0  0  0  0  0  0  0  0  0  0  0  0
   10.1920   12.0180   23.8390 C   0  0  0  0  0  0  0  0  0  0  0  0
    9.1610   11.0350   24.1200 C   0  0  0  0  0  0  0  0  0  0  0  0
    7.8320   11.3660   24.1040 N   0  0  0  0  0  0  0  0  0  0  0  0
    9.7300    9.8070   24.3830 C   0  0  0  0  0  0  0  0  0  0  0  0
   11.0750    9.9280   24.3160 N   0  0  0  0  0  0  0  0  0  0  0  0
   11.2980   11.2500   23.9950 N   0  0  0  0  0  0  0  0  0  0  0  0
   12.6480   11.7550   23.8580 C   0  0  0  0  0  0  0  0  0  0  0  0
   11.2050   15.1710   19.8890 H   0  0  0  0  0  0  0  0  0  0  0  0
   12.9200   15.4420   20.3350 H   0  0  0  0  0  0  0  0  0  0  0  0
   12.3200   13.8120   20.0280 H   0  0  0  0  0  0  0  0  0  0  0  0
   12.5970   14.4140   22.4820 H   0  0  0  0  0  0  0  0  0  0  0  0
   11.1040   16.1510   23.4670 H   0  0  0  0  0  0  0  0  0  0  0  0
   10.1480   16.0070   22.0290 H   0  0  0  0  0  0  0  0  0  0  0  0
   11.7450   16.6720   21.9430 H   0  0  0  0  0  0  0  0  0  0  0  0
   10.8800   12.8120   21.5570 H   0  0  0  0  0  0  0  0  0  0  0  0
    7.5540   12.2940   23.7880 H   0  0  0  0  0  0  0  0  0  0  0  0
    7.1930   10.9890   24.7850 H   0  0  0  0  0  0  0  0  0  0  0  0
    9.2640    8.8460   24.6290 H   0  0  0  0  0  0  0  0  0  0  0  0
   13.3500   11.0110   24.2380 H   0  0  0  0  0  0  0  0  0  0  0  0
   12.7360   12.6760   24.4510 H   0  0  0  0  0  0  0  0  0  0  0  0
   12.8540   11.9660   22.8050 H   0  0  0  0  0  0  0  0  0  0  0  0
  1  2  1  0
  2  3  1  0
  2  4  1  0
  4  5  1  0
  5  6  2  0
  5  7  1  0
  7  8  2  0
  8  9  1  0
  8 10  1  0
 10 11  2  0
 11 12  1  0
 12 13  1  0
 12  7  1  0
  1 14  1  0
  1 15  1  0
  1 16  1  0
  2 17  1  0
  3 18  1  0
  3 19  1  0
  3 20  1  0
  4 21  1  0
  9 22  1  0
  9 23  1  0
 10 24  1  0
 13 25  1  0
 13 26  1  0
 13 27  1  0
A    1
 C1 
A    2
 C2 
A    3
 C3 
A    4
 N1 
A    5
 C4 
A    6
 O1 
A    7
 C5 
A    8
 C6 
A    9
 N2 
A   10
 C7 
A   11
 N3 
A   12
 N4 
A   13
 C8 
A   14
 H1 
A   15
 H2 
A   16
 H3 
A   17
 H4 
A   18
 H5 
A   19
 H6 
A   20
 H7 
A   21
 H8 
A   22
 H9 
A   23
 H10
A   24
 H11
A   25
 H12
A   26
 H13
A   27
 H14
M  END
>  <ref_pdb>  (14) 
x0554_0A

>  <ref_mols>  (14) 
x0556_0A,x0451_0A

>  <original SMILES>  (14) 
CC(C)NC(=O)c1c(N)cnn1C

>  <rationale>  (14) 
info cluster #5 (rank 2); hbond:G108+A110+S105+S125+D109; hydroph_interaction:Y89; 

>  <cluster_rank>  (14) 
2

>  <N_interactions>  (14) 
7

>  <N_interactions_lost>  (14) 
1

>  <∆∆G>  (14) 
-6.082055

>  <comRMSD>  (14) 
0.941505

>  <N_rotatable_bonds>  (14) 
6

>  <N_unconstrained_atoms>  (14) 
4

>  <N_constrained_atoms>  (14) 
11

$$$$
Z1904258091
     RDKit          3D

 35 36  0  0  0  0  0  0  0  0999 V2000
   15.1360   11.2770   25.0970 C   0  0  0  0  0  0  0  0  0  0  0  0
   14.9310   12.2580   26.2250 C   0  0  0  0  0  0  0  0  0  0  0  0
   15.7780   12.8260   26.9040 O   0  0  0  0  0  0  0  0  0  0  0  0
   13.5080   12.3730   26.3210 N   0  0  0  0  0  0  0  0  0  0  0  0
   12.8110   12.3550   25.0660 N   0  0  0  0  0  0  0  0  0  0  0  0
   12.0190   13.4280   24.6920 C   0  0  0  0  0  0  0  0  0  0  0  0
   11.6640   14.3380   25.4290 O   0  0  0  0  0  0  0  0  0  0  0  0
   11.6140   13.3560   23.1990 C   0  0  0  0  0  0  0  0  0  0  0  0
   11.6590   14.7280   22.5090 C   0  0  0  0  0  0  0  0  0  0  0  0
   10.4350   14.7330   21.6270 C   0  0  0  0  0  0  0  0  0  0  0  0
    9.4460   14.1140   22.5890 C   0  0  0  0  0  0  0  0  0  0  0  0
   10.2110   12.9650   23.0570 N   0  0  0  0  0  0  0  0  0  0  0  0
    9.6450   11.8930   23.6740 C   0  0  0  0  0  0  0  0  0  0  0  0
   10.1770   10.4740   23.4650 C   0  0  0  0  0  0  0  0  0  0  0  0
    9.4520    9.4270   24.2200 C   0  0  0  0  0  0  0  0  0  0  0  0
    8.3880    9.7150   25.0400 C   0  0  0  0  0  0  0  0  0  0  0  0
    7.9340   11.0060   25.1960 C   0  0  0  0  0  0  0  0  0  0  0  0
    8.5480   12.0590   24.5300 C   0  0  0  0  0  0  0  0  0  0  0  0
   16.0860   10.7460   25.2190 H   0  0  0  0  0  0  0  0  0  0  0  0
   15.1470   11.7760   24.1250 H   0  0  0  0  0  0  0  0  0  0  0  0
   14.3330   10.5350   25.0820 H   0  0  0  0  0  0  0  0  0  0  0  0
   13.1040   13.0100   27.0130 H   0  0  0  0  0  0  0  0  0  0  0  0
   13.3010   11.8340   24.3330 H   0  0  0  0  0  0  0  0  0  0  0  0
   12.2810   12.6750   22.6540 H   0  0  0  0  0  0  0  0  0  0  0  0
   12.5710   14.8220   21.9080 H   0  0  0  0  0  0  0  0  0  0  0  0
   11.6070   15.5570   23.2090 H   0  0  0  0  0  0  0  0  0  0  0  0
   10.1350   15.7540   21.3680 H   0  0  0  0  0  0  0  0  0  0  0  0
   10.5580   14.1560   20.7040 H   0  0  0  0  0  0  0  0  0  0  0  0
    9.2450   14.8050   23.4150 H   0  0  0  0  0  0  0  0  0  0  0  0
    8.5130   13.8450   22.0930 H   0  0  0  0  0  0  0  0  0  0  0  0
   11.0180   10.2510   22.8160 H   0  0  0  0  0  0  0  0  0  0  0  0
    9.7720    8.3950   24.1230 H   0  0  0  0  0  0  0  0  0  0  0  0
    7.8920    8.9290   25.5800 H   0  0  0  0  0  0  0  0  0  0  0  0
    7.0840   11.1900   25.8530 H   0  0  0  0  0  0  0  0  0  0  0  0
    8.1270   13.0380   24.7110 H   0  0  0  0  0  0  0  0  0  0  0  0
  1  2  1  0
  2  3  2  0
  2  4  1  0
  4  5  1  0
  5  6  1  0
  6  7  2  0
  6  8  1  0
  8  9  1  0
  9 10  1  0
 10 11  1  0
 11 12  1  0
 12 13  1  0
 13 14  2  0
 14 15  1  0
 15 16  2  0
 16 17  1  0
 17 18  2  0
 12  8  1  0
 18 13  1  0
  1 19  1  0
  1 20  1  0
  1 21  1  0
  4 22  1  0
  5 23  1  0
  8 24  1  0
  9 25  1  0
  9 26  1  0
 10 27  1  0
 10 28  1  0
 11 29  1  0
 11 30  1  0
 14 31  1  0
 15 32  1  0
 16 33  1  0
 17 34  1  0
 18 35  1  0
A    1
 C1 
A    2
 C2 
A    3
 O1 
A    4
 N1 
A    5
 N2 
A    6
 C3 
A    7
 O2 
A    8
 C4 
A    9
 C5 
A   10
 C6 
A   11
 C7 
A   12
 N3 
A   13
 C8 
A   14
 C9 
A   15
 C10
A   16
 C11
A   17
 C12
A   18
 C13
A   19
 H1 
A   20
 H2 
A   21
 H3 
A   22
 H4 
A   23
 H5 
A   24
 H6 
A   25
 H7 
A   26
 H8 
A   27
 H9 
A   28
 H10
A   29
 H11
A   30
 H12
A   31
 H13
A   32
 H14
A   33
 H15
A   34
 H16
A   35
 H17
M  END
>  <ref_pdb>  (15) 
x0554_0A

>  <ref_mols>  (15) 
x0554_0A

>  <original SMILES>  (15) 
CC(=O)NNC(=O)C1CCCN1c1ccccc1

>  <rationale>  (15) 
info cluster #6 (rank 2); hbond:G108; hydroph_interaction:L22+Y89+A110; 

>  <cluster_rank>  (15) 
2

>  <N_interactions>  (15) 
4

>  <N_interactions_lost>  (15) 
1

>  <∆∆G>  (15) 
-7.691133

>  <comRMSD>  (15) 
0.8061

>  <N_rotatable_bonds>  (15) 
3

>  <N_unconstrained_atoms>  (15) 
3

>  <N_constrained_atoms>  (15) 
18

$$$$
PV_006164057954
     RDKit          3D

 32 33  0  0  0  0  0  0  0  0999 V2000
   10.2290    8.8040   23.1830 C   0  0  0  0  0  0  0  0  0  0  0  0
    9.3680    9.9340   23.7600 C   0  0  0  0  0  0  0  0  0  0  0  0
    8.3350    9.5850   24.6080 N   0  0  0  0  0  0  0  0  0  0  0  0
    7.7890   10.7790   24.9200 N   0  0  0  0  0  0  0  0  0  0  0  0
    6.6520   10.8110   25.8200 C   0  0  0  0  0  0  0  0  0  0  0  0
    8.4860   11.8790   24.2560 C   0  0  0  0  0  0  0  0  0  0  0  0
    8.0460   13.1920   24.4500 C   0  0  0  0  0  0  0  0  0  0  0  0
    8.0580   13.8910   23.1420 N   0  0  0  0  0  0  0  0  0  0  0  0
    9.1600   14.6440   22.7580 C   0  0  0  0  0  0  0  0  0  0  0  0
   10.3790   14.9680   23.2850 N   0  0  0  0  0  0  0  0  0  0  0  0
   11.1620   15.3500   22.1410 C   0  0  0  0  0  0  0  0  0  0  0  0
   10.2950   15.6650   20.9330 C   0  0  0  0  0  0  0  0  0  0  0  0
   10.7280   14.8010   19.7280 C   0  0  0  0  0  0  0  0  0  0  0  0
    9.0180   15.2240   21.4940 N   0  0  0  0  0  0  0  0  0  0  0  0
    9.4990   11.3080   23.5290 C   0  0  0  0  0  0  0  0  0  0  0  0
    9.6140    7.9370   22.9210 H   0  0  0  0  0  0  0  0  0  0  0  0
   10.7550    9.1300   22.2820 H   0  0  0  0  0  0  0  0  0  0  0  0
   10.9790    8.4900   23.9090 H   0  0  0  0  0  0  0  0  0  0  0  0
    7.0120   10.6290   26.8340 H   0  0  0  0  0  0  0  0  0  0  0  0
    5.9450   10.0200   25.5530 H   0  0  0  0  0  0  0  0  0  0  0  0
    6.1440   11.7800   25.7590 H   0  0  0  0  0  0  0  0  0  0  0  0
    8.7940   13.6770   25.0840 H   0  0  0  0  0  0  0  0  0  0  0  0
    7.1450   13.1230   25.0410 H   0  0  0  0  0  0  0  0  0  0  0  0
   10.7830   14.2780   23.9060 H   0  0  0  0  0  0  0  0  0  0  0  0
   11.8970   14.5630   21.9320 H   0  0  0  0  0  0  0  0  0  0  0  0
   11.7480   16.2310   22.4050 H   0  0  0  0  0  0  0  0  0  0  0  0
   10.2360   16.7300   20.6750 H   0  0  0  0  0  0  0  0  0  0  0  0
   10.6290   13.7300   19.8910 H   0  0  0  0  0  0  0  0  0  0  0  0
   10.1540   15.0180   18.8220 H   0  0  0  0  0  0  0  0  0  0  0  0
   11.7890   14.9480   19.5020 H   0  0  0  0  0  0  0  0  0  0  0  0
    8.3540   14.7180   20.9130 H   0  0  0  0  0  0  0  0  0  0  0  0
   10.2260   11.8280   22.9130 H   0  0  0  0  0  0  0  0  0  0  0  0
  1  2  1  0
  2  3  2  0
  3  4  1  0
  4  5  1  0
  4  6  1  0
  6  7  1  0
  7  8  1  0
  8  9  2  3
  9 10  1  0
 10 11  1  0
 11 12  1  0
 12 13  1  0
 12 14  1  0
  6 15  2  0
 15  2  1  0
 14  9  1  0
  1 16  1  0
  1 17  1  0
  1 18  1  0
  5 19  1  0
  5 20  1  0
  5 21  1  0
  7 22  1  0
  7 23  1  0
 10 24  1  0
 11 25  1  0
 11 26  1  0
 12 27  1  0
 13 28  1  0
 13 29  1  0
 13 30  1  0
 14 31  1  0
 15 32  1  0
A    1
 C1 
A    2
 C2 
A    3
 N1 
A    4
 N2 
A    5
 C3 
A    6
 C4 
A    7
 C5 
A    8
 N3 
A    9
 C6 
A   10
 N4 
A   11
 C7 
A   12
 C8 
A   13
 C9 
A   14
 N5 
A   15
 C10
A   16
 H1 
A   17
 H2 
A   18
 H3 
A   19
 H4 
A   20
 H5 
A   21
 H6 
A   22
 H7 
A   23
 H8 
A   24
 H9 
A   25
 H10
A   26
 H11
A   27
 H12
A   28
 H13
A   29
 H14
A   30
 H15
A   31
 H16
A   32
 H17
M  END
>  <ref_pdb>  (16) 
x0554_0A

>  <ref_mols>  (16) 
x0310_0A

>  <original SMILES>  (16) 
Cc1cc(CN=C2NCC(C)N2)n(C)n1

>  <rationale>  (16) 
info cluster #7 (rank 2); hbond:S87+G127+T126; hydroph_interaction:D109+V124; 

>  <cluster_rank>  (16) 
2

>  <N_interactions>  (16) 
5

>  <N_interactions_lost>  (16) 
1

>  <∆∆G>  (16) 
-8.452452

>  <comRMSD>  (16) 
0.66486

>  <N_rotatable_bonds>  (16) 
5

>  <N_unconstrained_atoms>  (16) 
2

>  <N_constrained_atoms>  (16) 
13

$$$$
Z1616812139
     RDKit          3D

 32 33  0  0  0  0  0  0  0  0999 V2000
   12.4500   15.3240   21.3590 C   0  0  0  0  0  0  0  0  0  0  0  0
   11.1410   14.8450   21.6830 N   0  0  0  0  0  0  0  0  0  0  0  0
   11.1170   13.5410   22.2190 N   0  0  0  0  0  0  0  0  0  0  0  0
   10.8130   13.3450   23.5500 C   0  0  0  0  0  0  0  0  0  0  0  0
   11.2280   14.0900   24.4340 O   0  0  0  0  0  0  0  0  0  0  0  0
    9.9260   12.1490   23.9000 C   0  0  0  0  0  0  0  0  0  0  0  0
   10.2580   10.9330   23.3110 C   0  0  0  0  0  0  0  0  0  0  0  0
    9.3390   10.0390   23.7850 N   0  0  0  0  0  0  0  0  0  0  0  0
    9.2950    8.6360   23.4410 C   0  0  0  0  0  0  0  0  0  0  0  0
    8.4460   10.6690   24.6600 C   0  0  0  0  0  0  0  0  0  0  0  0
    7.2920   10.0470   25.4110 C   0  0  0  0  0  0  0  0  0  0  0  0
    6.6340   11.0210   26.1780 C   0  0  0  0  0  0  0  0  0  0  0  0
    6.9790   12.3720   26.2570 C   0  0  0  0  0  0  0  0  0  0  0  0
    8.0530   12.8700   25.5470 C   0  0  0  0  0  0  0  0  0  0  0  0
    8.8070   12.0250   24.7360 C   0  0  0  0  0  0  0  0  0  0  0  0
   10.0050   15.3650   21.1120 C   0  0  0  0  0  0  0  0  0  0  0  0
   10.1340   16.6120   20.5620 N   0  0  0  0  0  0  0  0  0  0  0  0
    8.9340   14.7950   21.0930 O   0  0  0  0  0  0  0  0  0  0  0  0
   12.7360   14.9740   20.3590 H   0  0  0  0  0  0  0  0  0  0  0  0
   13.1700   14.9640   22.0910 H   0  0  0  0  0  0  0  0  0  0  0  0
   12.4420   16.4070   21.3640 H   0  0  0  0  0  0  0  0  0  0  0  0
   11.1760   12.7570   21.5600 H   0  0  0  0  0  0  0  0  0  0  0  0
   11.0720   10.7310   22.6240 H   0  0  0  0  0  0  0  0  0  0  0  0
    9.1200    8.0700   24.3600 H   0  0  0  0  0  0  0  0  0  0  0  0
    8.4700    8.4350   22.7600 H   0  0  0  0  0  0  0  0  0  0  0  0
   10.2460    8.3580   22.9750 H   0  0  0  0  0  0  0  0  0  0  0  0
    7.0770    9.0030   25.3170 H   0  0  0  0  0  0  0  0  0  0  0  0
    5.7790   10.6890   26.7640 H   0  0  0  0  0  0  0  0  0  0  0  0
    6.3980   13.0410   26.8860 H   0  0  0  0  0  0  0  0  0  0  0  0
    8.2400   13.9410   25.6800 H   0  0  0  0  0  0  0  0  0  0  0  0
    9.3680   17.2220   20.8180 H   0  0  0  0  0  0  0  0  0  0  0  0
   10.3140   16.5900   19.5660 H   0  0  0  0  0  0  0  0  0  0  0  0
  1  2  1  0
  2  3  1  0
  3  4  1  0
  4  5  2  0
  4  6  1  0
  6  7  2  0
  7  8  1  0
  8  9  1  0
  8 10  1  0
 10 11  2  0
 11 12  1  0
 12 13  2  0
 13 14  1  0
 14 15  2  0
  2 16  1  0
 16 17  1  0
 16 18  2  0
 15  6  1  0
 15 10  1  0
  1 19  1  0
  1 20  1  0
  1 21  1  0
  3 22  1  0
  7 23  1  0
  9 24  1  0
  9 25  1  0
  9 26  1  0
 11 27  1  0
 12 28  1  0
 13 29  1  0
 14 30  1  0
 17 31  1  0
 17 32  1  0
A    1
 C1 
A    2
 N1 
A    3
 N2 
A    4
 C2 
A    5
 O1 
A    6
 C3 
A    7
 C4 
A    8
 N3 
A    9
 C5 
A   10
 C6 
A   11
 C7 
A   12
 C8 
A   13
 C9 
A   14
 C10
A   15
 C11
A   16
 C12
A   17
 N4 
A   18
 O2 
A   19
 H1 
A   20
 H2 
A   21
 H3 
A   22
 H4 
A   23
 H5 
A   24
 H6 
A   25
 H7 
A   26
 H8 
A   27
 H9 
A   28
 H10
A   29
 H11
A   30
 H12
A   31
 H13
A   32
 H14
M  END
>  <ref_pdb>  (17) 
x0554_0A

>  <ref_mols>  (17) 
x0451_0A

>  <original SMILES>  (17) 
CN(NC(=O)c1cn(C)c2ccccc12)C(N)=O

>  <rationale>  (17) 
info cluster #3 (rank 2); hbond:S87+S125; 

>  <cluster_rank>  (17) 
2

>  <N_interactions>  (17) 
3

>  <N_interactions_lost>  (17) 
2

>  <∆∆G>  (17) 
-9.292517

>  <comRMSD>  (17) 
0.771795

>  <N_rotatable_bonds>  (17) 
3

>  <N_unconstrained_atoms>  (17) 
1

>  <N_constrained_atoms>  (17) 
17

$$$$
Z1262691367
     RDKit          3D

 23 23  0  0  0  0  0  0  0  0999 V2000
   10.8940   14.3320   20.3050 N   0  0  0  0  0  0  0  0  0  0  0  0
   10.0940   14.6440   21.3580 N   0  0  0  0  0  0  0  0  0  0  0  0
   10.4790   14.2880   22.6580 C   0  0  0  0  0  0  0  0  0  0  0  0
   11.5750   14.5670   23.1000 O   0  0  0  0  0  0  0  0  0  0  0  0
    9.3800   13.6040   23.4480 C   0  0  1  0  0  0  0  0  0  0  0  0
    8.1210   13.9250   22.7410 N   0  0  0  0  0  0  0  0  0  0  0  0
    9.3340   12.2170   23.7410 C   0  0  0  0  0  0  0  0  0  0  0  0
   10.1290   11.1320   23.3490 C   0  0  0  0  0  0  0  0  0  0  0  0
    9.9340    9.7390   23.7510 C   0  0  0  0  0  0  0  0  0  0  0  0
    8.7730    9.4610   24.6770 C   0  0  0  0  0  0  0  0  0  0  0  0
    7.9350   10.4980   25.1120 C   0  0  0  0  0  0  0  0  0  0  0  0
    8.1660   11.8160   24.6910 C   0  0  0  0  0  0  0  0  0  0  0  0
   11.0560   13.3120   20.3270 H   0  0  0  0  0  0  0  0  0  0  0  0
   11.8260   14.7160   20.5110 H   0  0  0  0  0  0  0  0  0  0  0  0
    9.5120   15.4830   21.3040 H   0  0  0  0  0  0  0  0  0  0  0  0
    9.2790   14.1190   24.4060 H   0  0  0  0  0  0  0  0  0  0  0  0
    7.5370   13.0840   22.7710 H   0  0  0  0  0  0  0  0  0  0  0  0
    7.6130   14.6030   23.3130 H   0  0  0  0  0  0  0  0  0  0  0  0
   10.9720   11.3410   22.6810 H   0  0  0  0  0  0  0  0  0  0  0  0
   10.5860    8.9300   23.4120 H   0  0  0  0  0  0  0  0  0  0  0  0
    8.5720    8.4470   25.0210 H   0  0  0  0  0  0  0  0  0  0  0  0
    7.1040   10.2780   25.7790 H   0  0  0  0  0  0  0  0  0  0  0  0
    7.4460   12.5380   25.0950 H   0  0  0  0  0  0  0  0  0  0  0  0
  1  2  1  0
  2  3  1  0
  3  4  2  0
  3  5  1  0
  5  6  1  0
  5  7  1  0
  7  8  2  0
  8  9  1  0
  9 10  2  0
 10 11  1  0
 11 12  2  0
 12  7  1  0
  1 13  1  0
  1 14  1  0
  2 15  1  0
  5 16  1  1
  6 17  1  0
  6 18  1  0
  8 19  1  0
  9 20  1  0
 10 21  1  0
 11 22  1  0
 12 23  1  0
A    1
 N1 
A    2
 N2 
A    3
 C1 
A    4
 O1 
A    5
 C2 
A    6
 N3 
A    7
 C3 
A    8
 C4 
A    9
 C5 
A   10
 C6 
A   11
 C7 
A   12
 C8 
A   13
 H1 
A   14
 H2 
A   15
 H3 
A   16
 H4 
A   17
 H5 
A   18
 H6 
A   19
 H7 
A   20
 H8 
A   21
 H9 
A   22
 H10
A   23
 H11
M  END
>  <ref_pdb>  (18) 
x0554_0A

>  <ref_mols>  (18) 
x0566_0A

>  <original SMILES>  (18) 
NNC(=O)[C@@H](N)c1ccccc1

>  <rationale>  (18) 
info cluster #1 (rank 2); hbond:S125+G127+T126; 

>  <cluster_rank>  (18) 
2

>  <N_interactions>  (18) 
4

>  <N_interactions_lost>  (18) 
0

>  <∆∆G>  (18) 
-5.10068

>  <comRMSD>  (18) 
0.818283

>  <N_rotatable_bonds>  (18) 
4

>  <N_unconstrained_atoms>  (18) 
0

>  <N_constrained_atoms>  (18) 
13

$$$$
Z3380162507
     RDKit          3D

 28 29  0  0  0  0  0  0  0  0999 V2000
   11.8890   14.2650   22.0700 C   0  0  0  0  0  0  0  0  0  0  0  0
   10.6900   13.5270   22.3580 O   0  0  0  0  0  0  0  0  0  0  0  0
   10.4650   13.3060   23.6900 C   0  0  0  0  0  0  0  0  0  0  0  0
   10.8740   14.0730   24.5550 O   0  0  0  0  0  0  0  0  0  0  0  0
    9.6750   12.0870   24.0130 C   0  0  0  0  0  0  0  0  0  0  0  0
    9.9260   10.7970   23.6060 C   0  0  0  0  0  0  0  0  0  0  0  0
   10.9260   10.3550   22.8610 C   0  0  0  0  0  0  0  0  0  0  0  0
    9.0030    9.9420   24.0720 N   0  0  0  0  0  0  0  0  0  0  0  0
    9.0110    8.5230   23.7790 C   0  0  0  0  0  0  0  0  0  0  0  0
    8.1070   10.6200   24.8400 C   0  0  0  0  0  0  0  0  0  0  0  0
    7.0020   10.1490   25.5410 C   0  0  0  0  0  0  0  0  0  0  0  0
    6.1390   11.0980   26.3390 C   0  0  0  0  0  0  0  0  0  0  0  0
    6.5270   12.4300   26.3110 C   0  0  0  0  0  0  0  0  0  0  0  0
    7.7280   12.8900   25.5410 C   0  0  0  0  0  0  0  0  0  0  0  0
    8.4980   11.9690   24.8200 C   0  0  0  0  0  0  0  0  0  0  0  0
   12.6570   13.9630   22.7890 H   0  0  0  0  0  0  0  0  0  0  0  0
   11.7260   15.3390   22.1840 H   0  0  0  0  0  0  0  0  0  0  0  0
   12.2350   14.0510   21.0570 H   0  0  0  0  0  0  0  0  0  0  0  0
   11.5000    9.6390   23.4510 H   0  0  0  0  0  0  0  0  0  0  0  0
   10.5620    9.8460   21.9690 H   0  0  0  0  0  0  0  0  0  0  0  0
   11.5850   11.1740   22.5640 H   0  0  0  0  0  0  0  0  0  0  0  0
    8.3010    8.3380   22.9720 H   0  0  0  0  0  0  0  0  0  0  0  0
    8.7230    7.9490   24.6650 H   0  0  0  0  0  0  0  0  0  0  0  0
   10.0200    8.2390   23.4690 H   0  0  0  0  0  0  0  0  0  0  0  0
    6.7420    9.1110   25.5340 H   0  0  0  0  0  0  0  0  0  0  0  0
    5.2710   10.7550   26.8970 H   0  0  0  0  0  0  0  0  0  0  0  0
    5.9470   13.1630   26.8620 H   0  0  0  0  0  0  0  0  0  0  0  0
    7.9900   13.9430   25.5530 H   0  0  0  0  0  0  0  0  0  0  0  0
  1  2  1  0
  2  3  1  0
  3  4  2  0
  3  5  1  0
  5  6  2  0
  6  7  1  0
  6  8  1  0
  8  9  1  0
  8 10  1  0
 10 11  2  0
 11 12  1  0
 12 13  2  0
 13 14  1  0
 14 15  2  0
 15  5  1  0
 15 10  1  0
  1 16  1  0
  1 17  1  0
  1 18  1  0
  7 19  1  0
  7 20  1  0
  7 21  1  0
  9 22  1  0
  9 23  1  0
  9 24  1  0
 11 25  1  0
 12 26  1  0
 13 27  1  0
 14 28  1  0
A    1
 C1 
A    2
 O1 
A    3
 C2 
A    4
 O2 
A    5
 C3 
A    6
 C4 
A    7
 C5 
A    8
 N1 
A    9
 C6 
A   10
 C7 
A   11
 C8 
A   12
 C9 
A   13
 C10
A   14
 C11
A   15
 C12
A   16
 H1 
A   17
 H2 
A   18
 H3 
A   19
 H4 
A   20
 H5 
A   21
 H6 
A   22
 H7 
A   23
 H8 
A   24
 H9 
A   25
 H10
A   26
 H11
A   27
 H12
A   28
 H13
M  END
>  <ref_pdb>  (19) 
x0554_0A

>  <ref_mols>  (19) 
x0451_0A,x0451_0A

>  <original SMILES>  (19) 
COC(=O)c1c(C)n(C)c2ccccc12

>  <rationale>  (19) 
info cluster #4 (rank 2); hydroph_interaction:A110; saltbridge:H21; 

>  <cluster_rank>  (19) 
2

>  <N_interactions>  (19) 
2

>  <N_interactions_lost>  (19) 
0

>  <∆∆G>  (19) 
-8.427579

>  <comRMSD>  (19) 
0.566174

>  <N_rotatable_bonds>  (19) 
4

>  <N_unconstrained_atoms>  (19) 
1

>  <N_constrained_atoms>  (19) 
14

$$$$
Z1539143089
     RDKit          3D

 29 30  0  0  0  0  0  0  0  0999 V2000
   11.4430   14.5720   19.9190 C   0  0  0  0  0  0  0  0  0  0  0  0
   11.9710   14.8440   21.3260 C   0  0  0  0  0  0  0  0  0  0  0  0
   12.6800   15.8020   21.5630 O   0  0  0  0  0  0  0  0  0  0  0  0
   11.5580   13.9110   22.2920 N   0  0  0  0  0  0  0  0  0  0  0  0
   10.1250   14.0530   23.1370 S   0  0  0  0  0  6  0  0  0  0  0  0
   10.3290   14.7830   24.3650 O   0  0  0  0  0  0  0  0  0  0  0  0
    9.0880   14.3570   22.1680 O   0  0  0  0  0  0  0  0  0  0  0  0
    9.6400   12.4830   23.6780 C   0  0  0  0  0  0  0  0  0  0  0  0
   10.2130   11.1520   23.2360 C   0  0  0  0  0  0  0  0  0  0  0  0
    9.5040   10.2090   23.9020 N   0  0  0  0  0  0  0  0  0  0  0  0
    9.7200    8.7940   23.7420 C   0  0  0  0  0  0  0  0  0  0  0  0
    8.5540   10.7850   24.7370 C   0  0  0  0  0  0  0  0  0  0  0  0
    7.6590   10.1820   25.5760 C   0  0  0  0  0  0  0  0  0  0  0  0
    6.7780   10.9570   26.3190 C   0  0  0  0  0  0  0  0  0  0  0  0
    6.8050   12.3340   26.2240 C   0  0  0  0  0  0  0  0  0  0  0  0
    7.7200   12.9590   25.3780 C   0  0  0  0  0  0  0  0  0  0  0  0
    8.6170   12.1840   24.6130 C   0  0  0  0  0  0  0  0  0  0  0  0
   11.2940   15.5000   19.3600 H   0  0  0  0  0  0  0  0  0  0  0  0
   12.1380   13.9390   19.3550 H   0  0  0  0  0  0  0  0  0  0  0  0
   10.4830   14.0570   19.9700 H   0  0  0  0  0  0  0  0  0  0  0  0
   12.0800   13.0520   22.4500 H   0  0  0  0  0  0  0  0  0  0  0  0
   11.0010   10.8960   22.5430 H   0  0  0  0  0  0  0  0  0  0  0  0
    9.4500    8.5140   22.7190 H   0  0  0  0  0  0  0  0  0  0  0  0
    9.0980    8.2680   24.4680 H   0  0  0  0  0  0  0  0  0  0  0  0
   10.7730    8.5690   23.9200 H   0  0  0  0  0  0  0  0  0  0  0  0
    7.6260    9.1150   25.6720 H   0  0  0  0  0  0  0  0  0  0  0  0
    6.0640   10.4720   26.9820 H   0  0  0  0  0  0  0  0  0  0  0  0
    6.1130   12.9350   26.8080 H   0  0  0  0  0  0  0  0  0  0  0  0
    7.7320   14.0440   25.3140 H   0  0  0  0  0  0  0  0  0  0  0  0
  1  2  1  0
  2  3  2  0
  2  4  1  0
  4  5  1  0
  5  6  2  0
  5  7  2  0
  5  8  1  0
  8  9  2  0
  9 10  1  0
 10 11  1  0
 10 12  1  0
 12 13  2  0
 13 14  1  0
 14 15  2  0
 15 16  1  0
 16 17  2  0
 17  8  1  0
 17 12  1  0
  1 18  1  0
  1 19  1  0
  1 20  1  0
  4 21  1  0
  9 22  1  0
 11 23  1  0
 11 24  1  0
 11 25  1  0
 13 26  1  0
 14 27  1  0
 15 28  1  0
 16 29  1  0
A    1
 C1 
A    2
 C2 
A    3
 O1 
A    4
 N1 
A    5
 S1 
A    6
 O2 
A    7
 O3 
A    8
 C3 
A    9
 C4 
A   10
 N2 
A   11
 C5 
A   12
 C6 
A   13
 C7 
A   14
 C8 
A   15
 C9 
A   16
 C10
A   17
 C11
A   18
 H1 
A   19
 H2 
A   20
 H3 
A   21
 H4 
A   22
 H5 
A   23
 H6 
A   24
 H7 
A   25
 H8 
A   26
 H9 
A   27
 H10
A   28
 H11
A   29
 H12
M  END
>  <ref_pdb>  (20) 
x0554_0A

>  <ref_mols>  (20) 
x0451_0A,x0566_0A

>  <original SMILES>  (20) 
CC(=O)NS(=O)(=O)c1cn(C)c2ccccc12

>  <rationale>  (20) 
info cluster #9 (rank 2); hbond:H21+S87; 

>  <cluster_rank>  (20) 
2

>  <N_interactions>  (20) 
2

>  <N_interactions_lost>  (20) 
1

>  <∆∆G>  (20) 
-8.945729

>  <comRMSD>  (20) 
0.775875

>  <N_rotatable_bonds>  (20) 
4

>  <N_unconstrained_atoms>  (20) 
1

>  <N_constrained_atoms>  (20) 
17

$$$$
Z1904034794
     RDKit          3D

 34 34  0  0  0  0  0  0  0  0999 V2000
   10.2650    8.7770   23.2970 C   0  0  0  0  0  0  0  0  0  0  0  0
    9.4650    9.9540   23.7490 C   0  0  0  0  0  0  0  0  0  0  0  0
    8.4310    9.7140   24.6010 N   0  0  0  0  0  0  0  0  0  0  0  0
    7.9240   10.9450   24.8060 N   0  0  0  0  0  0  0  0  0  0  0  0
    6.8090   11.0510   25.6810 C   0  0  0  0  0  0  0  0  0  0  0  0
    8.5980   11.9460   24.1040 C   0  0  0  0  0  0  0  0  0  0  0  0
    8.3120   13.3220   24.0840 C   0  0  0  0  0  0  0  0  0  0  0  0
    8.6520   13.7570   22.7190 O   0  0  0  0  0  0  0  0  0  0  0  0
    9.6750   14.6600   22.5080 C   0  0  0  0  0  0  0  0  0  0  0  0
   10.5150   14.9140   23.3630 O   0  0  0  0  0  0  0  0  0  0  0  0
    9.8020   15.4350   21.1670 C   0  0  0  0  0  0  0  0  0  0  0  0
   10.3680   14.8630   19.9950 C   0  0  0  0  0  0  0  0  0  0  0  0
   10.5040   15.6100   18.8000 C   0  0  0  0  0  0  0  0  0  0  0  0
   11.8730   15.4420   18.2240 C   0  0  0  0  0  0  0  0  0  0  0  0
    9.6700   15.0460   17.6370 C   0  0  0  0  0  0  0  0  0  0  0  0
    9.6050   11.3000   23.4340 C   0  0  0  0  0  0  0  0  0  0  0  0
   10.8020    9.0110   22.3760 H   0  0  0  0  0  0  0  0  0  0  0  0
   10.9760    8.5310   24.0830 H   0  0  0  0  0  0  0  0  0  0  0  0
    9.5920    7.9320   23.1300 H   0  0  0  0  0  0  0  0  0  0  0  0
    6.3320   12.0160   25.5310 H   0  0  0  0  0  0  0  0  0  0  0  0
    6.1120   10.2330   25.4630 H   0  0  0  0  0  0  0  0  0  0  0  0
    7.1560   10.9760   26.7170 H   0  0  0  0  0  0  0  0  0  0  0  0
    8.7720   13.9500   24.8380 H   0  0  0  0  0  0  0  0  0  0  0  0
    7.2230   13.4370   24.1650 H   0  0  0  0  0  0  0  0  0  0  0  0
    9.4560   16.4650   21.1280 H   0  0  0  0  0  0  0  0  0  0  0  0
   10.7210   13.8390   20.0170 H   0  0  0  0  0  0  0  0  0  0  0  0
   10.1610   16.6390   18.8780 H   0  0  0  0  0  0  0  0  0  0  0  0
   12.0190   14.5470   17.6380 H   0  0  0  0  0  0  0  0  0  0  0  0
   12.0990   16.2810   17.5600 H   0  0  0  0  0  0  0  0  0  0  0  0
   12.6300   15.4180   19.0100 H   0  0  0  0  0  0  0  0  0  0  0  0
    8.6290   14.8910   17.8970 H   0  0  0  0  0  0  0  0  0  0  0  0
   10.0770   14.0850   17.3070 H   0  0  0  0  0  0  0  0  0  0  0  0
    9.6960   15.7250   16.7760 H   0  0  0  0  0  0  0  0  0  0  0  0
   10.3570   11.7570   22.7810 H   0  0  0  0  0  0  0  0  0  0  0  0
  1  2  1  0
  2  3  2  0
  3  4  1  0
  4  5  1  0
  4  6  1  0
  6  7  1  0
  7  8  1  0
  8  9  1  0
  9 10  2  0
  9 11  1  0
 11 12  2  3
 12 13  1  0
 13 14  1  0
 13 15  1  0
  6 16  2  0
 16  2  1  0
  1 17  1  0
  1 18  1  0
  1 19  1  0
  5 20  1  0
  5 21  1  0
  5 22  1  0
  7 23  1  0
  7 24  1  0
 11 25  1  0
 12 26  1  0
 13 27  1  0
 14 28  1  0
 14 29  1  0
 14 30  1  0
 15 31  1  0
 15 32  1  0
 15 33  1  0
 16 34  1  0
A    1
 C1 
A    2
 C2 
A    3
 N1 
A    4
 N2 
A    5
 C3 
A    6
 C4 
A    7
 C5 
A    8
 O1 
A    9
 C6 
A   10
 O2 
A   11
 C7 
A   12
 C8 
A   13
 C9 
A   14
 C10
A   15
 C11
A   16
 C12
A   17
 H1 
A   18
 H2 
A   19
 H3 
A   20
 H4 
A   21
 H5 
A   22
 H6 
A   23
 H7 
A   24
 H8 
A   25
 H9 
A   26
 H10
A   27
 H11
A   28
 H12
A   29
 H13
A   30
 H14
A   31
 H15
A   32
 H16
A   33
 H17
A   34
 H18
M  END
>  <ref_pdb>  (21) 
x0554_0A

>  <ref_mols>  (21) 
x0310_0A

>  <original SMILES>  (21) 
Cc1cc(COC(=O)C=CC(C)C)n(C)n1

>  <rationale>  (21) 
info cluster #2 (rank 3); hbond:S87; hydroph_interaction:Y90+D109+V124+V84+D39; 

>  <cluster_rank>  (21) 
3

>  <N_interactions>  (21) 
7

>  <N_interactions_lost>  (21) 
1

>  <∆∆G>  (21) 
-10.082137

>  <comRMSD>  (21) 
0.548367

>  <N_rotatable_bonds>  (21) 
8

>  <N_unconstrained_atoms>  (21) 
4

>  <N_constrained_atoms>  (21) 
13

$$$$
Z1483899480
     RDKit          3D

 26 27  0  0  0  0  0  0  0  0999 V2000
   11.9030   14.3290   22.5750 C   0  0  0  0  0  0  0  0  0  0  0  0
   11.1050   13.4940   23.5030 C   0  0  0  0  0  0  0  0  0  0  0  0
   11.0510   13.8140   24.6830 O   0  0  0  0  0  0  0  0  0  0  0  0
   10.4980   12.4410   22.9610 N   0  0  0  0  0  0  0  0  0  0  0  0
    9.8140   11.3230   23.5240 C   0  0  0  0  0  0  0  0  0  0  0  0
   10.2720   10.0640   23.1020 C   0  0  0  0  0  0  0  0  0  0  0  0
    9.7110    8.8950   23.5390 C   0  0  0  0  0  0  0  0  0  0  0  0
    8.5650    9.0200   24.5040 C   0  0  0  0  0  0  0  0  0  0  0  0
    8.0930   10.2380   24.9310 C   0  0  0  0  0  0  0  0  0  0  0  0
    6.9190   10.2120   25.9030 C   0  0  0  0  0  0  0  0  0  0  0  0
    6.4370   11.5560   26.3410 C   0  0  0  0  0  0  0  0  0  0  0  0
    7.0570   12.6950   25.8620 C   0  0  0  0  0  0  0  0  0  0  0  0
    6.6230   13.9260   26.2570 O   0  0  0  0  0  0  0  0  0  0  0  0
    8.1390   12.6570   24.9630 C   0  0  0  0  0  0  0  0  0  0  0  0
    8.6990   11.4430   24.4610 C   0  0  0  0  0  0  0  0  0  0  0  0
   12.9520   14.3390   22.8810 H   0  0  0  0  0  0  0  0  0  0  0  0
   11.8470   13.9310   21.5550 H   0  0  0  0  0  0  0  0  0  0  0  0
   11.5450   15.3640   22.5570 H   0  0  0  0  0  0  0  0  0  0  0  0
   10.8290   12.2470   22.0130 H   0  0  0  0  0  0  0  0  0  0  0  0
   11.0910    9.9660   22.4080 H   0  0  0  0  0  0  0  0  0  0  0  0
   10.0800    7.9310   23.2020 H   0  0  0  0  0  0  0  0  0  0  0  0
    8.1640    8.0630   24.8220 H   0  0  0  0  0  0  0  0  0  0  0  0
    6.4560    9.2980   26.2580 H   0  0  0  0  0  0  0  0  0  0  0  0
    5.6030   11.6170   27.0320 H   0  0  0  0  0  0  0  0  0  0  0  0
    5.8350   14.1570   25.7320 H   0  0  0  0  0  0  0  0  0  0  0  0
    8.5310   13.6220   24.6640 H   0  0  0  0  0  0  0  0  0  0  0  0
  1  2  1  0
  2  3  2  0
  2  4  1  0
  4  5  1  0
  5  6  2  0
  6  7  1  0
  7  8  2  0
  8  9  1  0
  9 10  2  0
 10 11  1  0
 11 12  2  0
 12 13  1  0
 12 14  1  0
 14 15  2  0
 15  5  1  0
 15  9  1  0
  1 16  1  0
  1 17  1  0
  1 18  1  0
  4 19  1  0
  6 20  1  0
  7 21  1  0
  8 22  1  0
 10 23  1  0
 11 24  1  0
 13 25  1  0
 14 26  1  0
A    1
 C1 
A    2
 C2 
A    3
 O1 
A    4
 N1 
A    5
 C3 
A    6
 C4 
A    7
 C5 
A    8
 C6 
A    9
 C7 
A   10
 C8 
A   11
 C9 
A   12
 C10
A   13
 O2 
A   14
 C11
A   15
 C12
A   16
 H1 
A   17
 H2 
A   18
 H3 
A   19
 H4 
A   20
 H5 
A   21
 H6 
A   22
 H7 
A   23
 H8 
A   24
 H9 
A   25
 H10
A   26
 H11
M  END
>  <ref_pdb>  (22) 
x0554_0A

>  <ref_mols>  (22) 
x0554_0A,x0451_0A

>  <original SMILES>  (22) 
CC(=O)Nc1cccc2ccc(O)cc12

>  <rationale>  (22) 
info cluster #8 (rank 3); hbond:S125; hydroph_interaction:Y89+D109+V124; 

>  <cluster_rank>  (22) 
3

>  <N_interactions>  (22) 
4

>  <N_interactions_lost>  (22) 
1

>  <∆∆G>  (22) 
-8.399045

>  <comRMSD>  (22) 
0.799828

>  <N_rotatable_bonds>  (22) 
3

>  <N_unconstrained_atoms>  (22) 
1

>  <N_constrained_atoms>  (22) 
16

$$$$
Z4890837094
     RDKit          3D

 24 25  0  0  0  0  0  0  0  0999 V2000
   11.7050   14.2290   22.5740 N   0  0  0  0  0  0  0  0  0  0  0  0
   11.0460   13.5040   23.5360 C   0  0  0  0  0  0  0  0  0  0  0  0
   11.0050   13.9110   24.6940 O   0  0  0  0  0  0  0  0  0  0  0  0
   10.5160   12.3800   22.9800 N   0  0  0  0  0  0  0  0  0  0  0  0
    9.8170   11.3740   23.5370 C   0  0  0  0  0  0  0  0  0  0  0  0
   10.3450   10.0290   23.0090 C   0  0  0  0  0  0  0  0  0  0  0  0
    9.5620    8.8910   23.6210 C   0  0  0  0  0  0  0  0  0  0  0  0
    8.5360    9.0360   24.5110 C   0  0  0  0  0  0  0  0  0  0  0  0
    8.0900   10.2670   24.9510 C   0  0  0  0  0  0  0  0  0  0  0  0
    7.0390   10.2670   25.8410 C   0  0  0  0  0  0  0  0  0  0  0  0
    6.4930   11.5570   26.3700 C   0  0  0  0  0  0  0  0  0  0  0  0
    5.4720   11.5960   27.2400 F   0  0  0  0  0  0  0  0  0  0  0  0
    7.1110   12.7160   25.9050 C   0  0  0  0  0  0  0  0  0  0  0  0
    8.1760   12.6800   25.0020 C   0  0  0  0  0  0  0  0  0  0  0  0
    8.7100   11.4780   24.4860 C   0  0  0  0  0  0  0  0  0  0  0  0
   11.7960   13.6660   21.7110 H   0  0  0  0  0  0  0  0  0  0  0  0
   11.2240   15.0660   22.2370 H   0  0  0  0  0  0  0  0  0  0  0  0
   10.8140   12.1620   22.0220 H   0  0  0  0  0  0  0  0  0  0  0  0
   11.1370    9.7690   22.3110 H   0  0  0  0  0  0  0  0  0  0  0  0
    9.8030    7.8700   23.3580 H   0  0  0  0  0  0  0  0  0  0  0  0
    8.1120    8.0950   24.8370 H   0  0  0  0  0  0  0  0  0  0  0  0
    6.5860    9.3410   26.1770 H   0  0  0  0  0  0  0  0  0  0  0  0
    6.7460   13.6740   26.2640 H   0  0  0  0  0  0  0  0  0  0  0  0
    8.5810   13.6390   24.7070 H   0  0  0  0  0  0  0  0  0  0  0  0
  1  2  1  0
  2  3  2  0
  2  4  1  0
  4  5  1  0
  5  6  2  0
  6  7  1  0
  7  8  2  0
  8  9  1  0
  9 10  2  0
 10 11  1  0
 11 12  1  0
 11 13  2  0
 13 14  1  0
 14 15  2  0
 15  5  1  0
 15  9  1  0
  1 16  1  0
  1 17  1  0
  4 18  1  0
  6 19  1  0
  7 20  1  0
  8 21  1  0
 10 22  1  0
 13 23  1  0
 14 24  1  0
A    1
 N1 
A    2
 C1 
A    3
 O1 
A    4
 N2 
A    5
 C2 
A    6
 C3 
A    7
 C4 
A    8
 C5 
A    9
 C6 
A   10
 C7 
A   11
 C8 
A   12
 F1 
A   13
 C9 
A   14
 C10
A   15
 C11
A   16
 H1 
A   17
 H2 
A   18
 H3 
A   19
 H4 
A   20
 H5 
A   21
 H6 
A   22
 H7 
A   23
 H8 
A   24
 H9 
M  END
>  <ref_pdb>  (23) 
x0554_0A

>  <ref_mols>  (23) 
x0554_0A,x0451_0A

>  <original SMILES>  (23) 
NC(=O)Nc1cccc2cc(F)ccc12

>  <rationale>  (23) 
info cluster #0 (rank 3); hbond:S125; hydroph_interaction:D109; 

>  <cluster_rank>  (23) 
3

>  <N_interactions>  (23) 
3

>  <N_interactions_lost>  (23) 
1

>  <∆∆G>  (23) 
-6.87663

>  <comRMSD>  (23) 
0.806669

>  <N_rotatable_bonds>  (23) 
1

>  <N_unconstrained_atoms>  (23) 
1

>  <N_constrained_atoms>  (23) 
16

$$$$
PV_001905981778
     RDKit          3D

 27 28  0  0  0  0  0  0  0  0999 V2000
   11.8320   14.1750   22.5560 C   0  0  0  0  0  0  0  0  0  0  0  0
   11.0040   13.4210   23.5370 C   0  0  0  0  0  0  0  0  0  0  0  0
   10.9780   13.8310   24.6890 O   0  0  0  0  0  0  0  0  0  0  0  0
   10.3480   12.3420   23.0910 N   0  0  0  0  0  0  0  0  0  0  0  0
    9.5110   11.3910   23.7780 C   0  0  0  0  0  0  0  0  0  0  0  0
    8.5050   11.7510   24.7020 C   0  0  0  0  0  0  0  0  0  0  0  0
    8.1560   13.0340   25.0930 C   0  0  0  0  0  0  0  0  0  0  0  0
    7.0100   13.1840   26.1210 C   0  0  0  0  0  0  0  0  0  0  0  0
    6.3440   12.0170   26.6400 N   0  0  0  0  0  0  0  0  0  0  0  0
    6.7590   10.8410   26.2000 C   0  0  0  0  0  0  0  0  0  0  0  0
    7.7780   10.7110   25.2860 C   0  0  0  0  0  0  0  0  0  0  0  0
    8.0260    9.3110   24.9800 C   0  0  0  0  0  0  0  0  0  0  0  0
    8.9780    9.0020   24.0950 C   0  0  0  0  0  0  0  0  0  0  0  0
    9.6990   10.0030   23.5080 C   0  0  0  0  0  0  0  0  0  0  0  0
   10.6740    9.4770   22.5760 C   0  0  0  0  0  0  0  0  0  0  0  0
   11.4140   15.1720   22.3810 H   0  0  0  0  0  0  0  0  0  0  0  0
   12.8520   14.2900   22.9290 H   0  0  0  0  0  0  0  0  0  0  0  0
   11.8820   13.6560   21.5940 H   0  0  0  0  0  0  0  0  0  0  0  0
   10.6600   12.0410   22.1640 H   0  0  0  0  0  0  0  0  0  0  0  0
    8.6380   13.9300   24.7200 H   0  0  0  0  0  0  0  0  0  0  0  0
    6.6830   14.1680   26.4710 H   0  0  0  0  0  0  0  0  0  0  0  0
    6.2370    9.9800   26.6100 H   0  0  0  0  0  0  0  0  0  0  0  0
    7.4610    8.5530   25.4560 H   0  0  0  0  0  0  0  0  0  0  0  0
    9.1660    7.9560   23.8560 H   0  0  0  0  0  0  0  0  0  0  0  0
   10.1730    9.0840   21.6930 H   0  0  0  0  0  0  0  0  0  0  0  0
   11.2950   10.2800   22.2400 H   0  0  0  0  0  0  0  0  0  0  0  0
   11.2450    8.6790   23.0330 H   0  0  0  0  0  0  0  0  0  0  0  0
  1  2  1  0
  2  3  2  0
  2  4  1  0
  4  5  1  0
  5  6  2  0
  6  7  1  0
  7  8  2  0
  8  9  1  0
  9 10  2  0
 10 11  1  0
 11 12  2  0
 12 13  1  0
 13 14  2  0
 14 15  1  0
 14  5  1  0
 11  6  1  0
  1 16  1  0
  1 17  1  0
  1 18  1  0
  4 19  1  0
  7 20  1  0
  8 21  1  0
 10 22  1  0
 12 23  1  0
 13 24  1  0
 15 25  1  0
 15 26  1  0
 15 27  1  0
A    1
 C1 
A    2
 C2 
A    3
 O1 
A    4
 N1 
A    5
 C3 
A    6
 C4 
A    7
 C5 
A    8
 C6 
A    9
 N2 
A   10
 C7 
A   11
 C8 
A   12
 C9 
A   13
 C10
A   14
 C11
A   15
 C12
A   16
 H1 
A   17
 H2 
A   18
 H3 
A   19
 H4 
A   20
 H5 
A   21
 H6 
A   22
 H7 
A   23
 H8 
A   24
 H9 
A   25
 H10
A   26
 H11
A   27
 H12
M  END
>  <ref_pdb>  (24) 
x0554_0A

>  <ref_mols>  (24) 
x0554_0A,x0451_0A

>  <original SMILES>  (24) 
CC(=O)Nc1c(C)ccc2cnccc12

>  <rationale>  (24) 
info cluster #5 (rank 3); hbond:S125; hydroph_interaction:Y89+A110+V124; 

>  <cluster_rank>  (24) 
3

>  <N_interactions>  (24) 
4

>  <N_interactions_lost>  (24) 
1

>  <∆∆G>  (24) 
-8.223232

>  <comRMSD>  (24) 
0.80535

>  <N_rotatable_bonds>  (24) 
3

>  <N_unconstrained_atoms>  (24) 
1

>  <N_constrained_atoms>  (24) 
15

$$$$
PV_007114396596
     RDKit          3D

 28 30  0  0  0  0  0  0  0  0999 V2000
   14.6900   12.6750   24.7590 C   0  0  0  0  0  0  0  0  0  0  0  0
   13.2920   12.7850   24.3120 C   0  0  0  0  0  0  0  0  0  0  0  0
   12.3760   11.8490   24.5900 C   0  0  0  0  0  0  0  0  0  0  0  0
   11.0550   12.1630   24.0810 C   0  0  0  0  0  0  0  0  0  0  0  0
    9.9360   11.3080   24.2980 C   0  0  0  0  0  0  0  0  0  0  0  0
   10.0130   10.0010   23.9440 N   0  0  0  0  0  0  0  0  0  0  0  0
    8.9470    9.2220   24.2060 C   0  0  0  0  0  0  0  0  0  0  0  0
    7.7890    9.7100   24.8190 C   0  0  0  0  0  0  0  0  0  0  0  0
    7.7090   11.0340   25.1670 C   0  0  0  0  0  0  0  0  0  0  0  0
    8.7990   11.8260   24.8920 C   0  0  0  0  0  0  0  0  0  0  0  0
    8.4880   13.0970   25.3230 N   0  0  0  0  0  0  0  0  0  0  0  0
    7.2330   13.1160   25.8600 C   0  0  0  0  0  0  0  0  0  0  0  0
    6.7250   11.8430   25.7790 C   0  0  0  0  0  0  0  0  0  0  0  0
   11.0480   13.3600   23.4170 C   0  0  0  0  0  0  0  0  0  0  0  0
   10.0150   14.0020   22.8210 C   0  0  0  0  0  0  0  0  0  0  0  0
   12.5960   14.0750   23.3980 S   0  0  0  0  0  0  0  0  0  0  0  0
   15.2300   13.5960   24.6180 H   0  0  0  0  0  0  0  0  0  0  0  0
   14.7250   12.4240   25.8230 H   0  0  0  0  0  0  0  0  0  0  0  0
   15.1950   11.8780   24.2110 H   0  0  0  0  0  0  0  0  0  0  0  0
   12.6050   10.9500   25.1500 H   0  0  0  0  0  0  0  0  0  0  0  0
    9.0390    8.1790   23.9140 H   0  0  0  0  0  0  0  0  0  0  0  0
    6.9590    9.0770   25.0280 H   0  0  0  0  0  0  0  0  0  0  0  0
    9.1090   13.8920   25.2480 H   0  0  0  0  0  0  0  0  0  0  0  0
    6.8110   14.0320   26.2550 H   0  0  0  0  0  0  0  0  0  0  0  0
    5.7490   11.5270   26.1220 H   0  0  0  0  0  0  0  0  0  0  0  0
   10.2260   14.0410   21.7460 H   0  0  0  0  0  0  0  0  0  0  0  0
   10.0030   15.0490   23.1450 H   0  0  0  0  0  0  0  0  0  0  0  0
    8.9910   13.6670   22.9050 H   0  0  0  0  0  0  0  0  0  0  0  0
  1  2  1  0
  2  3  2  0
  3  4  1  0
  4  5  1  0
  5  6  2  0
  6  7  1  0
  7  8  2  0
  8  9  1  0
  9 10  2  0
 10 11  1  0
 11 12  1  0
 12 13  2  0
  4 14  2  0
 14 15  1  0
 14 16  1  0
 16  2  1  0
 10  5  1  0
 13  9  1  0
  1 17  1  0
  1 18  1  0
  1 19  1  0
  3 20  1  0
  7 21  1  0
  8 22  1  0
 11 23  1  0
 12 24  1  0
 13 25  1  0
 15 26  1  0
 15 27  1  0
 15 28  1  0
A    1
 C1 
A    2
 C2 
A    3
 C3 
A    4
 C4 
A    5
 C5 
A    6
 N1 
A    7
 C6 
A    8
 C7 
A    9
 C8 
A   10
 C9 
A   11
 N2 
A   12
 C10
A   13
 C11
A   14
 C12
A   15
 C13
A   16
 S1 
A   17
 H1 
A   18
 H2 
A   19
 H3 
A   20
 H4 
A   21
 H5 
A   22
 H6 
A   23
 H7 
A   24
 H8 
A   25
 H9 
A   26
 H10
A   27
 H11
A   28
 H12
M  END
>  <ref_pdb>  (25) 
x0554_0A

>  <ref_mols>  (25) 
x0554_0A

>  <original SMILES>  (25) 
Cc1cc(-c2nccc3cc[nH]c23)c(C)s1

>  <rationale>  (25) 
info cluster #6 (rank 3); hydroph_interaction:L22+Y89+A110; 

>  <cluster_rank>  (25) 
3

>  <N_interactions>  (25) 
3

>  <N_interactions_lost>  (25) 
0

>  <∆∆G>  (25) 
-7.148049

>  <comRMSD>  (25) 
0.979295

>  <N_rotatable_bonds>  (25) 
3

>  <N_unconstrained_atoms>  (25) 
1

>  <N_constrained_atoms>  (25) 
15

$$$$
Z2269710760
     RDKit          3D

 40 41  0  0  0  0  0  0  0  0999 V2000
   11.7630   14.6150   22.1390 C   0  0  0  0  0  0  0  0  0  0  0  0
   10.6370   13.7290   22.3780 N   0  0  0  0  0  0  0  0  0  0  0  0
    9.9260   13.8060   23.5890 C   0  0  0  0  0  0  0  0  0  0  0  0
    9.8510   15.0050   24.3410 O   0  0  0  0  0  0  0  0  0  0  0  0
    9.2630   12.5130   24.1140 C   0  0  0  0  0  0  0  0  0  0  0  0
    9.9400   11.2800   23.5810 C   0  0  0  0  0  0  0  0  0  0  0  0
    9.4720    9.9580   23.9800 C   0  0  0  0  0  0  0  0  0  0  0  0
   10.0150    8.7750   23.5470 C   0  0  0  0  0  0  0  0  0  0  0  0
    8.4020    9.9210   24.8630 C   0  0  0  0  0  0  0  0  0  0  0  0
    7.7530   11.0610   25.3560 C   0  0  0  0  0  0  0  0  0  0  0  0
    8.1290   12.3700   25.0230 C   0  0  0  0  0  0  0  0  0  0  0  0
    7.4000   13.4690   25.5940 N   0  0  0  0  0  0  0  0  0  0  0  0
    6.0200   13.6870   25.8140 C   0  0  0  0  0  0  0  0  0  0  0  0
    5.1330   14.3810   24.9290 O   0  0  0  0  0  0  0  0  0  0  0  0
    5.3980   13.2190   27.1370 C   0  0  2  0  0  0  0  0  0  0  0  0
    6.4110   12.4710   27.9310 C   0  0  0  0  0  0  0  0  0  0  0  0
    5.4850   12.0480   29.0520 C   0  0  0  0  0  0  0  0  0  0  0  0
    4.2880   11.5510   28.2540 C   0  0  2  0  0  0  0  0  0  0  0  0
    4.4740   10.1140   27.7760 C   0  0  0  0  0  0  0  0  0  0  0  0
    4.2290   12.3870   27.0880 O   0  0  0  0  0  0  0  0  0  0  0  0
   12.0900   14.5190   21.0990 H   0  0  0  0  0  0  0  0  0  0  0  0
   12.6070   14.3640   22.7890 H   0  0  0  0  0  0  0  0  0  0  0  0
   11.4670   15.6520   22.3350 H   0  0  0  0  0  0  0  0  0  0  0  0
   10.6630   12.8500   21.8490 H   0  0  0  0  0  0  0  0  0  0  0  0
   10.7830   11.3620   22.8960 H   0  0  0  0  0  0  0  0  0  0  0  0
    9.2920    7.9640   23.6630 H   0  0  0  0  0  0  0  0  0  0  0  0
   10.9170    8.5430   24.1170 H   0  0  0  0  0  0  0  0  0  0  0  0
   10.3040    8.8460   22.4920 H   0  0  0  0  0  0  0  0  0  0  0  0
    8.0410    8.9690   25.1960 H   0  0  0  0  0  0  0  0  0  0  0  0
    6.9240   10.8770   26.0320 H   0  0  0  0  0  0  0  0  0  0  0  0
    7.9780   14.2730   25.8680 H   0  0  0  0  0  0  0  0  0  0  0  0
    5.0950   14.1260   27.6740 H   0  0  0  0  0  0  0  0  0  0  0  0
    6.8130   11.6060   27.3920 H   0  0  0  0  0  0  0  0  0  0  0  0
    7.2400   13.1020   28.2560 H   0  0  0  0  0  0  0  0  0  0  0  0
    5.9290   11.2190   29.6110 H   0  0  0  0  0  0  0  0  0  0  0  0
    5.2520   12.8520   29.7590 H   0  0  0  0  0  0  0  0  0  0  0  0
    3.3530   11.6420   28.8170 H   0  0  0  0  0  0  0  0  0  0  0  0
    4.9260   10.0990   26.7780 H   0  0  0  0  0  0  0  0  0  0  0  0
    5.1270    9.5570   28.4560 H   0  0  0  0  0  0  0  0  0  0  0  0
    3.5220    9.5820   27.6930 H   0  0  0  0  0  0  0  0  0  0  0  0
  1  2  1  0
  2  3  1  0
  3  4  2  0
  3  5  1  0
  5  6  2  0
  6  7  1  0
  7  8  1  0
  7  9  2  0
  9 10  1  0
 10 11  2  0
 11 12  1  0
 12 13  1  0
 13 14  2  0
 13 15  1  0
 15 16  1  0
 16 17  1  0
 17 18  1  0
 18 19  1  0
 18 20  1  0
 11  5  1  0
 20 15  1  0
  1 21  1  0
  1 22  1  0
  1 23  1  0
  2 24  1  0
  6 25  1  0
  8 26  1  0
  8 27  1  0
  8 28  1  0
  9 29  1  0
 10 30  1  0
 12 31  1  0
 15 32  1  1
 16 33  1  0
 16 34  1  0
 17 35  1  0
 17 36  1  0
 18 37  1  1
 19 38  1  0
 19 39  1  0
 19 40  1  0
A    1
 C1 
A    2
 N1 
A    3
 C2 
A    4
 O1 
A    5
 C3 
A    6
 C4 
A    7
 C5 
A    8
 C6 
A    9
 C7 
A   10
 C8 
A   11
 C9 
A   12
 N2 
A   13
 C10
A   14
 O2 
A   15
 C11
A   16
 C12
A   17
 C13
A   18
 C14
A   19
 C15
A   20
 O3 
A   21
 H1 
A   22
 H2 
A   23
 H3 
A   24
 H4 
A   25
 H5 
A   26
 H6 
A   27
 H7 
A   28
 H8 
A   29
 H9 
A   30
 H10
A   31
 H11
A   32
 H12
A   33
 H13
A   34
 H14
A   35
 H15
A   36
 H16
A   37
 H17
A   38
 H18
A   39
 H19
A   40
 H20
M  END
>  <ref_pdb>  (26) 
x0554_0A

>  <ref_mols>  (26) 
x0416_0A,x0451_0A

>  <original SMILES>  (26) 
CNC(=O)c1cc(C)ccc1NC(=O)[C@@H]1CC[C@H](C)O1

>  <rationale>  (26) 
info cluster #7 (rank 3); hbond:S87+S125; hydroph_interaction:P107+D109+V124; 

>  <cluster_rank>  (26) 
3

>  <N_interactions>  (26) 
5

>  <N_interactions_lost>  (26) 
1

>  <∆∆G>  (26) 
-9.611909

>  <comRMSD>  (26) 
0.812798

>  <N_rotatable_bonds>  (26) 
6

>  <N_unconstrained_atoms>  (26) 
1

>  <N_constrained_atoms>  (26) 
21

$$$$
Z4421703895
     RDKit          3D

 34 35  0  0  0  0  0  0  0  0999 V2000
   10.9750   14.9830   19.5820 C   0  0  0  0  0  0  0  0  0  0  0  0
   10.0980   15.3860   20.7330 C   0  0  0  0  0  0  0  0  0  0  0  0
    9.8540   16.8490   20.7000 N   0  0  0  0  0  0  0  0  0  0  0  0
   10.5340   15.0010   22.0530 C   0  0  0  0  0  0  0  0  0  0  0  0
   10.8240   15.8100   22.9350 O   0  0  0  0  0  0  0  0  0  0  0  0
   10.5960   13.6460   22.2270 N   0  0  0  0  0  0  0  0  0  0  0  0
   10.9840   13.1500   23.5100 C   0  0  0  0  0  0  0  0  0  0  0  0
   12.4720   12.8280   23.5700 C   0  0  0  0  0  0  0  0  0  0  0  0
   10.1680   11.9410   23.8930 C   0  0  0  0  0  0  0  0  0  0  0  0
   10.5880   10.6910   23.4700 C   0  0  0  0  0  0  0  0  0  0  0  0
    9.9390    9.3830   23.7870 C   0  0  0  0  0  0  0  0  0  0  0  0
    8.7370    9.5890   24.6440 C   0  0  0  0  0  0  0  0  0  0  0  0
    8.2770   10.8530   25.0610 C   0  0  0  0  0  0  0  0  0  0  0  0
    8.9940   11.9850   24.6790 C   0  0  0  0  0  0  0  0  0  0  0  0
    8.3370   13.0750   25.2190 N   0  0  0  0  0  0  0  0  0  0  0  0
    7.2390   12.6750   25.9220 C   0  0  0  0  0  0  0  0  0  0  0  0
    7.1720   11.2910   25.8470 C   0  0  0  0  0  0  0  0  0  0  0  0
   10.7200   15.5520   18.6840 H   0  0  0  0  0  0  0  0  0  0  0  0
   10.8330   13.9210   19.3610 H   0  0  0  0  0  0  0  0  0  0  0  0
   12.0240   15.1800   19.8240 H   0  0  0  0  0  0  0  0  0  0  0  0
    9.1240   14.9170   20.5890 H   0  0  0  0  0  0  0  0  0  0  0  0
   10.3860   17.2420   19.9390 H   0  0  0  0  0  0  0  0  0  0  0  0
   10.2490   17.3070   21.5420 H   0  0  0  0  0  0  0  0  0  0  0  0
   10.8100   13.0560   21.4150 H   0  0  0  0  0  0  0  0  0  0  0  0
   10.7860   13.9600   24.2260 H   0  0  0  0  0  0  0  0  0  0  0  0
   12.8020   12.3930   22.6200 H   0  0  0  0  0  0  0  0  0  0  0  0
   12.7100   12.1110   24.3640 H   0  0  0  0  0  0  0  0  0  0  0  0
   13.0730   13.7230   23.7530 H   0  0  0  0  0  0  0  0  0  0  0  0
   11.4800   10.6350   22.8550 H   0  0  0  0  0  0  0  0  0  0  0  0
   10.2980    8.4140   23.4490 H   0  0  0  0  0  0  0  0  0  0  0  0
    8.2870    8.6710   24.9000 H   0  0  0  0  0  0  0  0  0  0  0  0
    8.6370   14.0350   25.1020 H   0  0  0  0  0  0  0  0  0  0  0  0
    6.6000   13.3970   26.4140 H   0  0  0  0  0  0  0  0  0  0  0  0
    6.4200   10.6660   26.3010 H   0  0  0  0  0  0  0  0  0  0  0  0
  1  2  1  0
  2  3  1  0
  2  4  1  0
  4  5  2  0
  4  6  1  0
  6  7  1  0
  7  8  1  0
  7  9  1  0
  9 10  2  0
 10 11  1  0
 11 12  2  0
 12 13  1  0
 13 14  2  0
 14 15  1  0
 15 16  1  0
 16 17  2  0
 14  9  1  0
 17 13  1  0
  1 18  1  0
  1 19  1  0
  1 20  1  0
  2 21  1  0
  3 22  1  0
  3 23  1  0
  6 24  1  0
  7 25  1  0
  8 26  1  0
  8 27  1  0
  8 28  1  0
 10 29  1  0
 11 30  1  0
 12 31  1  0
 15 32  1  0
 16 33  1  0
 17 34  1  0
A    1
 C1 
A    2
 C2 
A    3
 N1 
A    4
 C3 
A    5
 O1 
A    6
 N2 
A    7
 C4 
A    8
 C5 
A    9
 C6 
A   10
 C7 
A   11
 C8 
A   12
 C9 
A   13
 C10
A   14
 C11
A   15
 N3 
A   16
 C12
A   17
 C13
A   18
 H1 
A   19
 H2 
A   20
 H3 
A   21
 H4 
A   22
 H5 
A   23
 H6 
A   24
 H7 
A   25
 H8 
A   26
 H9 
A   27
 H10
A   28
 H11
A   29
 H12
A   30
 H13
A   31
 H14
A   32
 H15
A   33
 H16
A   34
 H17
M  END
>  <ref_pdb>  (27) 
x0554_0A

>  <ref_mols>  (27) 
x0554_0A

>  <original SMILES>  (27) 
CC(N)C(=O)NC(C)c1cccc2cc[nH]c12

>  <rationale>  (27) 
info cluster #3 (rank 3); hbond:S87+S125; hydroph_interaction:Y90; 

>  <cluster_rank>  (27) 
3

>  <N_interactions>  (27) 
4

>  <N_interactions_lost>  (27) 
1

>  <∆∆G>  (27) 
-9.63746

>  <comRMSD>  (27) 
0.677045

>  <N_rotatable_bonds>  (27) 
6

>  <N_unconstrained_atoms>  (27) 
3

>  <N_constrained_atoms>  (27) 
14

$$$$
Z89289676
     RDKit          3D

 35 36  0  0  0  0  0  0  0  0999 V2000
    9.5800   17.3840   20.2630 C   0  0  0  0  0  0  0  0  0  0  0  0
    9.0880   16.2180   21.1040 C   0  0  0  0  0  0  0  0  0  0  0  0
   10.1530   15.2150   21.5620 C   0  0  0  0  0  0  0  0  0  0  0  0
   11.0230   14.7290   20.3960 C   0  0  0  0  0  0  0  0  0  0  0  0
    9.5270   14.0900   22.2640 N   0  0  0  0  0  0  0  0  0  0  0  0
   10.3070   13.2210   23.0250 C   0  0  0  0  0  0  0  0  0  0  0  0
   11.5000   13.4160   23.2070 O   0  0  0  0  0  0  0  0  0  0  0  0
    9.6310   12.0430   23.5790 C   0  0  0  0  0  0  0  0  0  0  0  0
    9.9620   10.7630   23.1760 C   0  0  0  0  0  0  0  0  0  0  0  0
    9.1710    9.8760   23.8210 N   0  0  0  0  0  0  0  0  0  0  0  0
    9.2310    8.4540   23.6160 C   0  0  0  0  0  0  0  0  0  0  0  0
    8.3200   10.5250   24.6740 C   0  0  0  0  0  0  0  0  0  0  0  0
    7.3470   10.0210   25.5370 C   0  0  0  0  0  0  0  0  0  0  0  0
    6.6090   10.9120   26.2970 C   0  0  0  0  0  0  0  0  0  0  0  0
    6.8340   12.2780   26.2040 C   0  0  0  0  0  0  0  0  0  0  0  0
    7.8130   12.7800   25.3370 C   0  0  0  0  0  0  0  0  0  0  0  0
    8.5790   11.8950   24.5500 C   0  0  0  0  0  0  0  0  0  0  0  0
    8.8630   18.2110   20.2560 H   0  0  0  0  0  0  0  0  0  0  0  0
   10.5030   17.7590   20.6910 H   0  0  0  0  0  0  0  0  0  0  0  0
    9.7870   17.0840   19.2310 H   0  0  0  0  0  0  0  0  0  0  0  0
    8.3350   15.6740   20.5300 H   0  0  0  0  0  0  0  0  0  0  0  0
    8.5690   16.6130   21.9820 H   0  0  0  0  0  0  0  0  0  0  0  0
   10.8060   15.7300   22.2800 H   0  0  0  0  0  0  0  0  0  0  0  0
   10.4170   14.2530   19.6210 H   0  0  0  0  0  0  0  0  0  0  0  0
   11.5540   15.5710   19.9370 H   0  0  0  0  0  0  0  0  0  0  0  0
   11.7870   14.0160   20.7240 H   0  0  0  0  0  0  0  0  0  0  0  0
    8.7020   13.6910   21.8150 H   0  0  0  0  0  0  0  0  0  0  0  0
   10.7060   10.4370   22.4610 H   0  0  0  0  0  0  0  0  0  0  0  0
    8.8680    7.9600   24.5220 H   0  0  0  0  0  0  0  0  0  0  0  0
    8.5970    8.1750   22.7710 H   0  0  0  0  0  0  0  0  0  0  0  0
   10.2660    8.1820   23.4040 H   0  0  0  0  0  0  0  0  0  0  0  0
    7.1680    8.9650   25.6160 H   0  0  0  0  0  0  0  0  0  0  0  0
    5.8460   10.5310   26.9720 H   0  0  0  0  0  0  0  0  0  0  0  0
    6.2470   12.9650   26.8080 H   0  0  0  0  0  0  0  0  0  0  0  0
    7.9660   13.8520   25.2840 H   0  0  0  0  0  0  0  0  0  0  0  0
  1  2  1  0
  2  3  1  0
  3  4  1  0
  3  5  1  0
  5  6  1  0
  6  7  2  0
  6  8  1  0
  8  9  2  0
  9 10  1  0
 10 11  1  0
 10 12  1  0
 12 13  2  0
 13 14  1  0
 14 15  2  0
 15 16  1  0
 16 17  2  0
 17  8  1  0
 17 12  1  0
  1 18  1  0
  1 19  1  0
  1 20  1  0
  2 21  1  0
  2 22  1  0
  3 23  1  0
  4 24  1  0
  4 25  1  0
  4 26  1  0
  5 27  1  0
  9 28  1  0
 11 29  1  0
 11 30  1  0
 11 31  1  0
 13 32  1  0
 14 33  1  0
 15 34  1  0
 16 35  1  0
A    1
 C1 
A    2
 C2 
A    3
 C3 
A    4
 C4 
A    5
 N1 
A    6
 C5 
A    7
 O1 
A    8
 C6 
A    9
 C7 
A   10
 N2 
A   11
 C8 
A   12
 C9 
A   13
 C10
A   14
 C11
A   15
 C12
A   16
 C13
A   17
 C14
A   18
 H1 
A   19
 H2 
A   20
 H3 
A   21
 H4 
A   22
 H5 
A   23
 H6 
A   24
 H7 
A   25
 H8 
A   26
 H9 
A   27
 H10
A   28
 H11
A   29
 H12
A   30
 H13
A   31
 H14
A   32
 H15
A   33
 H16
A   34
 H17
A   35
 H18
M  END
>  <ref_pdb>  (28) 
x0554_0A

>  <ref_mols>  (28) 
x0451_0A,x0566_0A

>  <original SMILES>  (28) 
CCC(C)NC(=O)c1cn(C)c2ccccc12

>  <rationale>  (28) 
info cluster #1 (rank 3); hbond:T126; hydroph_interaction:Y90+V84; 

>  <cluster_rank>  (28) 
3

>  <N_interactions>  (28) 
3

>  <N_interactions_lost>  (28) 
0

>  <∆∆G>  (28) 
-8.335713

>  <comRMSD>  (28) 
0.637303

>  <N_rotatable_bonds>  (28) 
6

>  <N_unconstrained_atoms>  (28) 
1

>  <N_constrained_atoms>  (28) 
17

$$$$
PV_002851127747
     RDKit          3D

 22 22  0  0  0  0  0  0  0  0999 V2000
    9.0400    7.7960   22.9210 C   0  0  0  0  0  0  0  0  0  0  0  0
    8.7620    8.5940   24.1590 C   0  0  0  0  0  0  0  0  0  0  0  0
    9.0820   10.0730   24.1320 C   0  0  0  0  0  0  0  0  0  0  0  0
    8.2680   10.9830   24.8190 C   0  0  0  0  0  0  0  0  0  0  0  0
    7.0110   10.6440   25.6570 C   0  0  0  0  0  0  0  0  0  0  0  0
    8.7290   12.2670   24.6580 C   0  0  0  0  0  0  0  0  0  0  0  0
    9.9720   12.3600   23.8010 C   0  0  0  0  0  0  0  0  0  0  0  0
   10.5830   13.7260   23.5430 C   0  0  0  0  0  0  0  0  0  0  0  0
   10.8690   14.5240   24.4270 O   0  0  0  0  0  0  0  0  0  0  0  0
   10.7710   13.9700   22.2150 O   0  0  0  0  0  0  0  0  0  0  0  0
   12.0250   14.5780   21.8910 C   0  0  0  0  0  0  0  0  0  0  0  0
   10.4250   10.7880   23.2930 S   0  0  0  0  0  0  0  0  0  0  0  0
    9.4620    8.2690   22.0370 H   0  0  0  0  0  0  0  0  0  0  0  0
    8.8240    6.7260   22.8910 H   0  0  0  0  0  0  0  0  0  0  0  0
    8.3480    8.1490   25.0490 H   0  0  0  0  0  0  0  0  0  0  0  0
    6.4540    9.8220   25.1950 H   0  0  0  0  0  0  0  0  0  0  0  0
    7.2950   10.3240   26.6610 H   0  0  0  0  0  0  0  0  0  0  0  0
    6.3610   11.5190   25.7310 H   0  0  0  0  0  0  0  0  0  0  0  0
    8.3290   13.2060   25.0550 H   0  0  0  0  0  0  0  0  0  0  0  0
   11.9290   15.6700   21.8390 H   0  0  0  0  0  0  0  0  0  0  0  0
   12.7900   14.2900   22.6180 H   0  0  0  0  0  0  0  0  0  0  0  0
   12.3270   14.2110   20.9030 H   0  0  0  0  0  0  0  0  0  0  0  0
  1  2  2  0
  2  3  1  0
  3  4  2  0
  4  5  1  0
  4  6  1  0
  6  7  2  0
  7  8  1  0
  8  9  2  0
  8 10  1  0
 10 11  1  0
  7 12  1  0
 12  3  1  0
  1 13  1  0
  1 14  1  0
  2 15  1  0
  5 16  1  0
  5 17  1  0
  5 18  1  0
  6 19  1  0
 11 20  1  0
 11 21  1  0
 11 22  1  0
A    1
 C1 
A    2
 C2 
A    3
 C3 
A    4
 C4 
A    5
 C5 
A    6
 C6 
A    7
 C7 
A    8
 C8 
A    9
 O1 
A   10
 O2 
A   11
 C9 
A   12
 S1 
A   13
 H1 
A   14
 H2 
A   15
 H3 
A   16
 H4 
A   17
 H5 
A   18
 H6 
A   19
 H7 
A   20
 H8 
A   21
 H9 
A   22
 H10
M  END
>  <ref_pdb>  (29) 
x0554_0A

>  <ref_mols>  (29) 
x0451_0A,x0554_0A

>  <original SMILES>  (29) 
C=Cc1sc(C(=O)OC)cc1C

>  <rationale>  (29) 
info cluster #4 (rank 3); hydroph_interaction:D109+V124; saltbridge:H21; 

>  <cluster_rank>  (29) 
3

>  <N_interactions>  (29) 
3

>  <N_interactions_lost>  (29) 
0

>  <∆∆G>  (29) 
-6.709908

>  <comRMSD>  (29) 
0.770561

>  <N_rotatable_bonds>  (29) 
4

>  <N_unconstrained_atoms>  (29) 
1

>  <N_constrained_atoms>  (29) 
13

$$$$
Z3231550335
     RDKit          3D

 30 30  0  0  0  0  0  0  0  0999 V2000
   11.4280   13.7330   23.6600 C   0  0  0  0  0  0  0  0  0  0  0  0
   10.2630   13.1810   22.8770 C   0  0  2  0  0  0  0  0  0  0  0  0
    9.4020   14.2320   22.3560 N   0  0  0  0  0  0  0  0  0  0  0  0
    9.9000   15.1420   21.4260 C   0  0  0  0  0  0  0  0  0  0  0  0
    9.3870   16.2360   21.1940 O   0  0  0  0  0  0  0  0  0  0  0  0
   11.1690   14.7550   20.6640 C   0  0  1  0  0  0  0  0  0  0  0  0
   11.1740   14.7840   19.2730 C   0  0  0  0  0  0  0  0  0  0  0  0
   12.2810   15.5800   21.1710 N   0  0  0  0  0  0  0  0  0  0  0  0
    9.5470   12.0280   23.6620 C   0  0  0  0  0  0  0  0  0  0  0  0
   10.0690   10.7610   23.3870 C   0  0  0  0  0  0  0  0  0  0  0  0
    9.4730    9.7090   24.0650 C   0  0  0  0  0  0  0  0  0  0  0  0
    8.4340    9.8520   24.9590 C   0  0  0  0  0  0  0  0  0  0  0  0
    7.9160   11.1080   25.2200 C   0  0  0  0  0  0  0  0  0  0  0  0
    8.4770   12.2070   24.5660 C   0  0  0  0  0  0  0  0  0  0  0  0
   11.2110   14.7530   23.9900 H   0  0  0  0  0  0  0  0  0  0  0  0
   11.6330   13.1320   24.5520 H   0  0  0  0  0  0  0  0  0  0  0  0
   12.3350   13.7620   23.0470 H   0  0  0  0  0  0  0  0  0  0  0  0
   10.7300   12.7370   22.0180 H   0  0  0  0  0  0  0  0  0  0  0  0
    8.8060   14.5660   23.1150 H   0  0  0  0  0  0  0  0  0  0  0  0
   11.3980   13.7350   20.9580 H   0  0  0  0  0  0  0  0  0  0  0  0
   10.5610   15.5260   18.7600 H   0  0  0  0  0  0  0  0  0  0  0  0
   10.8460   13.8010   18.9230 H   0  0  0  0  0  0  0  0  0  0  0  0
   12.2060   14.8890   18.9090 H   0  0  0  0  0  0  0  0  0  0  0  0
   12.9210   15.7420   20.3900 H   0  0  0  0  0  0  0  0  0  0  0  0
   12.8210   15.0340   21.8410 H   0  0  0  0  0  0  0  0  0  0  0  0
   10.8840   10.6060   22.6950 H   0  0  0  0  0  0  0  0  0  0  0  0
    9.8470    8.6910   23.8890 H   0  0  0  0  0  0  0  0  0  0  0  0
    8.0720    8.9390   25.4230 H   0  0  0  0  0  0  0  0  0  0  0  0
    7.0930   11.2440   25.9190 H   0  0  0  0  0  0  0  0  0  0  0  0
    8.0850   13.2000   24.7600 H   0  0  0  0  0  0  0  0  0  0  0  0
  1  2  1  0
  2  3  1  0
  3  4  1  0
  4  5  2  0
  4  6  1  0
  6  7  1  0
  6  8  1  0
  2  9  1  0
  9 10  2  0
 10 11  1  0
 11 12  2  0
 12 13  1  0
 13 14  2  0
 14  9  1  0
  1 15  1  0
  1 16  1  0
  1 17  1  0
  2 18  1  6
  3 19  1  0
  6 20  1  6
  7 21  1  0
  7 22  1  0
  7 23  1  0
  8 24  1  0
  8 25  1  0
 10 26  1  0
 11 27  1  0
 12 28  1  0
 13 29  1  0
 14 30  1  0
A    1
 C1 
A    2
 C2 
A    3
 N1 
A    4
 C3 
A    5
 O1 
A    6
 C4 
A    7
 C5 
A    8
 N2 
A    9
 C6 
A   10
 C7 
A   11
 C8 
A   12
 C9 
A   13
 C10
A   14
 C11
A   15
 H1 
A   16
 H2 
A   17
 H3 
A   18
 H4 
A   19
 H5 
A   20
 H6 
A   21
 H7 
A   22
 H8 
A   23
 H9 
A   24
 H10
A   25
 H11
A   26
 H12
A   27
 H13
A   28
 H14
A   29
 H15
A   30
 H16
M  END
>  <ref_pdb>  (30) 
x0554_0A

>  <ref_mols>  (30) 
x0566_0A

>  <original SMILES>  (30) 
C[C@H](NC(=O)[C@@H](C)N)c1ccccc1

>  <rationale>  (30) 
info cluster #9 (rank 3); hbond:H21+S87+T126; hydroph_interaction:Y90; 

>  <cluster_rank>  (30) 
3

>  <N_interactions>  (30) 
4

>  <N_interactions_lost>  (30) 
1

>  <∆∆G>  (30) 
-7.332447

>  <comRMSD>  (30) 
0.885594

>  <N_rotatable_bonds>  (30) 
6

>  <N_unconstrained_atoms>  (30) 
2

>  <N_constrained_atoms>  (30) 
13

$$$$
PV_002301311817
     RDKit          3D

 24 25  0  0  0  0  0  0  0  0999 V2000
   11.9110   14.4020   22.4870 C   0  0  0  0  0  0  0  0  0  0  0  0
   11.1350   13.6130   23.5290 C   0  0  0  0  0  0  0  0  0  0  0  0
   11.1530   13.9330   24.7080 O   0  0  0  0  0  0  0  0  0  0  0  0
   10.4680   12.5610   22.9440 N   0  0  0  0  0  0  0  0  0  0  0  0
    9.8080   11.4320   23.5050 C   0  0  0  0  0  0  0  0  0  0  0  0
   10.2470   10.1810   23.0950 C   0  0  0  0  0  0  0  0  0  0  0  0
    9.6650    8.8620   23.5650 C   0  0  0  0  0  0  0  0  0  0  0  0
    8.5390    9.0690   24.5490 C   0  0  0  0  0  0  0  0  0  0  0  0
    8.1550   10.3440   24.9080 C   0  0  0  0  0  0  0  0  0  0  0  0
    7.0820   10.2150   25.8290 N   0  0  0  0  0  0  0  0  0  0  0  0
    6.5560   11.3570   26.3070 C   0  0  0  0  0  0  0  0  0  0  0  0
    5.2640   11.1890   27.4180 Cl  0  0  0  0  0  0  0  0  0  0  0  0
    7.0630   12.5960   25.8990 C   0  0  0  0  0  0  0  0  0  0  0  0
    8.1420   12.7090   24.9740 C   0  0  0  0  0  0  0  0  0  0  0  0
    8.7210   11.5380   24.4470 C   0  0  0  0  0  0  0  0  0  0  0  0
   11.5400   15.4310   22.4070 H   0  0  0  0  0  0  0  0  0  0  0  0
   12.9690   14.4430   22.7570 H   0  0  0  0  0  0  0  0  0  0  0  0
   11.8270   13.9360   21.5000 H   0  0  0  0  0  0  0  0  0  0  0  0
   10.8980   12.3650   22.0300 H   0  0  0  0  0  0  0  0  0  0  0  0
   11.0580   10.0940   22.3850 H   0  0  0  0  0  0  0  0  0  0  0  0
   10.0200    7.8930   23.2320 H   0  0  0  0  0  0  0  0  0  0  0  0
    8.0880    8.1640   24.9300 H   0  0  0  0  0  0  0  0  0  0  0  0
    6.6160   13.5000   26.3020 H   0  0  0  0  0  0  0  0  0  0  0  0
    8.4180   13.7330   24.7600 H   0  0  0  0  0  0  0  0  0  0  0  0
  1  2  1  0
  2  3  2  0
  2  4  1  0
  4  5  1  0
  5  6  2  0
  6  7  1  0
  7  8  2  0
  8  9  1  0
  9 10  2  0
 10 11  1  0
 11 12  1  0
 11 13  2  0
 13 14  1  0
 14 15  2  0
 15  5  1  0
 15  9  1  0
  1 16  1  0
  1 17  1  0
  1 18  1  0
  4 19  1  0
  6 20  1  0
  7 21  1  0
  8 22  1  0
 13 23  1  0
 14 24  1  0
A    1
 C1 
A    2
 C2 
A    3
 O1 
A    4
 N1 
A    5
 C3 
A    6
 C4 
A    7
 C5 
A    8
 C6 
A    9
 C7 
A   10
 N2 
A   11
 C8 
A   12
CL1 
A   13
 C9 
A   14
 C10
A   15
 C11
A   16
 H1 
A   17
 H2 
A   18
 H3 
A   19
 H4 
A   20
 H5 
A   21
 H6 
A   22
 H7 
A   23
 H8 
A   24
 H9 
M  END
>  <ref_pdb>  (31) 
x0554_0A

>  <ref_mols>  (31) 
x0554_0A,x0451_0A

>  <original SMILES>  (31) 
CC(=O)Nc1cccc2nc(Cl)ccc12

>  <rationale>  (31) 
info cluster #8 (rank 4); hbond:S125; hydroph_interaction:Y89+D109+V124; 

>  <cluster_rank>  (31) 
4

>  <N_interactions>  (31) 
4

>  <N_interactions_lost>  (31) 
1

>  <∆∆G>  (31) 
-6.976555

>  <comRMSD>  (31) 
0.746264

>  <N_rotatable_bonds>  (31) 
2

>  <N_unconstrained_atoms>  (31) 
1

>  <N_constrained_atoms>  (31) 
16

$$$$
Z28182054
     RDKit          3D

 24 25  0  0  0  0  0  0  0  0999 V2000
   11.9440   14.4180   22.5920 C   0  0  0  0  0  0  0  0  0  0  0  0
   11.1180   13.5700   23.4910 C   0  0  0  0  0  0  0  0  0  0  0  0
   11.0300   13.8850   24.6700 O   0  0  0  0  0  0  0  0  0  0  0  0
   10.5350   12.5150   22.9330 N   0  0  0  0  0  0  0  0  0  0  0  0
    9.8290   11.4190   23.5160 C   0  0  0  0  0  0  0  0  0  0  0  0
   10.2450   10.0300   23.0860 C   0  0  0  0  0  0  0  0  0  0  0  0
    9.5560    8.8670   23.6340 C   0  0  0  0  0  0  0  0  0  0  0  0
    8.5420    9.0620   24.5320 C   0  0  0  0  0  0  0  0  0  0  0  0
    8.1350   10.3330   24.9410 C   0  0  0  0  0  0  0  0  0  0  0  0
    7.0920   10.3850   25.8440 C   0  0  0  0  0  0  0  0  0  0  0  0
    6.5690   11.5100   26.3480 N   0  0  0  0  0  0  0  0  0  0  0  0
    7.1290   12.6500   25.9160 C   0  0  0  0  0  0  0  0  0  0  0  0
    8.1770   12.7230   25.0130 C   0  0  0  0  0  0  0  0  0  0  0  0
    8.7390   11.5350   24.4700 C   0  0  0  0  0  0  0  0  0  0  0  0
   11.9250   14.0140   21.5740 H   0  0  0  0  0  0  0  0  0  0  0  0
   12.9770   14.4420   22.9440 H   0  0  0  0  0  0  0  0  0  0  0  0
   11.5510   15.4390   22.5740 H   0  0  0  0  0  0  0  0  0  0  0  0
   10.8480   12.2950   21.9820 H   0  0  0  0  0  0  0  0  0  0  0  0
   11.0430    9.8500   22.3740 H   0  0  0  0  0  0  0  0  0  0  0  0
    9.8480    7.8690   23.3300 H   0  0  0  0  0  0  0  0  0  0  0  0
    8.0590    8.1890   24.9280 H   0  0  0  0  0  0  0  0  0  0  0  0
    6.6180    9.4790   26.2110 H   0  0  0  0  0  0  0  0  0  0  0  0
    6.6960   13.5550   26.3320 H   0  0  0  0  0  0  0  0  0  0  0  0
    8.5330   13.7100   24.7500 H   0  0  0  0  0  0  0  0  0  0  0  0
  1  2  1  0
  2  3  2  0
  2  4  1  0
  4  5  1  0
  5  6  2  0
  6  7  1  0
  7  8  2  0
  8  9  1  0
  9 10  2  0
 10 11  1  0
 11 12  2  0
 12 13  1  0
 13 14  2  0
 14  5  1  0
 14  9  1  0
  1 15  1  0
  1 16  1  0
  1 17  1  0
  4 18  1  0
  6 19  1  0
  7 20  1  0
  8 21  1  0
 10 22  1  0
 12 23  1  0
 13 24  1  0
A    1
 C1 
A    2
 C2 
A    3
 O1 
A    4
 N1 
A    5
 C3 
A    6
 C4 
A    7
 C5 
A    8
 C6 
A    9
 C7 
A   10
 C8 
A   11
 N2 
A   12
 C9 
A   13
 C10
A   14
 C11
A   15
 H1 
A   16
 H2 
A   17
 H3 
A   18
 H4 
A   19
 H5 
A   20
 H6 
A   21
 H7 
A   22
 H8 
A   23
 H9 
A   24
 H10
M  END
>  <ref_pdb>  (32) 
x0554_0A

>  <ref_mols>  (32) 
x0554_0A,x0451_0A

>  <original SMILES>  (32) 
CC(=O)Nc1cccc2cnccc12

>  <rationale>  (32) 
info cluster #5 (rank 4); hbond:S125; hydroph_interaction:Y89+D109; 

>  <cluster_rank>  (32) 
4

>  <N_interactions>  (32) 
3

>  <N_interactions_lost>  (32) 
1

>  <∆∆G>  (32) 
-7.743783

>  <comRMSD>  (32) 
0.769185

>  <N_rotatable_bonds>  (32) 
2

>  <N_unconstrained_atoms>  (32) 
0

>  <N_constrained_atoms>  (32) 
16

$$$$
Z55293777
     RDKit          3D

 27 28  0  0  0  0  0  0  0  0999 V2000
   11.9740   15.2270   21.8270 C   0  0  0  0  0  0  0  0  0  0  0  0
   12.0010   13.8700   22.3300 N   0  0  0  0  0  0  0  0  0  0  0  0
   11.2040   13.4930   23.4050 C   0  0  0  0  0  0  0  0  0  0  0  0
   11.2140   14.0160   24.5090 O   0  0  0  0  0  0  0  0  0  0  0  0
   10.4580   12.4480   22.9410 N   0  0  0  0  0  0  0  0  0  0  0  0
    9.7720   11.3530   23.5380 C   0  0  0  0  0  0  0  0  0  0  0  0
   10.2020   10.0800   23.1500 C   0  0  0  0  0  0  0  0  0  0  0  0
    9.6150    8.9410   23.6340 C   0  0  0  0  0  0  0  0  0  0  0  0
    8.5750    9.0400   24.5240 C   0  0  0  0  0  0  0  0  0  0  0  0
    8.0950   10.2660   24.9520 C   0  0  0  0  0  0  0  0  0  0  0  0
    7.0290   10.2590   25.8550 C   0  0  0  0  0  0  0  0  0  0  0  0
    6.4940   11.4320   26.3340 C   0  0  0  0  0  0  0  0  0  0  0  0
    7.0260   12.6390   25.9090 C   0  0  0  0  0  0  0  0  0  0  0  0
    8.0960   12.6670   24.9980 C   0  0  0  0  0  0  0  0  0  0  0  0
    8.6770   11.4740   24.4790 C   0  0  0  0  0  0  0  0  0  0  0  0
   11.4620   15.2260   20.8620 H   0  0  0  0  0  0  0  0  0  0  0  0
   11.4530   15.8840   22.5280 H   0  0  0  0  0  0  0  0  0  0  0  0
   13.0040   15.5760   21.6920 H   0  0  0  0  0  0  0  0  0  0  0  0
   11.9810   13.1510   21.6000 H   0  0  0  0  0  0  0  0  0  0  0  0
   10.7440   12.2370   21.9890 H   0  0  0  0  0  0  0  0  0  0  0  0
   11.0170    9.9520   22.4440 H   0  0  0  0  0  0  0  0  0  0  0  0
    9.9740    7.9710   23.3110 H   0  0  0  0  0  0  0  0  0  0  0  0
    8.1400    8.1220   24.8840 H   0  0  0  0  0  0  0  0  0  0  0  0
    6.6020    9.3210   26.1980 H   0  0  0  0  0  0  0  0  0  0  0  0
    5.6650   11.4100   27.0360 H   0  0  0  0  0  0  0  0  0  0  0  0
    6.6100   13.5710   26.2830 H   0  0  0  0  0  0  0  0  0  0  0  0
    8.4600   13.6490   24.7090 H   0  0  0  0  0  0  0  0  0  0  0  0
  1  2  1  0
  2  3  1  0
  3  4  2  0
  3  5  1  0
  5  6  1  0
  6  7  2  0
  7  8  1  0
  8  9  2  0
  9 10  1  0
 10 11  2  0
 11 12  1  0
 12 13  2  0
 13 14  1  0
 14 15  2  0
 15  6  1  0
 15 10  1  0
  1 16  1  0
  1 17  1  0
  1 18  1  0
  2 19  1  0
  5 20  1  0
  7 21  1  0
  8 22  1  0
  9 23  1  0
 11 24  1  0
 12 25  1  0
 13 26  1  0
 14 27  1  0
A    1
 C1 
A    2
 N1 
A    3
 C2 
A    4
 O1 
A    5
 N2 
A    6
 C3 
A    7
 C4 
A    8
 C5 
A    9
 C6 
A   10
 C7 
A   11
 C8 
A   12
 C9 
A   13
 C10
A   14
 C11
A   15
 C12
A   16
 H1 
A   17
 H2 
A   18
 H3 
A   19
 H4 
A   20
 H5 
A   21
 H6 
A   22
 H7 
A   23
 H8 
A   24
 H9 
A   25
 H10
A   26
 H11
A   27
 H12
M  END
>  <ref_pdb>  (33) 
x0554_0A

>  <ref_mols>  (33) 
x0554_0A,x0451_0A

>  <original SMILES>  (33) 
CNC(=O)Nc1cccc2ccccc12

>  <rationale>  (33) 
info cluster #0 (rank 4); hbond:H21+S125; 

>  <cluster_rank>  (33) 
4

>  <N_interactions>  (33) 
2

>  <N_interactions_lost>  (33) 
1

>  <∆∆G>  (33) 
-8.786285

>  <comRMSD>  (33) 
0.763691

>  <N_rotatable_bonds>  (33) 
2

>  <N_unconstrained_atoms>  (33) 
1

>  <N_constrained_atoms>  (33) 
16

$$$$
Z1802626342
     RDKit          3D

 32 33  0  0  0  0  0  0  0  0999 V2000
   11.1500   14.7500   19.7500 C   0  0  0  0  0  0  0  0  0  0  0  0
   10.1340   15.2020   20.7750 C   0  0  0  0  0  0  0  0  0  0  0  0
    9.7870   16.6250   20.7510 C   0  0  0  0  0  0  0  0  0  0  0  0
   10.5720   14.8270   22.0780 C   0  0  0  0  0  0  0  0  0  0  0  0
   10.8780   15.6410   22.9580 O   0  0  0  0  0  0  0  0  0  0  0  0
   10.6060   13.4560   22.2440 N   0  0  0  0  0  0  0  0  0  0  0  0
   11.0200   12.7940   23.4450 C   0  0  0  0  0  0  0  0  0  0  0  0
    9.9950   11.7270   23.8810 C   0  0  0  0  0  0  0  0  0  0  0  0
   10.2650   10.2890   23.3970 C   0  0  0  0  0  0  0  0  0  0  0  0
    9.3210    9.1750   23.8010 C   0  0  0  0  0  0  0  0  0  0  0  0
    8.2630    9.5870   24.6020 C   0  0  0  0  0  0  0  0  0  0  0  0
    7.9890   10.9500   25.0540 C   0  0  0  0  0  0  0  0  0  0  0  0
    8.8560   11.9890   24.6850 C   0  0  0  0  0  0  0  0  0  0  0  0
    8.3700   13.1600   25.2410 N   0  0  0  0  0  0  0  0  0  0  0  0
    7.2310   12.8850   25.9410 C   0  0  0  0  0  0  0  0  0  0  0  0
    6.9650   11.5250   25.8500 C   0  0  0  0  0  0  0  0  0  0  0  0
   10.8230   13.8280   19.2700 H   0  0  0  0  0  0  0  0  0  0  0  0
   11.3030   15.5300   19.0020 H   0  0  0  0  0  0  0  0  0  0  0  0
   12.1070   14.5560   20.2450 H   0  0  0  0  0  0  0  0  0  0  0  0
    9.2220   14.6340   20.5980 H   0  0  0  0  0  0  0  0  0  0  0  0
   10.5700   17.2390   21.1900 H   0  0  0  0  0  0  0  0  0  0  0  0
    9.6020   16.9340   19.7140 H   0  0  0  0  0  0  0  0  0  0  0  0
    8.8590   16.8090   21.3060 H   0  0  0  0  0  0  0  0  0  0  0  0
   10.8610   12.9790   21.3670 H   0  0  0  0  0  0  0  0  0  0  0  0
   11.9910   12.3010   23.3230 H   0  0  0  0  0  0  0  0  0  0  0  0
   11.1280   13.5570   24.2250 H   0  0  0  0  0  0  0  0  0  0  0  0
   11.1290   10.0610   22.7710 H   0  0  0  0  0  0  0  0  0  0  0  0
    9.4430    8.1270   23.5030 H   0  0  0  0  0  0  0  0  0  0  0  0
    7.5730    8.8310   24.9250 H   0  0  0  0  0  0  0  0  0  0  0  0
    8.7940   14.0830   25.1450 H   0  0  0  0  0  0  0  0  0  0  0  0
    6.6230   13.6080   26.4880 H   0  0  0  0  0  0  0  0  0  0  0  0
    6.1080   11.0500   26.3250 H   0  0  0  0  0  0  0  0  0  0  0  0
  1  2  1  0
  2  3  1  0
  2  4  1  0
  4  5  2  0
  4  6  1  0
  6  7  1  0
  7  8  1  0
  8  9  2  0
  9 10  1  0
 10 11  2  0
 11 12  1  0
 12 13  2  0
 13 14  1  0
 14 15  1  0
 15 16  2  0
 13  8  1  0
 16 12  1  0
  1 17  1  0
  1 18  1  0
  1 19  1  0
  2 20  1  0
  3 21  1  0
  3 22  1  0
  3 23  1  0
  6 24  1  0
  7 25  1  0
  7 26  1  0
  9 27  1  0
 10 28  1  0
 11 29  1  0
 14 30  1  0
 15 31  1  0
 16 32  1  0
A    1
 C1 
A    2
 C2 
A    3
 C3 
A    4
 C4 
A    5
 O1 
A    6
 N1 
A    7
 C5 
A    8
 C6 
A    9
 C7 
A   10
 C8 
A   11
 C9 
A   12
 C10
A   13
 C11
A   14
 N2 
A   15
 C12
A   16
 C13
A   17
 H1 
A   18
 H2 
A   19
 H3 
A   20
 H4 
A   21
 H5 
A   22
 H6 
A   23
 H7 
A   24
 H8 
A   25
 H9 
A   26
 H10
A   27
 H11
A   28
 H12
A   29
 H13
A   30
 H14
A   31
 H15
A   32
 H16
M  END
>  <ref_pdb>  (34) 
x0554_0A

>  <ref_mols>  (34) 
x0554_0A

>  <original SMILES>  (34) 
CC(C)C(=O)NCc1cccc2cc[nH]c12

>  <rationale>  (34) 
info cluster #2 (rank 4); hbond:S87+S125; hydroph_interaction:Y90+V84; 

>  <cluster_rank>  (34) 
4

>  <N_interactions>  (34) 
4

>  <N_interactions_lost>  (34) 
1

>  <∆∆G>  (34) 
-8.960917

>  <comRMSD>  (34) 
0.447441

>  <N_rotatable_bonds>  (34) 
5

>  <N_unconstrained_atoms>  (34) 
2

>  <N_constrained_atoms>  (34) 
14

$$$$
Z118714404
     RDKit          3D

 28 29  0  0  0  0  0  0  0  0999 V2000
   10.6470    8.7620   23.1350 C   0  0  0  0  0  0  0  0  0  0  0  0
    9.3040    8.9780   23.7260 C   0  0  0  0  0  0  0  0  0  0  0  0
    9.2130   10.3680   24.0050 N   0  0  0  0  0  0  0  0  0  0  0  0
   10.0320   11.2810   23.4110 C   0  0  0  0  0  0  0  0  0  0  0  0
    9.7000   12.5320   23.8690 C   0  0  0  0  0  0  0  0  0  0  0  0
   10.3820   13.7540   23.4370 C   0  0  0  0  0  0  0  0  0  0  0  0
   10.3740   14.7820   24.1140 O   0  0  0  0  0  0  0  0  0  0  0  0
   11.0520   13.6990   22.2100 N   0  0  0  0  0  0  0  0  0  0  0  0
   12.0650   14.6520   21.9270 N   0  0  0  0  0  0  0  0  0  0  0  0
    8.6130   12.3330   24.7960 C   0  0  0  0  0  0  0  0  0  0  0  0
    7.8200   13.1760   25.5970 C   0  0  0  0  0  0  0  0  0  0  0  0
    6.8150   12.6410   26.4100 C   0  0  0  0  0  0  0  0  0  0  0  0
    6.5840   11.2780   26.4480 C   0  0  0  0  0  0  0  0  0  0  0  0
    7.3460   10.4250   25.6780 C   0  0  0  0  0  0  0  0  0  0  0  0
    8.3420   10.9670   24.8600 C   0  0  0  0  0  0  0  0  0  0  0  0
   10.8360    7.7030   23.0540 H   0  0  0  0  0  0  0  0  0  0  0  0
   10.7190    9.2130   22.1400 H   0  0  0  0  0  0  0  0  0  0  0  0
   11.4180    9.2100   23.7660 H   0  0  0  0  0  0  0  0  0  0  0  0
    8.5150    8.7050   23.0210 H   0  0  0  0  0  0  0  0  0  0  0  0
    9.1540    8.4120   24.6470 H   0  0  0  0  0  0  0  0  0  0  0  0
   10.7950   10.9790   22.7020 H   0  0  0  0  0  0  0  0  0  0  0  0
   11.0480   12.8290   21.6570 H   0  0  0  0  0  0  0  0  0  0  0  0
   12.9240   14.3170   22.3890 H   0  0  0  0  0  0  0  0  0  0  0  0
   12.2940   14.5520   20.9330 H   0  0  0  0  0  0  0  0  0  0  0  0
    7.9740   14.2530   25.5980 H   0  0  0  0  0  0  0  0  0  0  0  0
    6.2100   13.3050   27.0200 H   0  0  0  0  0  0  0  0  0  0  0  0
    5.8020   10.8740   27.0860 H   0  0  0  0  0  0  0  0  0  0  0  0
    7.1580    9.3730   25.7250 H   0  0  0  0  0  0  0  0  0  0  0  0
  1  2  1  0
  2  3  1  0
  3  4  1  0
  4  5  2  0
  5  6  1  0
  6  7  2  0
  6  8  1  0
  8  9  1  0
  5 10  1  0
 10 11  2  0
 11 12  1  0
 12 13  2  0
 13 14  1  0
 14 15  2  0
 15  3  1  0
 15 10  1  0
  1 16  1  0
  1 17  1  0
  1 18  1  0
  2 19  1  0
  2 20  1  0
  4 21  1  0
  8 22  1  0
  9 23  1  0
  9 24  1  0
 11 25  1  0
 12 26  1  0
 13 27  1  0
 14 28  1  0
A    1
 C1 
A    2
 C2 
A    3
 N1 
A    4
 C3 
A    5
 C4 
A    6
 C5 
A    7
 O1 
A    8
 N2 
A    9
 N3 
A   10
 C6 
A   11
 C7 
A   12
 C8 
A   13
 C9 
A   14
 C10
A   15
 C11
A   16
 H1 
A   17
 H2 
A   18
 H3 
A   19
 H4 
A   20
 H5 
A   21
 H6 
A   22
 H7 
A   23
 H8 
A   24
 H9 
A   25
 H10
A   26
 H11
A   27
 H12
A   28
 H13
M  END
>  <ref_pdb>  (35) 
x0554_0A

>  <ref_mols>  (35) 
x0451_0A,x0451_0A,x0554_0A

>  <original SMILES>  (35) 
CCn1cc(C(=O)NN)c2ccccc21

>  <rationale>  (35) 
info cluster #7 (rank 4); hbond:S87+S125; hydroph_interaction:A110+D109+V124; 

>  <cluster_rank>  (35) 
4

>  <N_interactions>  (35) 
5

>  <N_interactions_lost>  (35) 
2

>  <∆∆G>  (35) 
-6.943407

>  <comRMSD>  (35) 
0.710132

>  <N_rotatable_bonds>  (35) 
4

>  <N_unconstrained_atoms>  (35) 
1

>  <N_constrained_atoms>  (35) 
15

$$$$
Z3953577274
     RDKit          3D

 21 21  0  0  0  0  0  0  0  0999 V2000
    9.9060    9.0370   23.9620 C   0  0  0  0  0  0  0  0  0  0  0  0
    9.1550   10.2680   24.3110 C   0  0  0  0  0  0  0  0  0  0  0  0
    7.9600   10.1500   25.2240 C   0  0  0  0  0  0  0  0  0  0  0  0
    7.1970   11.2470   25.5780 C   0  0  0  0  0  0  0  0  0  0  0  0
    6.0320   11.1200   26.4620 C   0  0  0  0  0  0  0  0  0  0  0  0
    5.6930    9.8110   26.6700 N   0  0  0  0  0  0  0  0  0  0  0  0
    5.4260   12.0690   26.9480 O   0  0  0  0  0  0  0  0  0  0  0  0
    7.5940   12.4830   25.0480 C   0  0  0  0  0  0  0  0  0  0  0  0
    6.9110   13.6000   25.3310 N   0  0  0  0  0  0  0  0  0  0  0  0
    8.6950   12.6480   24.2140 C   0  0  0  0  0  0  0  0  0  0  0  0
    9.4670   11.5370   23.8570 C   0  0  0  0  0  0  0  0  0  0  0  0
   10.5270   11.7140   23.0570 F   0  0  0  0  0  0  0  0  0  0  0  0
   10.8320    8.9670   24.5440 H   0  0  0  0  0  0  0  0  0  0  0  0
   10.1820    9.0550   22.9040 H   0  0  0  0  0  0  0  0  0  0  0  0
    9.2930    8.1570   24.1530 H   0  0  0  0  0  0  0  0  0  0  0  0
    7.6790    9.1830   25.6250 H   0  0  0  0  0  0  0  0  0  0  0  0
    4.9250    9.5630   27.2820 H   0  0  0  0  0  0  0  0  0  0  0  0
    5.9090    9.1590   25.9120 H   0  0  0  0  0  0  0  0  0  0  0  0
    5.9180   13.4490   25.4420 H   0  0  0  0  0  0  0  0  0  0  0  0
    7.3090   14.0840   26.1410 H   0  0  0  0  0  0  0  0  0  0  0  0
    8.9580   13.6320   23.8370 H   0  0  0  0  0  0  0  0  0  0  0  0
  1  2  1  0
  2  3  2  0
  3  4  1  0
  4  5  1  0
  5  6  1  0
  5  7  2  0
  4  8  2  0
  8  9  1  0
  8 10  1  0
 10 11  2  0
 11 12  1  0
 11  2  1  0
  1 13  1  0
  1 14  1  0
  1 15  1  0
  3 16  1  0
  6 17  1  0
  6 18  1  0
  9 19  1  0
  9 20  1  0
 10 21  1  0
A    1
 C1 
A    2
 C2 
A    3
 C3 
A    4
 C4 
A    5
 C5 
A    6
 N1 
A    7
 O1 
A    8
 C6 
A    9
 N2 
A   10
 C7 
A   11
 C8 
A   12
 F1 
A   13
 H1 
A   14
 H2 
A   15
 H3 
A   16
 H4 
A   17
 H5 
A   18
 H6 
A   19
 H7 
A   20
 H8 
A   21
 H9 
M  END
>  <ref_pdb>  (36) 
x0554_0A

>  <ref_mols>  (36) 
x0416_0A,x0556_0A

>  <original SMILES>  (36) 
Cc1cc(C(N)=O)c(N)cc1F

>  <rationale>  (36) 
info cluster #6 (rank 4); halogenbond:S125; hbond:S105; hydroph_interaction:D109; 

>  <cluster_rank>  (36) 
4

>  <N_interactions>  (36) 
3

>  <N_interactions_lost>  (36) 
1

>  <∆∆G>  (36) 
-5.865591

>  <comRMSD>  (36) 
0.948427

>  <N_rotatable_bonds>  (36) 
3

>  <N_unconstrained_atoms>  (36) 
2

>  <N_constrained_atoms>  (36) 
12

$$$$
Z1727255376
     RDKit          3D

 24 25  0  0  0  0  0  0  0  0999 V2000
    9.7120   16.2980   21.2190 N   0  0  0  0  0  0  0  0  0  0  0  0
    9.9550   14.9640   21.2820 C   0  0  0  0  0  0  0  0  0  0  0  0
   10.5700   14.3640   20.4140 O   0  0  0  0  0  0  0  0  0  0  0  0
    9.3890   14.2540   22.5250 C   0  0  0  0  0  0  0  0  0  0  0  0
    8.4400   14.7860   23.0860 O   0  0  0  0  0  0  0  0  0  0  0  0
   10.0600   13.0760   22.8440 N   0  0  0  0  0  0  0  0  0  0  0  0
    9.5440   11.9470   23.5420 C   0  0  0  0  0  0  0  0  0  0  0  0
   10.1170   10.5420   23.2360 C   0  0  0  0  0  0  0  0  0  0  0  0
    9.4660    9.4690   24.0410 C   0  0  0  0  0  0  0  0  0  0  0  0
    8.4630    9.7090   24.9600 C   0  0  0  0  0  0  0  0  0  0  0  0
    7.9700   10.9760   25.2120 C   0  0  0  0  0  0  0  0  0  0  0  0
    8.5110   12.0640   24.5090 C   0  0  0  0  0  0  0  0  0  0  0  0
    7.8260   13.1710   24.9750 N   0  0  0  0  0  0  0  0  0  0  0  0
    6.8970   12.8200   25.9210 C   0  0  0  0  0  0  0  0  0  0  0  0
    6.9630   11.4600   26.0880 C   0  0  0  0  0  0  0  0  0  0  0  0
    8.8250   16.5810   21.6190 H   0  0  0  0  0  0  0  0  0  0  0  0
    9.8020   16.6550   20.2750 H   0  0  0  0  0  0  0  0  0  0  0  0
   10.6900   12.8020   22.0730 H   0  0  0  0  0  0  0  0  0  0  0  0
   10.9020   10.3220   22.5200 H   0  0  0  0  0  0  0  0  0  0  0  0
    9.7990    8.4450   23.8950 H   0  0  0  0  0  0  0  0  0  0  0  0
    8.0500    8.8770   25.5040 H   0  0  0  0  0  0  0  0  0  0  0  0
    7.9880   14.1160   24.6600 H   0  0  0  0  0  0  0  0  0  0  0  0
    6.2710   13.5660   26.3890 H   0  0  0  0  0  0  0  0  0  0  0  0
    6.3580   10.8710   26.7630 H   0  0  0  0  0  0  0  0  0  0  0  0
  1  2  1  0
  2  3  2  0
  2  4  1  0
  4  5  2  0
  4  6  1  0
  6  7  1  0
  7  8  2  0
  8  9  1  0
  9 10  2  0
 10 11  1  0
 11 12  2  0
 12 13  1  0
 13 14  1  0
 14 15  2  0
 12  7  1  0
 15 11  1  0
  1 16  1  0
  1 17  1  0
  6 18  1  0
  8 19  1  0
  9 20  1  0
 10 21  1  0
 13 22  1  0
 14 23  1  0
 15 24  1  0
A    1
 N1 
A    2
 C1 
A    3
 O1 
A    4
 C2 
A    5
 O2 
A    6
 N2 
A    7
 C3 
A    8
 C4 
A    9
 C5 
A   10
 C6 
A   11
 C7 
A   12
 C8 
A   13
 N3 
A   14
 C9 
A   15
 C10
A   16
 H1 
A   17
 H2 
A   18
 H3 
A   19
 H4 
A   20
 H5 
A   21
 H6 
A   22
 H7 
A   23
 H8 
A   24
 H9 
M  END
>  <ref_pdb>  (37) 
x0554_0A

>  <ref_mols>  (37) 
x0566_0A

>  <original SMILES>  (37) 
NC(=O)C(=O)Nc1cccc2cc[nH]c12

>  <rationale>  (37) 
info cluster #3 (rank 4); hbond:S87+S125; 

>  <cluster_rank>  (37) 
4

>  <N_interactions>  (37) 
3

>  <N_interactions_lost>  (37) 
1

>  <∆∆G>  (37) 
-3.659075

>  <comRMSD>  (37) 
0.503653

>  <N_rotatable_bonds>  (37) 
1

>  <N_unconstrained_atoms>  (37) 
1

>  <N_constrained_atoms>  (37) 
15

$$$$
PV_003377434323
     RDKit          3D

 21 21  0  0  0  0  0  0  0  0999 V2000
   10.2470   14.5800   21.3890 N   0  0  0  0  0  0  0  0  0  0  0  0
   10.4300   14.2840   22.7220 C   0  0  0  0  0  0  0  0  0  0  0  0
   11.4710   14.5690   23.2860 O   0  0  0  0  0  0  0  0  0  0  0  0
    9.2510   13.6670   23.4810 C   0  0  1  0  0  0  0  0  0  0  0  0
    8.0700   14.0000   22.7410 N   0  0  0  0  0  0  0  0  0  0  0  0
    9.2240   12.1560   23.7880 C   0  0  0  0  0  0  0  0  0  0  0  0
   10.0580   11.1050   23.3560 C   0  0  0  0  0  0  0  0  0  0  0  0
    9.8710    9.7630   23.7410 C   0  0  0  0  0  0  0  0  0  0  0  0
    8.8210    9.4460   24.5940 C   0  0  0  0  0  0  0  0  0  0  0  0
    7.9540   10.4500   25.0650 C   0  0  0  0  0  0  0  0  0  0  0  0
    8.1950   11.7500   24.6400 C   0  0  0  0  0  0  0  0  0  0  0  0
    9.6930   15.4100   21.2190 H   0  0  0  0  0  0  0  0  0  0  0  0
   10.9680   14.3800   20.7050 H   0  0  0  0  0  0  0  0  0  0  0  0
    9.1810   14.1810   24.4420 H   0  0  0  0  0  0  0  0  0  0  0  0
    7.6000   14.7680   23.2140 H   0  0  0  0  0  0  0  0  0  0  0  0
    7.3950   13.2490   22.5990 H   0  0  0  0  0  0  0  0  0  0  0  0
   10.8920   11.3310   22.6870 H   0  0  0  0  0  0  0  0  0  0  0  0
   10.5400    8.9850   23.3780 H   0  0  0  0  0  0  0  0  0  0  0  0
    8.6780    8.4120   24.8940 H   0  0  0  0  0  0  0  0  0  0  0  0
    7.1330   10.2100   25.7290 H   0  0  0  0  0  0  0  0  0  0  0  0
    7.4750   12.4650   25.0500 H   0  0  0  0  0  0  0  0  0  0  0  0
  1  2  1  0
  2  3  2  0
  2  4  1  0
  4  5  1  0
  4  6  1  0
  6  7  2  0
  7  8  1  0
  8  9  2  0
  9 10  1  0
 10 11  2  0
 11  6  1  0
  1 12  1  0
  1 13  1  0
  4 14  1  1
  5 15  1  0
  5 16  1  0
  7 17  1  0
  8 18  1  0
  9 19  1  0
 10 20  1  0
 11 21  1  0
A    1
 N1 
A    2
 C1 
A    3
 O1 
A    4
 C2 
A    5
 N2 
A    6
 C3 
A    7
 C4 
A    8
 C5 
A    9
 C6 
A   10
 C7 
A   11
 C8 
A   12
 H1 
A   13
 H2 
A   14
 H3 
A   15
 H4 
A   16
 H5 
A   17
 H6 
A   18
 H7 
A   19
 H8 
A   20
 H9 
A   21
 H10
M  END
>  <ref_pdb>  (38) 
x0554_0A

>  <ref_mols>  (38) 
x0566_0A

>  <original SMILES>  (38) 
NC(=O)[C@@H](N)c1ccccc1

>  <rationale>  (38) 
info cluster #1 (rank 4); hbond:G127+T126; 

>  <cluster_rank>  (38) 
4

>  <N_interactions>  (38) 
3

>  <N_interactions_lost>  (38) 
0

>  <∆∆G>  (38) 
-4.48345

>  <comRMSD>  (38) 
0.865475

>  <N_rotatable_bonds>  (38) 
3

>  <N_unconstrained_atoms>  (38) 
0

>  <N_constrained_atoms>  (38) 
13

$$$$
Z1291216771
     RDKit          3D

 28 29  0  0  0  0  0  0  0  0999 V2000
    9.1810   16.0920   21.2250 C   0  0  0  0  0  0  0  0  0  0  0  0
   10.1190   14.9830   21.6760 C   0  0  0  0  0  0  0  0  0  0  0  0
   11.0220   14.5230   20.4980 C   0  0  0  0  0  0  0  0  0  0  0  0
    9.4470   14.0280   22.1340 O   0  0  0  0  0  0  0  0  0  0  0  0
   10.2270   13.2040   22.9170 C   0  0  0  0  0  0  0  0  0  0  0  0
   11.4310   13.3430   23.0200 O   0  0  0  0  0  0  0  0  0  0  0  0
    9.5120   12.0780   23.6670 C   0  0  0  0  0  0  0  0  0  0  0  0
   10.0740   10.8320   23.3240 C   0  0  0  0  0  0  0  0  0  0  0  0
    9.5880    9.6750   23.9010 C   0  0  0  0  0  0  0  0  0  0  0  0
    8.5560    9.7150   24.8160 C   0  0  0  0  0  0  0  0  0  0  0  0
    7.9780   10.9350   25.1670 C   0  0  0  0  0  0  0  0  0  0  0  0
    8.4630   12.1140   24.5880 C   0  0  0  0  0  0  0  0  0  0  0  0
    7.7190   13.1480   25.1170 N   0  0  0  0  0  0  0  0  0  0  0  0
    6.7890   12.6610   26.0010 C   0  0  0  0  0  0  0  0  0  0  0  0
    6.9270   11.2940   26.0510 C   0  0  0  0  0  0  0  0  0  0  0  0
    8.4600   16.3290   22.0160 H   0  0  0  0  0  0  0  0  0  0  0  0
    8.6160   15.7820   20.3480 H   0  0  0  0  0  0  0  0  0  0  0  0
    9.7350   17.0060   20.9820 H   0  0  0  0  0  0  0  0  0  0  0  0
   10.7490   15.3910   22.4770 H   0  0  0  0  0  0  0  0  0  0  0  0
   11.8690   13.9550   20.9130 H   0  0  0  0  0  0  0  0  0  0  0  0
   11.4000   15.4170   19.9820 H   0  0  0  0  0  0  0  0  0  0  0  0
   10.5100   13.8920   19.7670 H   0  0  0  0  0  0  0  0  0  0  0  0
   10.8940   10.7760   22.6070 H   0  0  0  0  0  0  0  0  0  0  0  0
   10.0850    8.7520   23.5770 H   0  0  0  0  0  0  0  0  0  0  0  0
    8.2010    8.8030   25.2600 H   0  0  0  0  0  0  0  0  0  0  0  0
    7.8540   14.1190   24.8730 H   0  0  0  0  0  0  0  0  0  0  0  0
    6.1130   13.3310   26.5150 H   0  0  0  0  0  0  0  0  0  0  0  0
    6.3350   10.6190   26.6600 H   0  0  0  0  0  0  0  0  0  0  0  0
  1  2  1  0
  2  3  1  0
  2  4  1  0
  4  5  1  0
  5  6  2  0
  5  7  1  0
  7  8  2  0
  8  9  1  0
  9 10  2  0
 10 11  1  0
 11 12  2  0
 12 13  1  0
 13 14  1  0
 14 15  2  0
 12  7  1  0
 15 11  1  0
  1 16  1  0
  1 17  1  0
  1 18  1  0
  2 19  1  0
  3 20  1  0
  3 21  1  0
  3 22  1  0
  8 23  1  0
  9 24  1  0
 10 25  1  0
 13 26  1  0
 14 27  1  0
 15 28  1  0
A    1
 C1 
A    2
 C2 
A    3
 C3 
A    4
 O1 
A    5
 C4 
A    6
 O2 
A    7
 C5 
A    8
 C6 
A    9
 C7 
A   10
 C8 
A   11
 C9 
A   12
 C10
A   13
 N1 
A   14
 C11
A   15
 C12
A   16
 H1 
A   17
 H2 
A   18
 H3 
A   19
 H4 
A   20
 H5 
A   21
 H6 
A   22
 H7 
A   23
 H8 
A   24
 H9 
A   25
 H10
A   26
 H11
A   27
 H12
A   28
 H13
M  END
>  <ref_pdb>  (39) 
x0554_0A

>  <ref_mols>  (39) 
x0566_0A

>  <original SMILES>  (39) 
CC(C)OC(=O)c1cccc2cc[nH]c12

>  <rationale>  (39) 
info cluster #4 (rank 4); hydroph_interaction:V84; saltbridge:H21; 

>  <cluster_rank>  (39) 
4

>  <N_interactions>  (39) 
2

>  <N_interactions_lost>  (39) 
0

>  <∆∆G>  (39) 
-6.906004

>  <comRMSD>  (39) 
0.575055

>  <N_rotatable_bonds>  (39) 
4

>  <N_unconstrained_atoms>  (39) 
0

>  <N_constrained_atoms>  (39) 
16

$$$$
Z2351821240
     RDKit          3D

 52 52  0  0  0  0  0  0  0  0999 V2000
    7.2730   13.2320   24.6130 C   0  0  0  0  0  0  0  0  0  0  0  0
    7.7890   11.8010   24.6120 C   0  0  0  0  0  0  0  0  0  0  0  0
    9.0130   11.4900   23.8030 C   0  0  0  0  0  0  0  0  0  0  0  0
    9.1720   10.1140   24.0640 C   0  0  0  0  0  0  0  0  0  0  0  0
   10.2770    9.2640   23.5370 C   0  0  0  0  0  0  0  0  0  0  0  0
   11.4090   10.0940   23.9280 N   0  0  0  0  0  0  0  0  0  0  0  0
   11.0690   11.4560   23.4840 C   0  0  0  0  0  0  0  0  0  0  0  0
   12.2040   12.4490   23.1590 C   0  0  0  0  0  0  0  0  0  0  0  0
   11.6940   13.5130   22.2670 N   0  0  0  0  0  0  0  0  0  0  0  0
   10.6640   14.3990   22.4960 C   0  0  0  0  0  0  0  0  0  0  0  0
   10.3870   14.9140   23.5700 O   0  0  0  0  0  0  0  0  0  0  0  0
   10.0290   14.6250   21.3010 O   0  0  0  0  0  0  0  0  0  0  0  0
   10.8120   15.3130   20.2880 C   0  0  0  0  0  0  0  0  0  0  0  0
   12.1220   15.4700   20.7520 C   0  0  0  0  0  0  0  0  0  0  0  0
   10.8080   14.6690   18.9010 C   0  0  0  0  0  0  0  0  0  0  0  0
   10.1220   16.6830   20.1690 C   0  0  0  0  0  0  0  0  0  0  0  0
   12.9510   12.9200   24.4280 C   0  0  0  0  0  0  0  0  0  0  0  0
   12.3110   12.3210   25.6490 C   0  0  0  0  0  0  0  0  0  0  0  0
   14.4150   12.4880   24.5520 C   0  0  0  0  0  0  0  0  0  0  0  0
    8.2180    9.6120   24.8800 N   0  0  0  0  0  0  0  0  0  0  0  0
    7.4000   10.6420   25.2010 N   0  0  0  0  0  0  0  0  0  0  0  0
    6.2770   10.4320   26.0780 C   0  0  0  0  0  0  0  0  0  0  0  0
    7.0740   13.5700   23.5890 H   0  0  0  0  0  0  0  0  0  0  0  0
    8.0000   13.9180   25.0610 H   0  0  0  0  0  0  0  0  0  0  0  0
    6.3410   13.3200   25.1870 H   0  0  0  0  0  0  0  0  0  0  0  0
    9.6100   12.1590   23.1940 H   0  0  0  0  0  0  0  0  0  0  0  0
   10.2620    8.2940   24.0170 H   0  0  0  0  0  0  0  0  0  0  0  0
   10.2120    9.1430   22.4490 H   0  0  0  0  0  0  0  0  0  0  0  0
   12.1920    9.7450   23.3930 H   0  0  0  0  0  0  0  0  0  0  0  0
   10.5000   11.2990   22.5720 H   0  0  0  0  0  0  0  0  0  0  0  0
   10.3780   11.9070   24.2050 H   0  0  0  0  0  0  0  0  0  0  0  0
   12.9470   11.9390   22.5510 H   0  0  0  0  0  0  0  0  0  0  0  0
   11.8980   13.4000   21.2800 H   0  0  0  0  0  0  0  0  0  0  0  0
   12.4520   14.6050   21.3300 H   0  0  0  0  0  0  0  0  0  0  0  0
   12.2320   16.3440   21.3950 H   0  0  0  0  0  0  0  0  0  0  0  0
   12.8110   15.5910   19.9160 H   0  0  0  0  0  0  0  0  0  0  0  0
    9.9240   14.9430   18.3190 H   0  0  0  0  0  0  0  0  0  0  0  0
   11.6720   14.9970   18.3270 H   0  0  0  0  0  0  0  0  0  0  0  0
   10.8380   13.5830   18.9730 H   0  0  0  0  0  0  0  0  0  0  0  0
    9.0480   16.6140   20.3640 H   0  0  0  0  0  0  0  0  0  0  0  0
   10.2640   17.1090   19.1700 H   0  0  0  0  0  0  0  0  0  0  0  0
   10.5480   17.4000   20.8720 H   0  0  0  0  0  0  0  0  0  0  0  0
   12.8850   14.0110   24.4960 H   0  0  0  0  0  0  0  0  0  0  0  0
   12.8280   12.6090   26.5710 H   0  0  0  0  0  0  0  0  0  0  0  0
   11.2670   12.6510   25.7420 H   0  0  0  0  0  0  0  0  0  0  0  0
   12.3070   11.2290   25.5740 H   0  0  0  0  0  0  0  0  0  0  0  0
   15.0800   13.3510   24.5500 H   0  0  0  0  0  0  0  0  0  0  0  0
   14.7000   11.8350   23.7270 H   0  0  0  0  0  0  0  0  0  0  0  0
   14.5930   11.9300   25.4820 H   0  0  0  0  0  0  0  0  0  0  0  0
    6.6210    9.8970   26.9570 H   0  0  0  0  0  0  0  0  0  0  0  0
    5.8590   11.3930   26.3720 H   0  0  0  0  0  0  0  0  0  0  0  0
    5.5190    9.8540   25.5580 H   0  0  0  0  0  0  0  0  0  0  0  0
  1  2  1  0
  2  3  2  0
  3  4  1  0
  4  5  1  0
  5  6  1  0
  6  7  1  0
  7  8  1  0
  8  9  1  0
  9 10  1  0
 10 11  2  0
 10 12  1  0
 12 13  1  0
 13 14  1  0
 13 15  1  0
 13 16  1  0
  8 17  1  0
 17 18  1  0
 17 19  1  0
  4 20  2  0
 20 21  1  0
 21 22  1  0
 21  2  1  0
  1 23  1  0
  1 24  1  0
  1 25  1  0
  3 26  1  0
  5 27  1  0
  5 28  1  0
  6 29  1  0
  7 30  1  0
  7 31  1  0
  8 32  1  0
  9 33  1  0
 14 34  1  0
 14 35  1  0
 14 36  1  0
 15 37  1  0
 15 38  1  0
 15 39  1  0
 16 40  1  0
 16 41  1  0
 16 42  1  0
 17 43  1  0
 18 44  1  0
 18 45  1  0
 18 46  1  0
 19 47  1  0
 19 48  1  0
 19 49  1  0
 22 50  1  0
 22 51  1  0
 22 52  1  0
A    1
 C1 
A    2
 C2 
A    3
 C3 
A    4
 C4 
A    5
 C5 
A    6
 N1 
A    7
 C6 
A    8
 C7 
A    9
 N2 
A   10
 C8 
A   11
 O1 
A   12
 O2 
A   13
 C9 
A   14
 C10
A   15
 C11
A   16
 C12
A   17
 C13
A   18
 C14
A   19
 C15
A   20
 N3 
A   21
 N4 
A   22
 C16
A   23
 H1 
A   24
 H2 
A   25
 H3 
A   26
 H4 
A   27
 H5 
A   28
 H6 
A   29
 H7 
A   30
 H8 
A   31
 H9 
A   32
 H10
A   33
 H11
A   34
 H12
A   35
 H13
A   36
 H14
A   37
 H15
A   38
 H16
A   39
 H17
A   40
 H18
A   41
 H19
A   42
 H20
A   43
 H21
A   44
 H22
A   45
 H23
A   46
 H24
A   47
 H25
A   48
 H26
A   49
 H27
A   50
 H28
A   51
 H29
A   52
 H30
M  END
>  <ref_pdb>  (40) 
x0554_0A

>  <ref_mols>  (40) 
x0310_0A

>  <original SMILES>  (40) 
Cc1cc(CNCC(NC(=O)OC(C)(C)C)C(C)C)nn1C

>  <rationale>  (40) 
info cluster #9 (rank 4); hbond:G108+A110+H21+S87+D109+E106; hydroph_interaction:Y89+A110; 

>  <cluster_rank>  (40) 
4

>  <N_interactions>  (40) 
8

>  <N_interactions_lost>  (40) 
2

>  <∆∆G>  (40) 
-8.931121

>  <comRMSD>  (40) 
0.728744

>  <N_rotatable_bonds>  (40) 
10

>  <N_unconstrained_atoms>  (40) 
4

>  <N_constrained_atoms>  (40) 
20

$$$$
Z1564906283
     RDKit          3D

 27 28  0  0  0  0  0  0  0  0999 V2000
   11.9690   14.4160   22.5250 C   0  0  0  0  0  0  0  0  0  0  0  0
   11.0790   13.8100   23.6030 C   0  0  0  0  0  0  0  0  0  0  0  0
   11.2760   14.0110   24.7910 O   0  0  0  0  0  0  0  0  0  0  0  0
   10.0880   13.0460   23.0460 N   0  0  0  0  0  0  0  0  0  0  0  0
    9.4920   11.9070   23.6490 C   0  0  0  0  0  0  0  0  0  0  0  0
   10.0260   10.7120   23.2500 C   0  0  0  0  0  0  0  0  0  0  0  0
    9.4990    9.4640   23.7670 C   0  0  0  0  0  0  0  0  0  0  0  0
   10.2540    8.3860   23.1680 C   0  0  0  0  0  0  0  0  0  0  0  0
    8.4840    9.4000   24.6480 C   0  0  0  0  0  0  0  0  0  0  0  0
    7.9250   10.5950   25.0790 C   0  0  0  0  0  0  0  0  0  0  0  0
    6.8160   10.5330   26.0440 C   0  0  0  0  0  0  0  0  0  0  0  0
    6.2440   11.6270   26.4940 C   0  0  0  0  0  0  0  0  0  0  0  0
    6.7340   12.8560   26.0140 C   0  0  0  0  0  0  0  0  0  0  0  0
    7.8170   13.0230   25.0660 N   0  0  0  0  0  0  0  0  0  0  0  0
    8.3970   11.8790   24.6090 C   0  0  0  0  0  0  0  0  0  0  0  0
   11.6960   15.4600   22.3500 H   0  0  0  0  0  0  0  0  0  0  0  0
   13.0150   14.3870   22.8320 H   0  0  0  0  0  0  0  0  0  0  0  0
   11.8780   13.8820   21.5740 H   0  0  0  0  0  0  0  0  0  0  0  0
   10.3830   12.7960   22.0910 H   0  0  0  0  0  0  0  0  0  0  0  0
   10.8430   10.6530   22.5420 H   0  0  0  0  0  0  0  0  0  0  0  0
   11.0610    8.1390   23.8320 H   0  0  0  0  0  0  0  0  0  0  0  0
   10.6810    8.6580   22.2300 H   0  0  0  0  0  0  0  0  0  0  0  0
    9.6080    7.5160   23.0130 H   0  0  0  0  0  0  0  0  0  0  0  0
    8.1220    8.4380   25.0110 H   0  0  0  0  0  0  0  0  0  0  0  0
    6.4950    9.5430   26.3640 H   0  0  0  0  0  0  0  0  0  0  0  0
    5.4290   11.5830   27.2030 H   0  0  0  0  0  0  0  0  0  0  0  0
    6.2210   13.7360   26.4200 H   0  0  0  0  0  0  0  0  0  0  0  0
  1  2  1  0
  2  3  2  0
  2  4  1  0
  4  5  1  0
  5  6  2  0
  6  7  1  0
  7  8  1  0
  7  9  2  0
  9 10  1  0
 10 11  2  0
 11 12  1  0
 12 13  2  0
 13 14  1  0
 14 15  2  0
 15  5  1  0
 15 10  1  0
  1 16  1  0
  1 17  1  0
  1 18  1  0
  4 19  1  0
  6 20  1  0
  8 21  1  0
  8 22  1  0
  8 23  1  0
  9 24  1  0
 11 25  1  0
 12 26  1  0
 13 27  1  0
A    1
 C1 
A    2
 C2 
A    3
 O1 
A    4
 N1 
A    5
 C3 
A    6
 C4 
A    7
 C5 
A    8
 C6 
A    9
 C7 
A   10
 C8 
A   11
 C9 
A   12
 C10
A   13
 C11
A   14
 N2 
A   15
 C12
A   16
 H1 
A   17
 H2 
A   18
 H3 
A   19
 H4 
A   20
 H5 
A   21
 H6 
A   22
 H7 
A   23
 H8 
A   24
 H9 
A   25
 H10
A   26
 H11
A   27
 H12
M  END
>  <ref_pdb>  (41) 
x0554_0A

>  <ref_mols>  (41) 
x0554_0A,x0451_0A

>  <original SMILES>  (41) 
CC(=O)Nc1cc(C)cc2cccnc12

>  <rationale>  (41) 
info cluster #8 (rank 5); hbond:S125; hydroph_interaction:Y89+D109+V124; 

>  <cluster_rank>  (41) 
5

>  <N_interactions>  (41) 
4

>  <N_interactions_lost>  (41) 
1

>  <∆∆G>  (41) 
-8.327559

>  <comRMSD>  (41) 
0.717782

>  <N_rotatable_bonds>  (41) 
3

>  <N_unconstrained_atoms>  (41) 
1

>  <N_constrained_atoms>  (41) 
15

$$$$
Z2017875808
     RDKit          3D

 25 26  0  0  0  0  0  0  0  0999 V2000
   11.8940   14.4580   22.4630 C   0  0  0  0  0  0  0  0  0  0  0  0
   11.1450   13.6310   23.5060 C   0  0  0  0  0  0  0  0  0  0  0  0
   11.1320   13.9510   24.6860 O   0  0  0  0  0  0  0  0  0  0  0  0
   10.5420   12.5480   22.9140 N   0  0  0  0  0  0  0  0  0  0  0  0
    9.8710   11.4330   23.4750 C   0  0  0  0  0  0  0  0  0  0  0  0
   10.3010   10.0890   23.0800 C   0  0  0  0  0  0  0  0  0  0  0  0
    9.6320    8.8920   23.6240 C   0  0  0  0  0  0  0  0  0  0  0  0
    8.5150    9.0250   24.5770 C   0  0  0  0  0  0  0  0  0  0  0  0
    8.1530   10.3100   24.9040 C   0  0  0  0  0  0  0  0  0  0  0  0
    6.9960   10.2480   25.8710 C   0  0  0  0  0  0  0  0  0  0  0  0
    6.4500   11.5530   26.3530 C   0  0  0  0  0  0  0  0  0  0  0  0
    7.0470   12.7010   25.8770 C   0  0  0  0  0  0  0  0  0  0  0  0
    6.5770   13.8880   26.2940 F   0  0  0  0  0  0  0  0  0  0  0  0
    8.1350   12.6930   24.9660 C   0  0  0  0  0  0  0  0  0  0  0  0
    8.7460   11.5150   24.4280 C   0  0  0  0  0  0  0  0  0  0  0  0
   11.5110   15.4810   22.4500 H   0  0  0  0  0  0  0  0  0  0  0  0
   11.7660   14.0250   21.4650 H   0  0  0  0  0  0  0  0  0  0  0  0
   12.9580   14.4670   22.6980 H   0  0  0  0  0  0  0  0  0  0  0  0
   10.9100   12.3430   21.9810 H   0  0  0  0  0  0  0  0  0  0  0  0
   11.1090    9.9280   22.3820 H   0  0  0  0  0  0  0  0  0  0  0  0
   10.0480    7.9520   23.2500 H   0  0  0  0  0  0  0  0  0  0  0  0
    8.0270    8.1660   24.9860 H   0  0  0  0  0  0  0  0  0  0  0  0
    6.6190    9.2670   26.1670 H   0  0  0  0  0  0  0  0  0  0  0  0
    5.6110   11.5000   27.0540 H   0  0  0  0  0  0  0  0  0  0  0  0
    8.4900   13.6760   24.6880 H   0  0  0  0  0  0  0  0  0  0  0  0
  1  2  1  0
  2  3  2  0
  2  4  1  0
  4  5  1  0
  5  6  2  0
  6  7  1  0
  7  8  2  0
  8  9  1  0
  9 10  2  0
 10 11  1  0
 11 12  2  0
 12 13  1  0
 12 14  1  0
 14 15  2  0
 15  5  1  0
 15  9  1  0
  1 16  1  0
  1 17  1  0
  1 18  1  0
  4 19  1  0
  6 20  1  0
  7 21  1  0
  8 22  1  0
 10 23  1  0
 11 24  1  0
 14 25  1  0
A    1
 C1 
A    2
 C2 
A    3
 O1 
A    4
 N1 
A    5
 C3 
A    6
 C4 
A    7
 C5 
A    8
 C6 
A    9
 C7 
A   10
 C8 
A   11
 C9 
A   12
 C10
A   13
 F1 
A   14
 C11
A   15
 C12
A   16
 H1 
A   17
 H2 
A   18
 H3 
A   19
 H4 
A   20
 H5 
A   21
 H6 
A   22
 H7 
A   23
 H8 
A   24
 H9 
A   25
 H10
M  END
>  <ref_pdb>  (42) 
x0554_0A

>  <ref_mols>  (42) 
x0554_0A,x0451_0A

>  <original SMILES>  (42) 
CC(=O)Nc1cccc2ccc(F)cc12

>  <rationale>  (42) 
info cluster #5 (rank 5); hbond:S125; hydroph_interaction:Y89+D109; 

>  <cluster_rank>  (42) 
5

>  <N_interactions>  (42) 
3

>  <N_interactions_lost>  (42) 
1

>  <∆∆G>  (42) 
-8.102771

>  <comRMSD>  (42) 
0.784847

>  <N_rotatable_bonds>  (42) 
2

>  <N_unconstrained_atoms>  (42) 
1

>  <N_constrained_atoms>  (42) 
16

$$$$
Z410202728
     RDKit          3D

 24 24  0  0  0  0  0  0  0  0999 V2000
    8.2650   13.5370   24.5770 C   0  0  0  0  0  0  0  0  0  0  0  0
    8.5300   12.0550   24.4350 C   0  0  0  0  0  0  0  0  0  0  0  0
    7.5030   11.2130   25.1470 C   0  0  0  0  0  0  0  0  0  0  0  0
    7.5990    9.8170   25.1070 C   0  0  0  0  0  0  0  0  0  0  0  0
    8.7350    9.1720   24.3440 C   0  0  0  0  0  0  0  0  0  0  0  0
    9.6560   10.0150   23.7080 C   0  0  0  0  0  0  0  0  0  0  0  0
   10.7150    9.2040   23.0130 C   0  0  0  0  0  0  0  0  0  0  0  0
    9.5910   11.4380   23.7320 C   0  0  0  0  0  0  0  0  0  0  0  0
   10.6090   12.1720   23.0430 N   0  0  0  0  0  0  0  0  0  0  0  0
   11.1370   13.4800   23.3930 C   0  0  0  0  0  0  0  0  0  0  0  0
   11.7560   14.0930   22.3330 N   0  0  0  0  0  0  0  0  0  0  0  0
   11.0820   14.0430   24.4730 O   0  0  0  0  0  0  0  0  0  0  0  0
    8.6370   13.9140   25.5360 H   0  0  0  0  0  0  0  0  0  0  0  0
    8.7630   14.0870   23.7730 H   0  0  0  0  0  0  0  0  0  0  0  0
    7.1930   13.7460   24.5240 H   0  0  0  0  0  0  0  0  0  0  0  0
    6.6820   11.6750   25.6920 H   0  0  0  0  0  0  0  0  0  0  0  0
    6.8770    9.1840   25.6100 H   0  0  0  0  0  0  0  0  0  0  0  0
    8.7530    8.0770   24.3500 H   0  0  0  0  0  0  0  0  0  0  0  0
   10.4770    8.1380   23.0070 H   0  0  0  0  0  0  0  0  0  0  0  0
   11.6450    9.3350   23.5560 H   0  0  0  0  0  0  0  0  0  0  0  0
   10.8730    9.5200   21.9800 H   0  0  0  0  0  0  0  0  0  0  0  0
   10.8450   11.9080   22.0850 H   0  0  0  0  0  0  0  0  0  0  0  0
   12.1200   15.0030   22.5880 H   0  0  0  0  0  0  0  0  0  0  0  0
   11.2470   14.0970   21.4620 H   0  0  0  0  0  0  0  0  0  0  0  0
  1  2  1  0
  2  3  2  0
  3  4  1  0
  4  5  2  0
  5  6  1  0
  6  7  1  0
  6  8  2  0
  8  9  1  0
  9 10  1  0
 10 11  1  0
 10 12  2  0
  8  2  1  0
  1 13  1  0
  1 14  1  0
  1 15  1  0
  3 16  1  0
  4 17  1  0
  5 18  1  0
  7 19  1  0
  7 20  1  0
  7 21  1  0
  9 22  1  0
 11 23  1  0
 11 24  1  0
A    1
 C1 
A    2
 C2 
A    3
 C3 
A    4
 C4 
A    5
 C5 
A    6
 C6 
A    7
 C7 
A    8
 C8 
A    9
 N1 
A   10
 C9 
A   11
 N2 
A   12
 O1 
A   13
 H1 
A   14
 H2 
A   15
 H3 
A   16
 H4 
A   17
 H5 
A   18
 H6 
A   19
 H7 
A   20
 H8 
A   21
 H9 
A   22
 H10
A   23
 H11
A   24
 H12
M  END
>  <ref_pdb>  (43) 
x0554_0A

>  <ref_mols>  (43) 
x0554_0A,x0310_0A

>  <original SMILES>  (43) 
Cc1cccc(C)c1NC(N)=O

>  <rationale>  (43) 
info cluster #0 (rank 5); hbond:S125; hydroph_interaction:A110+V124; 

>  <cluster_rank>  (43) 
5

>  <N_interactions>  (43) 
4

>  <N_interactions_lost>  (43) 
1

>  <∆∆G>  (43) 
-7.458596

>  <comRMSD>  (43) 
0.664691

>  <N_rotatable_bonds>  (43) 
3

>  <N_unconstrained_atoms>  (43) 
1

>  <N_constrained_atoms>  (43) 
13

$$$$
Z1725019223
     RDKit          3D

 35 35  0  0  0  0  0  0  0  0999 V2000
    9.6440    8.7930   23.3010 C   0  0  0  0  0  0  0  0  0  0  0  0
    9.0460   10.0140   23.8990 C   0  0  0  0  0  0  0  0  0  0  0  0
    7.9770    9.8940   24.7100 N   0  0  0  0  0  0  0  0  0  0  0  0
    7.6640   11.1510   25.1100 N   0  0  0  0  0  0  0  0  0  0  0  0
    6.5460   11.3790   26.0730 C   0  0  0  0  0  0  0  0  0  0  0  0
    5.4690   12.4570   25.9260 C   0  0  0  0  0  0  0  0  0  0  0  0
    7.2960   12.1250   27.1140 C   0  0  0  0  0  0  0  0  0  0  0  0
    5.9220   10.0950   26.6270 C   0  0  0  0  0  0  0  0  0  0  0  0
    8.5100   12.0740   24.5490 C   0  0  0  0  0  0  0  0  0  0  0  0
    8.4050   13.5820   24.8030 C   0  0  0  0  0  0  0  0  0  0  0  0
    9.4240   11.3710   23.7740 C   0  0  0  0  0  0  0  0  0  0  0  0
   10.4350   12.0500   23.1050 N   0  0  0  0  0  0  0  0  0  0  0  0
   11.1330   13.1080   23.6370 C   0  0  0  0  0  0  0  0  0  0  0  0
   11.0700   13.4910   24.7970 O   0  0  0  0  0  0  0  0  0  0  0  0
   11.9680   13.7950   22.7360 C   0  0  0  0  0  0  0  0  0  0  0  0
   11.8350   15.1060   22.2560 C   0  0  0  0  0  0  0  0  0  0  0  0
   11.6730   16.2010   21.9350 N   0  0  0  0  0  0  0  0  0  0  0  0
   10.5420    8.5040   23.8500 H   0  0  0  0  0  0  0  0  0  0  0  0
    9.9400    8.9920   22.2660 H   0  0  0  0  0  0  0  0  0  0  0  0
    8.9410    7.9560   23.3390 H   0  0  0  0  0  0  0  0  0  0  0  0
    5.6420   13.1240   25.0750 H   0  0  0  0  0  0  0  0  0  0  0  0
    5.4210   13.0830   26.8240 H   0  0  0  0  0  0  0  0  0  0  0  0
    4.4990   11.9720   25.8410 H   0  0  0  0  0  0  0  0  0  0  0  0
    6.9500   11.8940   28.1250 H   0  0  0  0  0  0  0  0  0  0  0  0
    8.3440   11.8540   27.0130 H   0  0  0  0  0  0  0  0  0  0  0  0
    7.2320   13.2080   26.9850 H   0  0  0  0  0  0  0  0  0  0  0  0
    6.6630    9.3030   26.6120 H   0  0  0  0  0  0  0  0  0  0  0  0
    5.5910   10.1820   27.6640 H   0  0  0  0  0  0  0  0  0  0  0  0
    5.0760    9.7660   26.0170 H   0  0  0  0  0  0  0  0  0  0  0  0
    8.9450   14.1460   24.0330 H   0  0  0  0  0  0  0  0  0  0  0  0
    8.8540   13.8660   25.7610 H   0  0  0  0  0  0  0  0  0  0  0  0
    7.3570   13.8990   24.8160 H   0  0  0  0  0  0  0  0  0  0  0  0
   10.6630   11.7500   22.1530 H   0  0  0  0  0  0  0  0  0  0  0  0
   12.0530   13.1450   21.8680 H   0  0  0  0  0  0  0  0  0  0  0  0
   12.9560   13.7460   23.2020 H   0  0  0  0  0  0  0  0  0  0  0  0
  1  2  1  0
  2  3  2  0
  3  4  1  0
  4  5  1  0
  5  6  1  0
  5  7  1  0
  5  8  1  0
  4  9  1  0
  9 10  1  0
  9 11  2  0
 11 12  1  0
 12 13  1  0
 13 14  2  0
 13 15  1  0
 15 16  1  0
 16 17  3  0
 11  2  1  0
  1 18  1  0
  1 19  1  0
  1 20  1  0
  6 21  1  0
  6 22  1  0
  6 23  1  0
  7 24  1  0
  7 25  1  0
  7 26  1  0
  8 27  1  0
  8 28  1  0
  8 29  1  0
 10 30  1  0
 10 31  1  0
 10 32  1  0
 12 33  1  0
 15 34  1  0
 15 35  1  0
A    1
 C1 
A    2
 C2 
A    3
 N1 
A    4
 N2 
A    5
 C3 
A    6
 C4 
A    7
 C5 
A    8
 C6 
A    9
 C7 
A   10
 C8 
A   11
 C9 
A   12
 N3 
A   13
 C10
A   14
 O1 
A   15
 C11
A   16
 C12
A   17
 N4 
A   18
 H1 
A   19
 H2 
A   20
 H3 
A   21
 H4 
A   22
 H5 
A   23
 H6 
A   24
 H7 
A   25
 H8 
A   26
 H9 
A   27
 H10
A   28
 H11
A   29
 H12
A   30
 H13
A   31
 H14
A   32
 H15
A   33
 H16
A   34
 H17
A   35
 H18
M  END
>  <ref_pdb>  (44) 
x0554_0A

>  <ref_mols>  (44) 
x0310_0A,x0556_0A

>  <original SMILES>  (44) 
Cc1nn(C(C)(C)C)c(C)c1NC(=O)CC#N

>  <rationale>  (44) 
info cluster #7 (rank 5); hbond:S87+S125; hydroph_interaction:Y89+P107+D109+V124; 

>  <cluster_rank>  (44) 
5

>  <N_interactions>  (44) 
6

>  <N_interactions_lost>  (44) 
3

>  <∆∆G>  (44) 
-7.863139

>  <comRMSD>  (44) 
0.604116

>  <N_rotatable_bonds>  (44) 
4

>  <N_unconstrained_atoms>  (44) 
1

>  <N_constrained_atoms>  (44) 
16

$$$$
Z4292421166
     RDKit          3D

 36 36  0  0  0  0  0  0  0  0999 V2000
    7.4340   10.3170   25.6540 C   0  0  0  0  0  0  0  0  0  0  0  0
    8.4270   11.0090   24.8140 C   0  0  0  0  0  0  0  0  0  0  0  0
    8.6810   12.3380   24.7030 C   0  0  0  0  0  0  0  0  0  0  0  0
    8.0280   13.2970   25.3780 N   0  0  0  0  0  0  0  0  0  0  0  0
    9.7320   12.4930   23.7670 C   0  0  0  0  0  0  0  0  0  0  0  0
   10.3000   13.8100   23.3670 C   0  0  0  0  0  0  0  0  0  0  0  0
   10.3370   14.7210   24.2010 O   0  0  0  0  0  0  0  0  0  0  0  0
   10.7860   14.0040   22.0590 N   0  0  0  0  0  0  0  0  0  0  0  0
   12.2080   13.8620   21.9130 C   0  0  0  0  0  0  0  0  0  0  0  0
   10.2440   15.1000   21.2070 C   0  0  0  0  0  0  0  0  0  0  0  0
    8.7520   15.3740   21.4620 C   0  0  0  0  0  0  0  0  0  0  0  0
   10.4870   14.8580   19.6920 C   0  0  0  0  0  0  0  0  0  0  0  0
   11.0230   16.3570   21.5190 C   0  0  0  0  0  0  0  0  0  0  0  0
   10.1210   11.2750   23.3110 N   0  0  0  0  0  0  0  0  0  0  0  0
    9.3150   10.4040   23.9530 N   0  0  0  0  0  0  0  0  0  0  0  0
    9.4630    8.9880   23.6820 C   0  0  0  0  0  0  0  0  0  0  0  0
    7.7490    9.2970   25.8660 H   0  0  0  0  0  0  0  0  0  0  0  0
    7.3170   10.8240   26.6180 H   0  0  0  0  0  0  0  0  0  0  0  0
    6.4600   10.2800   25.1630 H   0  0  0  0  0  0  0  0  0  0  0  0
    7.4050   13.9030   24.8350 H   0  0  0  0  0  0  0  0  0  0  0  0
    7.6510   13.1030   26.2990 H   0  0  0  0  0  0  0  0  0  0  0  0
   12.7160   14.6060   22.5320 H   0  0  0  0  0  0  0  0  0  0  0  0
   12.4590   14.0060   20.8610 H   0  0  0  0  0  0  0  0  0  0  0  0
   12.5700   12.8890   22.2590 H   0  0  0  0  0  0  0  0  0  0  0  0
    8.2070   15.4680   20.5260 H   0  0  0  0  0  0  0  0  0  0  0  0
    8.5780   16.3060   22.0110 H   0  0  0  0  0  0  0  0  0  0  0  0
    8.2990   14.5600   22.0440 H   0  0  0  0  0  0  0  0  0  0  0  0
    9.6120   15.1390   19.0980 H   0  0  0  0  0  0  0  0  0  0  0  0
   11.3350   15.4570   19.3300 H   0  0  0  0  0  0  0  0  0  0  0  0
   10.7390   13.8180   19.4680 H   0  0  0  0  0  0  0  0  0  0  0  0
   12.0460   16.3000   21.1390 H   0  0  0  0  0  0  0  0  0  0  0  0
   11.0980   16.4870   22.6020 H   0  0  0  0  0  0  0  0  0  0  0  0
   10.5450   17.2420   21.0840 H   0  0  0  0  0  0  0  0  0  0  0  0
    9.1850    8.4150   24.5700 H   0  0  0  0  0  0  0  0  0  0  0  0
    8.8020    8.7260   22.8560 H   0  0  0  0  0  0  0  0  0  0  0  0
   10.5060    8.7850   23.4230 H   0  0  0  0  0  0  0  0  0  0  0  0
  1  2  1  0
  2  3  2  0
  3  4  1  0
  3  5  1  0
  5  6  1  0
  6  7  2  0
  6  8  1  0
  8  9  1  0
  8 10  1  0
 10 11  1  0
 10 12  1  0
 10 13  1  0
  5 14  2  0
 14 15  1  0
 15 16  1  0
 15  2  1  0
  1 17  1  0
  1 18  1  0
  1 19  1  0
  4 20  1  0
  4 21  1  0
  9 22  1  0
  9 23  1  0
  9 24  1  0
 11 25  1  0
 11 26  1  0
 11 27  1  0
 12 28  1  0
 12 29  1  0
 12 30  1  0
 13 31  1  0
 13 32  1  0
 13 33  1  0
 16 34  1  0
 16 35  1  0
 16 36  1  0
A    1
 C1 
A    2
 C2 
A    3
 C3 
A    4
 N1 
A    5
 C4 
A    6
 C5 
A    7
 O1 
A    8
 N2 
A    9
 C6 
A   10
 C7 
A   11
 C8 
A   12
 C9 
A   13
 C10
A   14
 N3 
A   15
 N4 
A   16
 C11
A   17
 H1 
A   18
 H2 
A   19
 H3 
A   20
 H4 
A   21
 H5 
A   22
 H6 
A   23
 H7 
A   24
 H8 
A   25
 H9 
A   26
 H10
A   27
 H11
A   28
 H12
A   29
 H13
A   30
 H14
A   31
 H15
A   32
 H16
A   33
 H17
A   34
 H18
A   35
 H19
A   36
 H20
M  END
>  <ref_pdb>  (45) 
x0554_0A

>  <ref_mols>  (45) 
x0451_0A,x0556_0A

>  <original SMILES>  (45) 
Cc1c(N)c(C(=O)N(C)C(C)(C)C)nn1C

>  <rationale>  (45) 
info cluster #2 (rank 5); hydroph_interaction:Y90+V84; 

>  <cluster_rank>  (45) 
5

>  <N_interactions>  (45) 
2

>  <N_interactions_lost>  (45) 
0

>  <∆∆G>  (45) 
-10.258186

>  <comRMSD>  (45) 
0.94381

>  <N_rotatable_bonds>  (45) 
5

>  <N_unconstrained_atoms>  (45) 
1

>  <N_constrained_atoms>  (45) 
17

$$$$
Z2042431932
     RDKit          3D

 30 31  0  0  0  0  0  0  0  0999 V2000
   12.0560   14.5110   21.8730 C   0  0  0  0  0  0  0  0  0  0  0  0
   11.4930   13.3060   22.4850 N   0  0  0  0  0  0  0  0  0  0  0  0
   10.0850   13.5380   23.3840 S   0  0  0  0  0  6  0  0  0  0  0  0
   10.4770   14.2120   24.5960 O   0  0  0  0  0  0  0  0  0  0  0  0
    9.0790   14.0880   22.4820 O   0  0  0  0  0  0  0  0  0  0  0  0
    9.3800   12.0210   23.8930 C   0  0  0  0  0  0  0  0  0  0  0  0
    9.7070   10.6600   23.5960 C   0  0  0  0  0  0  0  0  0  0  0  0
   10.7880   10.3710   22.8120 C   0  0  0  0  0  0  0  0  0  0  0  0
    8.8670    9.7920   24.1520 N   0  0  0  0  0  0  0  0  0  0  0  0
    8.9630    8.3670   23.9500 C   0  0  0  0  0  0  0  0  0  0  0  0
    7.9370   10.5700   24.9290 C   0  0  0  0  0  0  0  0  0  0  0  0
    6.9030   10.1000   25.7060 C   0  0  0  0  0  0  0  0  0  0  0  0
    6.1430   11.0640   26.3680 C   0  0  0  0  0  0  0  0  0  0  0  0
    6.4130   12.4010   26.2430 C   0  0  0  0  0  0  0  0  0  0  0  0
    7.4470   12.8300   25.4570 C   0  0  0  0  0  0  0  0  0  0  0  0
    8.2490   11.9360   24.7740 C   0  0  0  0  0  0  0  0  0  0  0  0
   11.3800   15.3700   21.9430 H   0  0  0  0  0  0  0  0  0  0  0  0
   12.2430   14.3210   20.8090 H   0  0  0  0  0  0  0  0  0  0  0  0
   13.0000   14.7910   22.3450 H   0  0  0  0  0  0  0  0  0  0  0  0
   11.3550   12.6100   21.7360 H   0  0  0  0  0  0  0  0  0  0  0  0
   10.4670    9.8590   21.9040 H   0  0  0  0  0  0  0  0  0  0  0  0
   11.3780   11.2540   22.5750 H   0  0  0  0  0  0  0  0  0  0  0  0
   11.4530    9.6950   23.3550 H   0  0  0  0  0  0  0  0  0  0  0  0
    9.9960    8.1430   23.6820 H   0  0  0  0  0  0  0  0  0  0  0  0
    8.3290    8.0400   23.1210 H   0  0  0  0  0  0  0  0  0  0  0  0
    8.6660    7.8530   24.8620 H   0  0  0  0  0  0  0  0  0  0  0  0
    6.6770    9.0560   25.8140 H   0  0  0  0  0  0  0  0  0  0  0  0
    5.3080   10.7600   27.0050 H   0  0  0  0  0  0  0  0  0  0  0  0
    5.8100   13.1510   26.7650 H   0  0  0  0  0  0  0  0  0  0  0  0
    7.6400   13.9090   25.3730 H   0  0  0  0  0  0  0  0  0  0  0  0
  1  2  1  0
  2  3  1  0
  3  4  2  0
  3  5  2  0
  3  6  1  0
  6  7  2  0
  7  8  1  0
  7  9  1  0
  9 10  1  0
  9 11  1  0
 11 12  2  0
 12 13  1  0
 13 14  2  0
 14 15  1  0
 15 16  2  0
 16  6  1  0
 16 11  1  0
  1 17  1  0
  1 18  1  0
  1 19  1  0
  2 20  1  0
  8 21  1  0
  8 22  1  0
  8 23  1  0
 10 24  1  0
 10 25  1  0
 10 26  1  0
 12 27  1  0
 13 28  1  0
 14 29  1  0
 15 30  1  0
A    1
 C1 
A    2
 N1 
A    3
 S1 
A    4
 O1 
A    5
 O2 
A    6
 C2 
A    7
 C3 
A    8
 C4 
A    9
 N2 
A   10
 C5 
A   11
 C6 
A   12
 C7 
A   13
 C8 
A   14
 C9 
A   15
 C10
A   16
 C11
A   17
 H1 
A   18
 H2 
A   19
 H3 
A   20
 H4 
A   21
 H5 
A   22
 H6 
A   23
 H7 
A   24
 H8 
A   25
 H9 
A   26
 H10
A   27
 H11
A   28
 H12
A   29
 H13
A   30
 H14
M  END
>  <ref_pdb>  (46) 
x0554_0A

>  <ref_mols>  (46) 
x0451_0A,x0566_0A

>  <original SMILES>  (46) 
CNS(=O)(=O)c1c(C)n(C)c2ccccc12

>  <rationale>  (46) 
info cluster #6 (rank 5); hbond:H21; hydroph_interaction:A110; 

>  <cluster_rank>  (46) 
5

>  <N_interactions>  (46) 
2

>  <N_interactions_lost>  (46) 
0

>  <∆∆G>  (46) 
-10.08466

>  <comRMSD>  (46) 
0.599604

>  <N_rotatable_bonds>  (46) 
5

>  <N_unconstrained_atoms>  (46) 
1

>  <N_constrained_atoms>  (46) 
15

$$$$
PV_006865159225
     RDKit          3D

 50 51  0  0  0  0  0  0  0  0999 V2000
   15.9500   12.5380   27.3060 C   0  0  0  0  0  0  0  0  0  0  0  0
   15.0130   12.1900   26.1860 C   0  0  0  0  0  0  0  0  0  0  0  0
   14.4950   11.6280   24.8900 C   0  0  0  0  0  0  0  0  0  0  0  0
   13.0290   11.8160   24.6320 N   0  0  0  0  0  0  0  0  0  0  0  0
   12.4400   12.9600   24.0990 C   0  0  0  0  0  0  0  0  0  0  0  0
   13.0900   13.8500   23.5890 O   0  0  0  0  0  0  0  0  0  0  0  0
   10.8750   13.0270   24.2490 C   0  0  0  0  0  0  0  0  0  0  0  0
   10.1770   11.8220   24.1380 C   0  0  0  0  0  0  0  0  0  0  0  0
   10.7420   10.8150   23.3840 C   0  0  0  0  0  0  0  0  0  0  0  0
   10.0430    9.4900   23.2500 C   0  0  0  0  0  0  0  0  0  0  0  0
    8.8360    9.2990   23.8820 C   0  0  0  0  0  0  0  0  0  0  0  0
    8.2610   10.3470   24.6470 C   0  0  0  0  0  0  0  0  0  0  0  0
    8.9300   11.5690   24.7590 C   0  0  0  0  0  0  0  0  0  0  0  0
   10.7570   13.6010   25.7030 C   0  0  0  0  0  0  0  0  0  0  0  0
    9.8020   14.6180   25.6010 C   0  0  0  0  0  0  0  0  0  0  0  0
    9.1860   14.6590   24.3590 C   0  0  0  0  0  0  0  0  0  0  0  0
   10.1560   14.0740   23.4740 N   0  0  0  0  0  0  0  0  0  0  0  0
   10.6750   14.8990   22.5170 C   0  0  0  0  0  0  0  0  0  0  0  0
   11.4050   15.8310   22.7850 O   0  0  0  0  0  0  0  0  0  0  0  0
   10.2470   14.6150   21.2510 O   0  0  0  0  0  0  0  0  0  0  0  0
   10.8540   15.3580   20.1730 C   0  0  0  0  0  0  0  0  0  0  0  0
   10.2570   16.7730   20.1010 C   0  0  0  0  0  0  0  0  0  0  0  0
   12.3140   15.4130   20.6250 C   0  0  0  0  0  0  0  0  0  0  0  0
   10.8330   14.6620   18.8150 C   0  0  0  0  0  0  0  0  0  0  0  0
   15.5900   13.1070   28.1680 H   0  0  0  0  0  0  0  0  0  0  0  0
   16.9970   12.2270   27.2690 H   0  0  0  0  0  0  0  0  0  0  0  0
   14.0830   12.6430   26.5400 H   0  0  0  0  0  0  0  0  0  0  0  0
   14.6910   10.5530   24.9030 H   0  0  0  0  0  0  0  0  0  0  0  0
   15.0770   12.0720   24.0800 H   0  0  0  0  0  0  0  0  0  0  0  0
   12.5810   10.9500   24.3630 H   0  0  0  0  0  0  0  0  0  0  0  0
   11.6830   10.9540   22.8860 H   0  0  0  0  0  0  0  0  0  0  0  0
   10.5570    8.7420   22.6390 H   0  0  0  0  0  0  0  0  0  0  0  0
    8.3650    8.3440   23.7710 H   0  0  0  0  0  0  0  0  0  0  0  0
    7.3040   10.2050   25.1470 H   0  0  0  0  0  0  0  0  0  0  0  0
    8.4520   12.3430   25.3600 H   0  0  0  0  0  0  0  0  0  0  0  0
   11.6990   14.0660   26.0280 H   0  0  0  0  0  0  0  0  0  0  0  0
   10.5030   12.8610   26.4650 H   0  0  0  0  0  0  0  0  0  0  0  0
   10.3220   15.5680   25.7550 H   0  0  0  0  0  0  0  0  0  0  0  0
    8.9920   14.6680   26.3160 H   0  0  0  0  0  0  0  0  0  0  0  0
    9.0040   15.6890   24.0320 H   0  0  0  0  0  0  0  0  0  0  0  0
    8.2410   14.1090   24.3390 H   0  0  0  0  0  0  0  0  0  0  0  0
   10.6560   17.4300   20.8750 H   0  0  0  0  0  0  0  0  0  0  0  0
    9.1740   16.7430   20.2570 H   0  0  0  0  0  0  0  0  0  0  0  0
   10.4540   17.2420   19.1310 H   0  0  0  0  0  0  0  0  0  0  0  0
   12.9830   15.4010   19.7590 H   0  0  0  0  0  0  0  0  0  0  0  0
   12.5600   14.5220   21.2130 H   0  0  0  0  0  0  0  0  0  0  0  0
   12.5360   16.2900   21.2330 H   0  0  0  0  0  0  0  0  0  0  0  0
    9.9420   14.9260   18.2340 H   0  0  0  0  0  0  0  0  0  0  0  0
   10.8470   13.5820   18.9240 H   0  0  0  0  0  0  0  0  0  0  0  0
   11.7250   14.9230   18.2310 H   0  0  0  0  0  0  0  0  0  0  0  0
  1  2  2  0
  2  3  1  0
  3  4  1  0
  4  5  1  0
  5  6  2  0
  5  7  1  0
  7  8  1  0
  8  9  2  0
  9 10  1  0
 10 11  2  0
 11 12  1  0
 12 13  2  0
  7 14  1  0
 14 15  1  0
 15 16  1  0
 16 17  1  0
 17 18  1  0
 18 19  2  0
 18 20  1  0
 20 21  1  0
 21 22  1  0
 21 23  1  0
 21 24  1  0
 17  7  1  0
 13  8  1  0
  1 25  1  0
  1 26  1  0
  2 27  1  0
  3 28  1  0
  3 29  1  0
  4 30  1  0
  9 31  1  0
 10 32  1  0
 11 33  1  0
 12 34  1  0
 13 35  1  0
 14 36  1  0
 14 37  1  0
 15 38  1  0
 15 39  1  0
 16 40  1  0
 16 41  1  0
 22 42  1  0
 22 43  1  0
 22 44  1  0
 23 45  1  0
 23 46  1  0
 23 47  1  0
 24 48  1  0
 24 49  1  0
 24 50  1  0
A    1
 C1 
A    2
 C2 
A    3
 C3 
A    4
 N1 
A    5
 C4 
A    6
 O1 
A    7
 C5 
A    8
 C6 
A    9
 C7 
A   10
 C8 
A   11
 C9 
A   12
 C10
A   13
 C11
A   14
 C12
A   15
 C13
A   16
 C14
A   17
 N2 
A   18
 C15
A   19
 O2 
A   20
 O3 
A   21
 C16
A   22
 C17
A   23
 C18
A   24
 C19
A   25
 H1 
A   26
 H2 
A   27
 H3 
A   28
 H4 
A   29
 H5 
A   30
 H6 
A   31
 H7 
A   32
 H8 
A   33
 H9 
A   34
 H10
A   35
 H11
A   36
 H12
A   37
 H13
A   38
 H14
A   39
 H15
A   40
 H16
A   41
 H17
A   42
 H18
A   43
 H19
A   44
 H20
A   45
 H21
A   46
 H22
A   47
 H23
A   48
 H24
A   49
 H25
A   50
 H26
M  END
>  <ref_pdb>  (47) 
x0554_0A

>  <ref_mols>  (47) 
x0554_0A

>  <original SMILES>  (47) 
C=CCNC(=O)C1(c2ccccc2)CCCN1C(=O)OC(C)(C)C

>  <rationale>  (47) 
info cluster #3 (rank 5); hbond:G108+S87; hydroph_interaction:Y89+A110; 

>  <cluster_rank>  (47) 
5

>  <N_interactions>  (47) 
4

>  <N_interactions_lost>  (47) 
2

>  <∆∆G>  (47) 
-10.447403

>  <comRMSD>  (47) 
0.948081

>  <N_rotatable_bonds>  (47) 
4

>  <N_unconstrained_atoms>  (47) 
5

>  <N_constrained_atoms>  (47) 
20

$$$$
Z1698592395
     RDKit          3D

 28 29  0  0  0  0  0  0  0  0999 V2000
    9.3440   16.2880   20.9960 C   0  0  0  0  0  0  0  0  0  0  0  0
   10.1920   15.1670   21.5380 C   0  0  0  0  0  0  0  0  0  0  0  0
   11.0720   14.6260   20.4040 C   0  0  0  0  0  0  0  0  0  0  0  0
    9.4740   14.1340   22.1640 N   0  0  0  0  0  0  0  0  0  0  0  0
   10.2110   13.2230   22.9230 C   0  0  0  0  0  0  0  0  0  0  0  0
   11.4190   13.3660   23.0470 O   0  0  0  0  0  0  0  0  0  0  0  0
    9.5790   12.0180   23.6120 C   0  0  0  0  0  0  0  0  0  0  0  0
   10.0880   10.7430   23.3100 C   0  0  0  0  0  0  0  0  0  0  0  0
    9.5750    9.5900   23.9120 C   0  0  0  0  0  0  0  0  0  0  0  0
    8.5420    9.7070   24.8270 C   0  0  0  0  0  0  0  0  0  0  0  0
    7.9980   10.9310   25.1550 C   0  0  0  0  0  0  0  0  0  0  0  0
    8.5140   12.0880   24.5510 C   0  0  0  0  0  0  0  0  0  0  0  0
    7.6650   13.4740   25.1400 S   0  0  0  0  0  0  0  0  0  0  0  0
    6.6580   12.5560   26.1500 C   0  0  0  0  0  0  0  0  0  0  0  0
    6.9330   11.2170   26.0680 C   0  0  0  0  0  0  0  0  0  0  0  0
    9.8970   17.2270   21.0640 H   0  0  0  0  0  0  0  0  0  0  0  0
    9.1140   16.0790   19.9510 H   0  0  0  0  0  0  0  0  0  0  0  0
    8.4000   16.3810   21.5420 H   0  0  0  0  0  0  0  0  0  0  0  0
   10.8600   15.5940   22.2950 H   0  0  0  0  0  0  0  0  0  0  0  0
   11.9730   14.1480   20.8050 H   0  0  0  0  0  0  0  0  0  0  0  0
   10.5410   13.8880   19.8040 H   0  0  0  0  0  0  0  0  0  0  0  0
   11.4040   15.4320   19.7390 H   0  0  0  0  0  0  0  0  0  0  0  0
    8.6340   13.7970   21.6890 H   0  0  0  0  0  0  0  0  0  0  0  0
   10.9050   10.6480   22.5940 H   0  0  0  0  0  0  0  0  0  0  0  0
    9.9850    8.6130   23.6700 H   0  0  0  0  0  0  0  0  0  0  0  0
    8.1550    8.8180   25.2960 H   0  0  0  0  0  0  0  0  0  0  0  0
    5.9050   13.0390   26.7580 H   0  0  0  0  0  0  0  0  0  0  0  0
    6.3970   10.4630   26.6340 H   0  0  0  0  0  0  0  0  0  0  0  0
  1  2  1  0
  2  3  1  0
  2  4  1  0
  4  5  1  0
  5  6  2  0
  5  7  1  0
  7  8  2  0
  8  9  1  0
  9 10  2  0
 10 11  1  0
 11 12  2  0
 12 13  1  0
 13 14  1  0
 14 15  2  0
 12  7  1  0
 15 11  1  0
  1 16  1  0
  1 17  1  0
  1 18  1  0
  2 19  1  0
  3 20  1  0
  3 21  1  0
  3 22  1  0
  4 23  1  0
  8 24  1  0
  9 25  1  0
 10 26  1  0
 14 27  1  0
 15 28  1  0
A    1
 C1 
A    2
 C2 
A    3
 C3 
A    4
 N1 
A    5
 C4 
A    6
 O1 
A    7
 C5 
A    8
 C6 
A    9
 C7 
A   10
 C8 
A   11
 C9 
A   12
 C10
A   13
 S1 
A   14
 C11
A   15
 C12
A   16
 H1 
A   17
 H2 
A   18
 H3 
A   19
 H4 
A   20
 H5 
A   21
 H6 
A   22
 H7 
A   23
 H8 
A   24
 H9 
A   25
 H10
A   26
 H11
A   27
 H12
A   28
 H13
M  END
>  <ref_pdb>  (48) 
x0554_0A

>  <ref_mols>  (48) 
x0566_0A

>  <original SMILES>  (48) 
CC(C)NC(=O)c1cccc2ccsc12

>  <rationale>  (48) 
info cluster #1 (rank 5); hbond:T126; hydroph_interaction:V84; 

>  <cluster_rank>  (48) 
5

>  <N_interactions>  (48) 
2

>  <N_interactions_lost>  (48) 
0

>  <∆∆G>  (48) 
-7.012753

>  <comRMSD>  (48) 
0.582041

>  <N_rotatable_bonds>  (48) 
4

>  <N_unconstrained_atoms>  (48) 
0

>  <N_constrained_atoms>  (48) 
16

$$$$
PV_002930247595
     RDKit          3D

 25 26  0  0  0  0  0  0  0  0999 V2000
   11.9710   14.4690   21.9470 C   0  0  0  0  0  0  0  0  0  0  0  0
   10.7200   13.8060   22.1720 O   0  0  0  0  0  0  0  0  0  0  0  0
   10.4710   13.5060   23.4780 C   0  0  0  0  0  0  0  0  0  0  0  0
   10.8210   14.2780   24.3550 O   0  0  0  0  0  0  0  0  0  0  0  0
    9.7440   12.2240   23.8350 C   0  0  0  0  0  0  0  0  0  0  0  0
   10.2120   10.9400   23.2240 C   0  0  0  0  0  0  0  0  0  0  0  0
    9.3480   10.0060   23.7510 N   0  0  0  0  0  0  0  0  0  0  0  0
    9.3860    8.5920   23.4530 C   0  0  0  0  0  0  0  0  0  0  0  0
    8.4170   10.5980   24.6230 C   0  0  0  0  0  0  0  0  0  0  0  0
    7.3940   10.0480   25.3640 C   0  0  0  0  0  0  0  0  0  0  0  0
    6.6120   10.8730   26.1490 C   0  0  0  0  0  0  0  0  0  0  0  0
    6.8360   12.2580   26.2120 C   0  0  0  0  0  0  0  0  0  0  0  0
    7.8600   12.8150   25.4760 C   0  0  0  0  0  0  0  0  0  0  0  0
    8.6520   11.9740   24.6790 C   0  0  0  0  0  0  0  0  0  0  0  0
   12.3150   14.1920   20.9460 H   0  0  0  0  0  0  0  0  0  0  0  0
   12.7030   14.1510   22.6910 H   0  0  0  0  0  0  0  0  0  0  0  0
   11.8430   15.5540   21.9970 H   0  0  0  0  0  0  0  0  0  0  0  0
   11.0090   10.6970   22.5320 H   0  0  0  0  0  0  0  0  0  0  0  0
   10.4150    8.3050   23.2080 H   0  0  0  0  0  0  0  0  0  0  0  0
    8.7500    8.3700   22.6070 H   0  0  0  0  0  0  0  0  0  0  0  0
    9.0490    8.0160   24.3240 H   0  0  0  0  0  0  0  0  0  0  0  0
    7.2000    8.9960   25.3430 H   0  0  0  0  0  0  0  0  0  0  0  0
    5.7980   10.4520   26.7390 H   0  0  0  0  0  0  0  0  0  0  0  0
    6.2070   12.8830   26.8370 H   0  0  0  0  0  0  0  0  0  0  0  0
    8.0480   13.8850   25.5140 H   0  0  0  0  0  0  0  0  0  0  0  0
  1  2  1  0
  2  3  1  0
  3  4  2  0
  3  5  1  0
  5  6  2  0
  6  7  1  0
  7  8  1  0
  7  9  1  0
  9 10  2  0
 10 11  1  0
 11 12  2  0
 12 13  1  0
 13 14  2  0
 14  5  1  0
 14  9  1  0
  1 15  1  0
  1 16  1  0
  1 17  1  0
  6 18  1  0
  8 19  1  0
  8 20  1  0
  8 21  1  0
 10 22  1  0
 11 23  1  0
 12 24  1  0
 13 25  1  0
A    1
 C1 
A    2
 O1 
A    3
 C2 
A    4
 O2 
A    5
 C3 
A    6
 C4 
A    7
 N1 
A    8
 C5 
A    9
 C6 
A   10
 C7 
A   11
 C8 
A   12
 C9 
A   13
 C10
A   14
 C11
A   15
 H1 
A   16
 H2 
A   17
 H3 
A   18
 H4 
A   19
 H5 
A   20
 H6 
A   21
 H7 
A   22
 H8 
A   23
 H9 
A   24
 H10
A   25
 H11
M  END
>  <ref_pdb>  (49) 
x0554_0A

>  <ref_mols>  (49) 
x0451_0A,x0451_0A

>  <original SMILES>  (49) 
COC(=O)c1cn(C)c2ccccc12

>  <rationale>  (49) 
info cluster #4 (rank 5); saltbridge:H21; 

>  <cluster_rank>  (49) 
5

>  <N_interactions>  (49) 
1

>  <N_interactions_lost>  (49) 
0

>  <∆∆G>  (49) 
-7.470545

>  <comRMSD>  (49) 
0.363556

>  <N_rotatable_bonds>  (49) 
3

>  <N_unconstrained_atoms>  (49) 
0

>  <N_constrained_atoms>  (49) 
14

$$$$
Z3522605065
     RDKit          3D

 29 29  0  0  0  0  0  0  0  0999 V2000
   10.5980    9.7160   22.8480 C   0  0  0  0  0  0  0  0  0  0  0  0
    9.5440   10.5150   23.5550 C   0  0  0  0  0  0  0  0  0  0  0  0
    9.6360   11.9630   23.5590 C   0  0  0  0  0  0  0  0  0  0  0  0
    8.6400   12.6810   24.2040 C   0  0  0  0  0  0  0  0  0  0  0  0
    8.7030   14.0670   24.1770 C   0  0  0  0  0  0  0  0  0  0  0  0
    8.7050   14.5920   22.9140 N   0  0  0  0  0  0  0  0  0  0  0  0
    9.8800   15.0910   22.4570 C   0  0  0  0  0  0  0  0  0  0  0  0
   10.8090   15.2790   23.2370 O   0  0  0  0  0  0  0  0  0  0  0  0
    9.9970   15.4390   20.9630 C   0  0  2  0  0  0  0  0  0  0  0  0
   11.1850   14.7390   20.2960 C   0  0  0  0  0  0  0  0  0  0  0  0
   10.1170   16.8810   20.7290 N   0  0  0  0  0  0  0  0  0  0  0  0
    7.6210   11.9450   24.8320 C   0  0  0  0  0  0  0  0  0  0  0  0
    7.5400   10.5760   24.8310 N   0  0  0  0  0  0  0  0  0  0  0  0
    8.5290    9.9260   24.1620 C   0  0  0  0  0  0  0  0  0  0  0  0
    8.6880    8.0760   23.9180 Br  0  0  0  0  0  0  0  0  0  0  0  0
   10.1530    9.0930   22.0700 H   0  0  0  0  0  0  0  0  0  0  0  0
   11.2880   10.4050   22.3940 H   0  0  0  0  0  0  0  0  0  0  0  0
   11.1220    9.0810   23.5660 H   0  0  0  0  0  0  0  0  0  0  0  0
   10.4940   12.3700   23.0320 H   0  0  0  0  0  0  0  0  0  0  0  0
    7.8580   14.5560   24.6600 H   0  0  0  0  0  0  0  0  0  0  0  0
    9.5410   14.4800   24.7360 H   0  0  0  0  0  0  0  0  0  0  0  0
    8.1240   14.1230   22.2050 H   0  0  0  0  0  0  0  0  0  0  0  0
    9.0790   15.0930   20.4780 H   0  0  0  0  0  0  0  0  0  0  0  0
   11.9330   15.4660   19.9550 H   0  0  0  0  0  0  0  0  0  0  0  0
   11.6770   14.0590   20.9990 H   0  0  0  0  0  0  0  0  0  0  0  0
   10.8720   14.1420   19.4290 H   0  0  0  0  0  0  0  0  0  0  0  0
   10.3690   17.3730   21.5920 H   0  0  0  0  0  0  0  0  0  0  0  0
    9.2320   17.2250   20.3670 H   0  0  0  0  0  0  0  0  0  0  0  0
    6.8110   12.4360   25.3610 H   0  0  0  0  0  0  0  0  0  0  0  0
  1  2  1  0
  2  3  2  0
  3  4  1  0
  4  5  1  0
  5  6  1  0
  6  7  1  0
  7  8  2  0
  7  9  1  0
  9 10  1  0
  9 11  1  0
  4 12  2  0
 12 13  1  0
 13 14  2  0
 14 15  1  0
 14  2  1  0
  1 16  1  0
  1 17  1  0
  1 18  1  0
  3 19  1  0
  5 20  1  0
  5 21  1  0
  6 22  1  0
  9 23  1  6
 10 24  1  0
 10 25  1  0
 10 26  1  0
 11 27  1  0
 11 28  1  0
 12 29  1  0
A    1
 C1 
A    2
 C2 
A    3
 C3 
A    4
 C4 
A    5
 C5 
A    6
 N1 
A    7
 C6 
A    8
 O1 
A    9
 C7 
A   10
 C8 
A   11
 N2 
A   12
 C9 
A   13
 N3 
A   14
 C10
A   15
BR1 
A   16
 H1 
A   17
 H2 
A   18
 H3 
A   19
 H4 
A   20
 H5 
A   21
 H6 
A   22
 H7 
A   23
 H8 
A   24
 H9 
A   25
 H10
A   26
 H11
A   27
 H12
A   28
 H13
A   29
 H14
M  END
>  <ref_pdb>  (50) 
x0554_0A

>  <ref_mols>  (50) 
x0416_0A

>  <original SMILES>  (50) 
Cc1cc(CNC(=O)[C@H](C)N)cnc1Br

>  <rationale>  (50) 
info cluster #9 (rank 5); hbond:S87+T126; hydroph_interaction:A110+V124; 

>  <cluster_rank>  (50) 
5

>  <N_interactions>  (50) 
5

>  <N_interactions_lost>  (50) 
1

>  <∆∆G>  (50) 
-6.300643

>  <comRMSD>  (50) 
0.604166

>  <N_rotatable_bonds>  (50) 
6

>  <N_unconstrained_atoms>  (50) 
3

>  <N_constrained_atoms>  (50) 
12

$$$$
Z2824629131
     RDKit          3D

 30 30  0  0  0  0  0  0  0  0999 V2000
    8.7570    7.6340   23.3720 C   0  0  0  0  0  0  0  0  0  0  0  0
    8.8220    9.0890   23.7960 C   0  0  0  0  0  0  0  0  0  0  0  0
    9.9140    9.9300   23.0910 C   0  0  0  0  0  0  0  0  0  0  0  0
    9.9490   11.3990   23.5330 C   0  0  0  0  0  0  0  0  0  0  0  0
   10.8680   12.3260   22.9990 N   0  0  0  0  0  0  0  0  0  0  0  0
   11.1500   13.6050   23.4450 C   0  0  0  0  0  0  0  0  0  0  0  0
   11.1900   13.9750   24.6100 O   0  0  0  0  0  0  0  0  0  0  0  0
   11.4030   14.5190   22.2880 C   0  0  0  0  0  0  0  0  0  0  0  0
   10.6410   14.5130   21.1060 C   0  0  2  0  0  0  0  0  0  0  0  0
   11.2020   14.8790   19.8790 C   0  0  0  0  0  0  0  0  0  0  0  0
    9.3960   15.2750   21.2700 N   0  0  0  0  0  0  0  0  0  0  0  0
    9.0350   11.8520   24.4970 C   0  0  0  0  0  0  0  0  0  0  0  0
    8.0830   11.0160   25.0810 C   0  0  0  0  0  0  0  0  0  0  0  0
    7.9790    9.6650   24.7480 C   0  0  0  0  0  0  0  0  0  0  0  0
    8.5090    7.0050   24.2320 H   0  0  0  0  0  0  0  0  0  0  0  0
    9.7190    7.3080   22.9950 H   0  0  0  0  0  0  0  0  0  0  0  0
    8.0010    7.4510   22.6050 H   0  0  0  0  0  0  0  0  0  0  0  0
   10.5810    9.4900   22.3530 H   0  0  0  0  0  0  0  0  0  0  0  0
   11.1810   12.1020   22.0450 H   0  0  0  0  0  0  0  0  0  0  0  0
   12.4420   14.3260   21.9920 H   0  0  0  0  0  0  0  0  0  0  0  0
   11.3910   15.5380   22.6950 H   0  0  0  0  0  0  0  0  0  0  0  0
   10.3320   13.4960   20.9640 H   0  0  0  0  0  0  0  0  0  0  0  0
   10.5230   15.5180   19.3050 H   0  0  0  0  0  0  0  0  0  0  0  0
   11.4400   14.0000   19.2660 H   0  0  0  0  0  0  0  0  0  0  0  0
   12.1310   15.4350   20.0360 H   0  0  0  0  0  0  0  0  0  0  0  0
    9.3410   15.6770   22.2030 H   0  0  0  0  0  0  0  0  0  0  0  0
    9.4260   16.0690   20.6220 H   0  0  0  0  0  0  0  0  0  0  0  0
    9.0490   12.8890   24.8090 H   0  0  0  0  0  0  0  0  0  0  0  0
    7.4020   11.4240   25.8240 H   0  0  0  0  0  0  0  0  0  0  0  0
    7.2200    9.0810   25.2430 H   0  0  0  0  0  0  0  0  0  0  0  0
  1  2  1  0
  2  3  2  0
  3  4  1  0
  4  5  1  0
  5  6  1  0
  6  7  2  0
  6  8  1  0
  8  9  1  0
  9 10  1  0
  9 11  1  0
  4 12  2  0
 12 13  1  0
 13 14  2  0
 14  2  1  0
  1 15  1  0
  1 16  1  0
  1 17  1  0
  3 18  1  0
  5 19  1  0
  8 20  1  0
  8 21  1  0
  9 22  1  6
 10 23  1  0
 10 24  1  0
 10 25  1  0
 11 26  1  0
 11 27  1  0
 12 28  1  0
 13 29  1  0
 14 30  1  0
A    1
 C1 
A    2
 C2 
A    3
 C3 
A    4
 C4 
A    5
 N1 
A    6
 C5 
A    7
 O1 
A    8
 C6 
A    9
 C7 
A   10
 C8 
A   11
 N2 
A   12
 C9 
A   13
 C10
A   14
 C11
A   15
 H1 
A   16
 H2 
A   17
 H3 
A   18
 H4 
A   19
 H5 
A   20
 H6 
A   21
 H7 
A   22
 H8 
A   23
 H9 
A   24
 H10
A   25
 H11
A   26
 H12
A   27
 H13
A   28
 H14
A   29
 H15
A   30
 H16
M  END
>  <ref_pdb>  (51) 
x0554_0A

>  <ref_mols>  (51) 
x0554_0A

>  <original SMILES>  (51) 
Cc1cccc(NC(=O)C[C@H](C)N)c1

>  <rationale>  (51) 
info cluster #8 (rank 6); hbond:S125+T126; hydroph_interaction:Y90+D109+V124; 

>  <cluster_rank>  (51) 
6

>  <N_interactions>  (51) 
5

>  <N_interactions_lost>  (51) 
1

>  <∆∆G>  (51) 
-9.816247

>  <comRMSD>  (51) 
0.588284

>  <N_rotatable_bonds>  (51) 
6

>  <N_unconstrained_atoms>  (51) 
1

>  <N_constrained_atoms>  (51) 
14

$$$$
Z3234957804
     RDKit          3D

 27 28  0  0  0  0  0  0  0  0999 V2000
   11.7880   14.1670   22.5180 C   0  0  0  0  0  0  0  0  0  0  0  0
   11.0130   13.3900   23.5550 C   0  0  0  0  0  0  0  0  0  0  0  0
   10.9040   13.7850   24.7070 O   0  0  0  0  0  0  0  0  0  0  0  0
   10.4640   12.2170   23.0840 N   0  0  0  0  0  0  0  0  0  0  0  0
    9.5070   11.3670   23.8180 C   0  0  0  0  0  0  0  0  0  0  0  0
    9.6170    9.8650   23.5120 C   0  0  0  0  0  0  0  0  0  0  0  0
   10.6180    9.4010   22.5410 C   0  0  0  0  0  0  0  0  0  0  0  0
    8.8190    8.9270   24.1000 C   0  0  0  0  0  0  0  0  0  0  0  0
    7.7930    9.4030   25.0840 C   0  0  0  0  0  0  0  0  0  0  0  0
    7.7090   10.8140   25.3350 C   0  0  0  0  0  0  0  0  0  0  0  0
    6.6680   10.9670   26.2710 N   0  0  0  0  0  0  0  0  0  0  0  0
    6.3950   12.2370   26.6640 C   0  0  0  0  0  0  0  0  0  0  0  0
    7.1460   13.2950   26.1370 C   0  0  0  0  0  0  0  0  0  0  0  0
    8.1800   13.0780   25.2030 C   0  0  0  0  0  0  0  0  0  0  0  0
    8.5060   11.8010   24.7570 C   0  0  0  0  0  0  0  0  0  0  0  0
   11.3920   15.1760   22.3890 H   0  0  0  0  0  0  0  0  0  0  0  0
   12.8310   14.2270   22.8250 H   0  0  0  0  0  0  0  0  0  0  0  0
   11.7160   13.6480   21.5560 H   0  0  0  0  0  0  0  0  0  0  0  0
   10.7470   11.9200   22.1450 H   0  0  0  0  0  0  0  0  0  0  0  0
   11.2080    8.5990   22.9590 H   0  0  0  0  0  0  0  0  0  0  0  0
   11.2830   10.1420   22.1680 H   0  0  0  0  0  0  0  0  0  0  0  0
   10.0870    9.0280   21.6680 H   0  0  0  0  0  0  0  0  0  0  0  0
    8.9120    7.8630   23.8730 H   0  0  0  0  0  0  0  0  0  0  0  0
    7.0880    8.8100   25.6440 H   0  0  0  0  0  0  0  0  0  0  0  0
    5.5870   12.3750   27.3880 H   0  0  0  0  0  0  0  0  0  0  0  0
    6.9220   14.3140   26.4610 H   0  0  0  0  0  0  0  0  0  0  0  0
    8.7110   13.9530   24.8450 H   0  0  0  0  0  0  0  0  0  0  0  0
  1  2  1  0
  2  3  2  0
  2  4  1  0
  4  5  1  0
  5  6  2  0
  6  7  1  0
  6  8  1  0
  8  9  2  0
  9 10  1  0
 10 11  2  0
 11 12  1  0
 12 13  2  0
 13 14  1  0
 14 15  2  0
 15  5  1  0
 15 10  1  0
  1 16  1  0
  1 17  1  0
  1 18  1  0
  4 19  1  0
  7 20  1  0
  7 21  1  0
  7 22  1  0
  8 23  1  0
  9 24  1  0
 12 25  1  0
 13 26  1  0
 14 27  1  0
A    1
 C1 
A    2
 C2 
A    3
 O1 
A    4
 N1 
A    5
 C3 
A    6
 C4 
A    7
 C5 
A    8
 C6 
A    9
 C7 
A   10
 C8 
A   11
 N2 
A   12
 C9 
A   13
 C10
A   14
 C11
A   15
 C12
A   16
 H1 
A   17
 H2 
A   18
 H3 
A   19
 H4 
A   20
 H5 
A   21
 H6 
A   22
 H7 
A   23
 H8 
A   24
 H9 
A   25
 H10
A   26
 H11
A   27
 H12
M  END
>  <ref_pdb>  (52) 
x0554_0A

>  <ref_mols>  (52) 
x0554_0A,x0451_0A

>  <original SMILES>  (52) 
CC(=O)Nc1c(C)ccc2ncccc12

>  <rationale>  (52) 
info cluster #5 (rank 6); hbond:S125; hydroph_interaction:Y89+A110+V124; 

>  <cluster_rank>  (52) 
6

>  <N_interactions>  (52) 
4

>  <N_interactions_lost>  (52) 
1

>  <∆∆G>  (52) 
-7.562921

>  <comRMSD>  (52) 
0.87446

>  <N_rotatable_bonds>  (52) 
3

>  <N_unconstrained_atoms>  (52) 
1

>  <N_constrained_atoms>  (52) 
15

$$$$
Z1728705763
     RDKit          3D

 25 26  0  0  0  0  0  0  0  0999 V2000
   12.1170   15.0650   21.5710 C   0  0  0  0  0  0  0  0  0  0  0  0
   11.1780   13.9960   21.8600 N   0  0  0  0  0  0  0  0  0  0  0  0
   10.8900   13.5650   23.1430 C   0  0  0  0  0  0  0  0  0  0  0  0
   10.7020   14.5660   24.4660 S   0  0  0  0  0  0  0  0  0  0  0  0
   10.8110   12.1890   23.0700 N   0  0  0  0  0  0  0  0  0  0  0  0
    9.8870   11.2710   23.6660 C   0  0  0  0  0  0  0  0  0  0  0  0
    9.9620    9.8910   23.4530 C   0  0  0  0  0  0  0  0  0  0  0  0
    8.9840    9.0130   24.0990 C   0  0  0  0  0  0  0  0  0  0  0  0
    7.9900    9.5280   24.9180 C   0  0  0  0  0  0  0  0  0  0  0  0
    7.9150   10.8990   25.1230 C   0  0  0  0  0  0  0  0  0  0  0  0
    8.8430   11.7440   24.5090 C   0  0  0  0  0  0  0  0  0  0  0  0
    8.4980   13.0220   24.9080 N   0  0  0  0  0  0  0  0  0  0  0  0
    7.4050   12.9990   25.7380 C   0  0  0  0  0  0  0  0  0  0  0  0
    7.0250   11.6910   25.8870 C   0  0  0  0  0  0  0  0  0  0  0  0
   11.6650   16.0390   21.7940 H   0  0  0  0  0  0  0  0  0  0  0  0
   12.3850   15.0320   20.5080 H   0  0  0  0  0  0  0  0  0  0  0  0
   13.0200   14.9620   22.1700 H   0  0  0  0  0  0  0  0  0  0  0  0
   11.2400   13.2090   21.2110 H   0  0  0  0  0  0  0  0  0  0  0  0
   11.1580   11.8770   22.1640 H   0  0  0  0  0  0  0  0  0  0  0  0
   10.7240    9.4420   22.8210 H   0  0  0  0  0  0  0  0  0  0  0  0
    9.1100    7.9470   23.8840 H   0  0  0  0  0  0  0  0  0  0  0  0
    7.2770    8.8880   25.4000 H   0  0  0  0  0  0  0  0  0  0  0  0
    8.9780   13.8610   24.6310 H   0  0  0  0  0  0  0  0  0  0  0  0
    6.9960   13.9120   26.1460 H   0  0  0  0  0  0  0  0  0  0  0  0
    6.1930   11.3350   26.4800 H   0  0  0  0  0  0  0  0  0  0  0  0
  1  2  1  0
  2  3  1  0
  3  4  2  0
  3  5  1  0
  5  6  1  0
  6  7  2  0
  7  8  1  0
  8  9  2  0
  9 10  1  0
 10 11  2  0
 11 12  1  0
 12 13  1  0
 13 14  2  0
 11  6  1  0
 14 10  1  0
  1 15  1  0
  1 16  1  0
  1 17  1  0
  2 18  1  0
  5 19  1  0
  7 20  1  0
  8 21  1  0
  9 22  1  0
 12 23  1  0
 13 24  1  0
 14 25  1  0
A    1
 C1 
A    2
 N1 
A    3
 C2 
A    4
 S1 
A    5
 N2 
A    6
 C3 
A    7
 C4 
A    8
 C5 
A    9
 C6 
A   10
 C7 
A   11
 C8 
A   12
 N3 
A   13
 C9 
A   14
 C10
A   15
 H1 
A   16
 H2 
A   17
 H3 
A   18
 H4 
A   19
 H5 
A   20
 H6 
A   21
 H7 
A   22
 H8 
A   23
 H9 
A   24
 H10
A   25
 H11
M  END
>  <ref_pdb>  (53) 
x0554_0A

>  <ref_mols>  (53) 
x0554_0A,x0451_0A

>  <original SMILES>  (53) 
CNC(=S)Nc1cccc2cc[nH]c12

>  <rationale>  (53) 
info cluster #0 (rank 6); hbond:S125; 

>  <cluster_rank>  (53) 
6

>  <N_interactions>  (53) 
2

>  <N_interactions_lost>  (53) 
1

>  <∆∆G>  (53) 
-7.808783

>  <comRMSD>  (53) 
0.670162

>  <N_rotatable_bonds>  (53) 
2

>  <N_unconstrained_atoms>  (53) 
0

>  <N_constrained_atoms>  (53) 
15

$$$$
Z5480246511
     RDKit          3D

 34 34  0  0  0  0  0  0  0  0999 V2000
    9.4270   17.2410   20.5720 C   0  0  0  0  0  0  0  0  0  0  0  0
    9.0070   15.8280   20.6830 C   0  0  0  0  0  0  0  0  0  0  0  0
    9.8200   15.1020   21.6140 N   0  0  0  0  0  0  0  0  0  0  0  0
    9.2380   14.2370   22.5090 C   0  0  0  0  0  0  0  0  0  0  0  0
    8.0440   14.0360   22.5840 O   0  0  0  0  0  0  0  0  0  0  0  0
   10.1580   13.5790   23.3330 C   0  0  0  0  0  0  0  0  0  0  0  0
   11.5520   13.2930   22.8660 C   0  0  0  0  0  0  0  0  0  0  0  0
    9.5660   12.2710   23.8330 C   0  0  0  0  0  0  0  0  0  0  0  0
   10.0780   10.9470   23.2790 C   0  0  0  0  0  0  0  0  0  0  0  0
    9.4450    9.7120   23.8210 C   0  0  0  0  0  0  0  0  0  0  0  0
    9.8920    8.4110   23.2950 C   0  0  0  0  0  0  0  0  0  0  0  0
    8.4690    9.8400   24.7800 C   0  0  0  0  0  0  0  0  0  0  0  0
    7.9990   11.0360   25.2690 C   0  0  0  0  0  0  0  0  0  0  0  0
    6.8990   10.9850   26.2960 C   0  0  0  0  0  0  0  0  0  0  0  0
    8.5390   12.2480   24.8040 C   0  0  0  0  0  0  0  0  0  0  0  0
    8.6980   17.9030   21.0520 H   0  0  0  0  0  0  0  0  0  0  0  0
   10.3890   17.3840   21.0590 H   0  0  0  0  0  0  0  0  0  0  0  0
    9.5310   17.5390   19.5230 H   0  0  0  0  0  0  0  0  0  0  0  0
    7.9620   15.7650   20.9990 H   0  0  0  0  0  0  0  0  0  0  0  0
    9.1050   15.3250   19.7160 H   0  0  0  0  0  0  0  0  0  0  0  0
   10.7810   14.9070   21.3510 H   0  0  0  0  0  0  0  0  0  0  0  0
   10.2820   14.1820   24.2430 H   0  0  0  0  0  0  0  0  0  0  0  0
   11.6760   13.5460   21.8060 H   0  0  0  0  0  0  0  0  0  0  0  0
   12.3120   13.8550   23.4180 H   0  0  0  0  0  0  0  0  0  0  0  0
   11.8210   12.2380   22.9850 H   0  0  0  0  0  0  0  0  0  0  0  0
   10.8620   10.9500   22.5270 H   0  0  0  0  0  0  0  0  0  0  0  0
    9.2250    7.6260   23.6680 H   0  0  0  0  0  0  0  0  0  0  0  0
   10.9070    8.1060   23.4830 H   0  0  0  0  0  0  0  0  0  0  0  0
    9.7640    8.4580   22.2100 H   0  0  0  0  0  0  0  0  0  0  0  0
    7.9800    8.9960   25.2370 H   0  0  0  0  0  0  0  0  0  0  0  0
    7.1410   11.6520   27.1290 H   0  0  0  0  0  0  0  0  0  0  0  0
    5.9770   11.4000   25.8830 H   0  0  0  0  0  0  0  0  0  0  0  0
    6.6470   10.0070   26.7210 H   0  0  0  0  0  0  0  0  0  0  0  0
    8.1550   13.1820   25.2070 H   0  0  0  0  0  0  0  0  0  0  0  0
  1  2  1  0
  2  3  1  0
  3  4  1  0
  4  5  2  0
  4  6  1  0
  6  7  1  0
  6  8  1  0
  8  9  2  0
  9 10  1  0
 10 11  1  0
 10 12  2  0
 12 13  1  0
 13 14  1  0
 13 15  2  0
 15  8  1  0
  1 16  1  0
  1 17  1  0
  1 18  1  0
  2 19  1  0
  2 20  1  0
  3 21  1  0
  6 22  1  0
  7 23  1  0
  7 24  1  0
  7 25  1  0
  9 26  1  0
 11 27  1  0
 11 28  1  0
 11 29  1  0
 12 30  1  0
 14 31  1  0
 14 32  1  0
 14 33  1  0
 15 34  1  0
A    1
 C1 
A    2
 C2 
A    3
 N1 
A    4
 C3 
A    5
 O1 
A    6
 C4 
A    7
 C5 
A    8
 C6 
A    9
 C7 
A   10
 C8 
A   11
 C9 
A   12
 C10
A   13
 C11
A   14
 C12
A   15
 C13
A   16
 H1 
A   17
 H2 
A   18
 H3 
A   19
 H4 
A   20
 H5 
A   21
 H6 
A   22
 H7 
A   23
 H8 
A   24
 H9 
A   25
 H10
A   26
 H11
A   27
 H12
A   28
 H13
A   29
 H14
A   30
 H15
A   31
 H16
A   32
 H17
A   33
 H18
A   34
 H19
M  END
>  <ref_pdb>  (54) 
x0554_0A

>  <ref_mols>  (54) 
x0566_0A,x0310_0A

>  <original SMILES>  (54) 
CCNC(=O)C(C)c1cc(C)cc(C)c1

>  <rationale>  (54) 
info cluster #7 (rank 6); hbond:S87+G127; hydroph_interaction:Y90+D109+V124+V84; 

>  <cluster_rank>  (54) 
6

>  <N_interactions>  (54) 
6

>  <N_interactions_lost>  (54) 
2

>  <∆∆G>  (54) 
-9.574342

>  <comRMSD>  (54) 
0.884588

>  <N_rotatable_bonds>  (54) 
7

>  <N_unconstrained_atoms>  (54) 
4

>  <N_constrained_atoms>  (54) 
16

$$$$
PV_007034081845
     RDKit          3D

 37 39  0  0  0  0  0  0  0  0999 V2000
    9.4930    8.5210   23.3800 C   0  0  0  0  0  0  0  0  0  0  0  0
    9.4300    9.9180   23.7190 N   0  0  0  0  0  0  0  0  0  0  0  0
   10.2510   10.8750   23.2540 C   0  0  0  0  0  0  0  0  0  0  0  0
    9.8580   12.1880   23.8370 C   0  0  0  0  0  0  0  0  0  0  0  0
   10.4010   13.4610   23.6650 C   0  0  0  0  0  0  0  0  0  0  0  0
   11.3700   13.5500   22.5860 N   0  0  0  0  0  0  0  0  0  0  0  0
   11.3250   14.9470   22.1790 C   0  0  0  0  0  0  0  0  0  0  0  0
   12.1090   15.5190   21.1380 C   0  0  0  0  0  0  0  0  0  0  0  0
   10.7400   15.4140   20.6880 C   0  0  0  0  0  0  0  0  0  0  0  0
   10.8310   14.6040   19.4040 C   0  0  0  0  0  0  0  0  0  0  0  0
    9.8230   16.6060   20.6330 C   0  0  0  0  0  0  0  0  0  0  0  0
    8.7360   11.8940   24.6780 C   0  0  0  0  0  0  0  0  0  0  0  0
    7.9200   12.9220   25.5400 C   0  0  0  0  0  0  0  0  0  0  0  0
    6.7220   12.3460   26.3930 C   0  0  0  0  0  0  0  0  0  0  0  0
    6.5640   10.8170   26.2280 C   0  0  0  0  0  0  0  0  0  0  0  0
    7.4180    9.9370   25.3700 C   0  0  0  0  0  0  0  0  0  0  0  0
    8.5240   10.5130   24.5770 C   0  0  0  0  0  0  0  0  0  0  0  0
   10.5400    8.2060   23.3770 H   0  0  0  0  0  0  0  0  0  0  0  0
    8.9420    7.9200   24.1160 H   0  0  0  0  0  0  0  0  0  0  0  0
    9.0720    8.3480   22.3930 H   0  0  0  0  0  0  0  0  0  0  0  0
   11.0970   10.8330   22.5660 H   0  0  0  0  0  0  0  0  0  0  0  0
    9.5830   14.1630   23.4690 H   0  0  0  0  0  0  0  0  0  0  0  0
   10.8660   13.7800   24.6060 H   0  0  0  0  0  0  0  0  0  0  0  0
   11.1520   12.8830   21.8300 H   0  0  0  0  0  0  0  0  0  0  0  0
   11.0750   15.6140   23.0060 H   0  0  0  0  0  0  0  0  0  0  0  0
   12.8260   14.8750   20.6590 H   0  0  0  0  0  0  0  0  0  0  0  0
   12.5130   16.4940   21.3160 H   0  0  0  0  0  0  0  0  0  0  0  0
   10.5730   13.5940   19.6780 H   0  0  0  0  0  0  0  0  0  0  0  0
   10.0390   14.9210   18.7190 H   0  0  0  0  0  0  0  0  0  0  0  0
   11.7120   14.5010   18.7830 H   0  0  0  0  0  0  0  0  0  0  0  0
    9.4650   16.7480   19.6070 H   0  0  0  0  0  0  0  0  0  0  0  0
   10.3310   17.5230   20.9100 H   0  0  0  0  0  0  0  0  0  0  0  0
    8.9680   16.4540   21.2980 H   0  0  0  0  0  0  0  0  0  0  0  0
    8.1520   13.9910   25.5620 H   0  0  0  0  0  0  0  0  0  0  0  0
    6.0850   12.9540   27.0270 H   0  0  0  0  0  0  0  0  0  0  0  0
    5.7650   10.3310   26.7870 H   0  0  0  0  0  0  0  0  0  0  0  0
    7.2190    8.8950   25.3440 H   0  0  0  0  0  0  0  0  0  0  0  0
  1  2  1  0
  2  3  1  0
  3  4  2  0
  4  5  1  0
  5  6  1  0
  6  7  1  0
  7  8  1  0
  8  9  1  0
  9 10  1  0
  9 11  1  0
  4 12  1  0
 12 13  2  0
 13 14  1  0
 14 15  2  0
 15 16  1  0
 16 17  2  0
 17  2  1  0
  9  7  1  0
 17 12  1  0
  1 18  1  0
  1 19  1  0
  1 20  1  0
  3 21  1  0
  5 22  1  0
  5 23  1  0
  6 24  1  0
  7 25  1  0
  8 26  1  0
  8 27  1  0
 10 28  1  0
 10 29  1  0
 10 30  1  0
 11 31  1  0
 11 32  1  0
 11 33  1  0
 13 34  1  0
 14 35  1  0
 15 36  1  0
 16 37  1  0
A    1
 C1 
A    2
 N1 
A    3
 C2 
A    4
 C3 
A    5
 C4 
A    6
 N2 
A    7
 C5 
A    8
 C6 
A    9
 C7 
A   10
 C8 
A   11
 C9 
A   12
 C10
A   13
 C11
A   14
 C12
A   15
 C13
A   16
 C14
A   17
 C15
A   18
 H1 
A   19
 H2 
A   20
 H3 
A   21
 H4 
A   22
 H5 
A   23
 H6 
A   24
 H7 
A   25
 H8 
A   26
 H9 
A   27
 H10
A   28
 H11
A   29
 H12
A   30
 H13
A   31
 H14
A   32
 H15
A   33
 H16
A   34
 H17
A   35
 H18
A   36
 H19
A   37
 H20
M  END
>  <ref_pdb>  (55) 
x0554_0A

>  <ref_mols>  (55) 
x0451_0A

>  <original SMILES>  (55) 
Cn1cc(CNC2CC2(C)C)c2ccccc21

>  <rationale>  (55) 
info cluster #2 (rank 6); hbond:H21; hydroph_interaction:Y90+V84; 

>  <cluster_rank>  (55) 
6

>  <N_interactions>  (55) 
3

>  <N_interactions_lost>  (55) 
0

>  <∆∆G>  (55) 
-9.852814

>  <comRMSD>  (55) 
0.645424

>  <N_rotatable_bonds>  (55) 
6

>  <N_unconstrained_atoms>  (55) 
1

>  <N_constrained_atoms>  (55) 
18

$$$$
Z2068571135
     RDKit          3D

 23 24  0  0  0  0  0  0  0  0999 V2000
   12.1570   14.8920   21.7080 C   0  0  0  0  0  0  0  0  0  0  0  0
   11.5870   13.6340   22.1290 N   0  0  0  0  0  0  0  0  0  0  0  0
   10.1810   13.7490   23.0660 S   0  0  0  0  0  6  0  0  0  0  0  0
   10.4820   14.4850   24.2690 O   0  0  0  0  0  0  0  0  0  0  0  0
    9.0950   14.1140   22.1740 O   0  0  0  0  0  0  0  0  0  0  0  0
    9.7580   12.1680   23.6280 C   0  0  0  0  0  0  0  0  0  0  0  0
   10.3930   10.9870   23.2610 C   0  0  0  0  0  0  0  0  0  0  0  0
    9.7590    9.5840   23.9580 S   0  0  0  0  0  0  0  0  0  0  0  0
    8.5920   10.5420   24.8030 C   0  0  0  0  0  0  0  0  0  0  0  0
    7.5510   10.0880   25.7250 C   0  0  0  0  0  0  0  0  0  0  0  0
    6.5750   11.0390   26.4070 C   0  0  0  0  0  0  0  0  0  0  0  0
    6.7610   12.3610   26.0830 C   0  0  0  0  0  0  0  0  0  0  0  0
    7.7730   12.7780   25.1880 C   0  0  0  0  0  0  0  0  0  0  0  0
    8.6900   11.9110   24.5450 C   0  0  0  0  0  0  0  0  0  0  0  0
   11.4670   15.7090   21.9410 H   0  0  0  0  0  0  0  0  0  0  0  0
   13.1080   15.0830   22.2130 H   0  0  0  0  0  0  0  0  0  0  0  0
   12.3290   14.8700   20.6250 H   0  0  0  0  0  0  0  0  0  0  0  0
   11.4890   12.8790   21.4490 H   0  0  0  0  0  0  0  0  0  0  0  0
   11.2250   11.0780   22.5650 H   0  0  0  0  0  0  0  0  0  0  0  0
    7.4790    9.0230   25.9300 H   0  0  0  0  0  0  0  0  0  0  0  0
    5.8240   10.6160   27.0850 H   0  0  0  0  0  0  0  0  0  0  0  0
    6.1090   13.1110   26.5220 H   0  0  0  0  0  0  0  0  0  0  0  0
    7.7870   13.8630   25.0360 H   0  0  0  0  0  0  0  0  0  0  0  0
  1  2  1  0
  2  3  1  0
  3  4  2  0
  3  5  2  0
  3  6  1  0
  6  7  2  0
  7  8  1  0
  8  9  1  0
  9 10  2  0
 10 11  1  0
 11 12  2  0
 12 13  1  0
 13 14  2  0
 14  6  1  0
 14  9  1  0
  1 15  1  0
  1 16  1  0
  1 17  1  0
  2 18  1  0
  7 19  1  0
 10 20  1  0
 11 21  1  0
 12 22  1  0
 13 23  1  0
A    1
 C1 
A    2
 N1 
A    3
 S1 
A    4
 O1 
A    5
 O2 
A    6
 C2 
A    7
 C3 
A    8
 S2 
A    9
 C4 
A   10
 C5 
A   11
 C6 
A   12
 C7 
A   13
 C8 
A   14
 C9 
A   15
 H1 
A   16
 H2 
A   17
 H3 
A   18
 H4 
A   19
 H5 
A   20
 H6 
A   21
 H7 
A   22
 H8 
A   23
 H9 
M  END
>  <ref_pdb>  (56) 
x0554_0A

>  <ref_mols>  (56) 
x0451_0A,x0566_0A

>  <original SMILES>  (56) 
CNS(=O)(=O)c1csc2ccccc12

>  <rationale>  (56) 
info cluster #6 (rank 6); hbond:H21; 

>  <cluster_rank>  (56) 
6

>  <N_interactions>  (56) 
1

>  <N_interactions_lost>  (56) 
0

>  <∆∆G>  (56) 
-8.45552

>  <comRMSD>  (56) 
0.930748

>  <N_rotatable_bonds>  (56) 
3

>  <N_unconstrained_atoms>  (56) 
0

>  <N_constrained_atoms>  (56) 
15

$$$$
Z2697249468
     RDKit          3D

 27 28  0  0  0  0  0  0  0  0999 V2000
   11.0730   14.6730   20.3320 C   0  0  0  0  0  0  0  0  0  0  0  0
   10.1990   15.2240   21.4750 C   0  0  0  0  0  0  0  0  0  0  0  0
    9.3590   16.2840   20.9280 C   0  0  0  0  0  0  0  0  0  0  0  0
    9.4260   14.1530   22.1690 N   0  0  0  0  0  0  0  0  0  0  0  0
   10.1630   13.2320   22.9090 C   0  0  0  0  0  0  0  0  0  0  0  0
   11.3720   13.3620   22.9980 O   0  0  0  0  0  0  0  0  0  0  0  0
    9.5580   12.0430   23.6070 C   0  0  0  0  0  0  0  0  0  0  0  0
   10.0910   10.7840   23.3060 C   0  0  0  0  0  0  0  0  0  0  0  0
    9.6270    9.4830   23.9090 C   0  0  0  0  0  0  0  0  0  0  0  0
    8.5060    9.6770   24.9010 C   0  0  0  0  0  0  0  0  0  0  0  0
    7.9930   10.9130   25.1820 C   0  0  0  0  0  0  0  0  0  0  0  0
    8.4840   12.1010   24.5660 C   0  0  0  0  0  0  0  0  0  0  0  0
    7.7930   13.1870   25.0390 N   0  0  0  0  0  0  0  0  0  0  0  0
    6.8300   12.9080   25.9490 C   0  0  0  0  0  0  0  0  0  0  0  0
    6.7050   11.2510   26.2990 S   0  0  0  0  0  0  0  0  0  0  0  0
   10.4570   14.1740   19.5810 H   0  0  0  0  0  0  0  0  0  0  0  0
   11.6070   15.4820   19.8320 H   0  0  0  0  0  0  0  0  0  0  0  0
   11.8200   13.9820   20.7330 H   0  0  0  0  0  0  0  0  0  0  0  0
   10.8890   15.6830   22.1950 H   0  0  0  0  0  0  0  0  0  0  0  0
    9.1850   16.1290   19.8630 H   0  0  0  0  0  0  0  0  0  0  0  0
    8.3870   16.3300   21.4320 H   0  0  0  0  0  0  0  0  0  0  0  0
    9.8390   17.2630   21.0310 H   0  0  0  0  0  0  0  0  0  0  0  0
    8.5940   13.7990   21.7030 H   0  0  0  0  0  0  0  0  0  0  0  0
   10.9060   10.7420   22.5790 H   0  0  0  0  0  0  0  0  0  0  0  0
   10.1120    8.5520   23.6040 H   0  0  0  0  0  0  0  0  0  0  0  0
    8.1030    8.8020   25.4030 H   0  0  0  0  0  0  0  0  0  0  0  0
    6.2020   13.6550   26.4110 H   0  0  0  0  0  0  0  0  0  0  0  0
  1  2  1  0
  2  3  1  0
  2  4  1  0
  4  5  1  0
  5  6  2  0
  5  7  1  0
  7  8  2  0
  8  9  1  0
  9 10  2  0
 10 11  1  0
 11 12  2  0
 12 13  1  0
 13 14  2  0
 14 15  1  0
 12  7  1  0
 15 11  1  0
  1 16  1  0
  1 17  1  0
  1 18  1  0
  2 19  1  0
  3 20  1  0
  3 21  1  0
  3 22  1  0
  4 23  1  0
  8 24  1  0
  9 25  1  0
 10 26  1  0
 14 27  1  0
A    1
 C1 
A    2
 C2 
A    3
 C3 
A    4
 N1 
A    5
 C4 
A    6
 O1 
A    7
 C5 
A    8
 C6 
A    9
 C7 
A   10
 C8 
A   11
 C9 
A   12
 C10
A   13
 N2 
A   14
 C11
A   15
 S1 
A   16
 H1 
A   17
 H2 
A   18
 H3 
A   19
 H4 
A   20
 H5 
A   21
 H6 
A   22
 H7 
A   23
 H8 
A   24
 H9 
A   25
 H10
A   26
 H11
A   27
 H12
M  END
>  <ref_pdb>  (57) 
x0554_0A

>  <ref_mols>  (57) 
x0566_0A

>  <original SMILES>  (57) 
CC(C)NC(=O)c1cccc2scnc12

>  <rationale>  (57) 
info cluster #1 (rank 6); hbond:T126; hydroph_interaction:V84; 

>  <cluster_rank>  (57) 
6

>  <N_interactions>  (57) 
2

>  <N_interactions_lost>  (57) 
0

>  <∆∆G>  (57) 
-7.343775

>  <comRMSD>  (57) 
0.571319

>  <N_rotatable_bonds>  (57) 
4

>  <N_unconstrained_atoms>  (57) 
0

>  <N_constrained_atoms>  (57) 
16

$$$$
PV_003676037752
     RDKit          3D

 33 34  0  0  0  0  0  0  0  0999 V2000
   10.7630   14.9190   19.2550 C   0  0  0  0  0  0  0  0  0  0  0  0
   10.6790   15.5500   20.6170 C   0  0  0  0  0  0  0  0  0  0  0  0
   10.2170   16.6830   20.8070 O   0  0  0  0  0  0  0  0  0  0  0  0
   11.1840   14.7520   21.6050 N   0  0  0  0  0  0  0  0  0  0  0  0
   12.4070   15.1740   22.2260 C   0  0  0  0  0  0  0  0  0  0  0  0
   10.1310   14.1360   22.3750 C   0  0  0  0  0  0  0  0  0  0  0  0
    8.9500   14.3780   22.0960 O   0  0  0  0  0  0  0  0  0  0  0  0
   10.5220   13.2920   23.3890 N   0  0  0  0  0  0  0  0  0  0  0  0
    9.8800   12.1030   23.6920 C   0  0  0  0  0  0  0  0  0  0  0  0
   10.1720   10.7080   23.1630 C   0  0  0  0  0  0  0  0  0  0  0  0
    9.2630    9.8810   23.7420 N   0  0  0  0  0  0  0  0  0  0  0  0
    9.1940    8.4630   23.4920 C   0  0  0  0  0  0  0  0  0  0  0  0
    8.4240   10.5750   24.5930 C   0  0  0  0  0  0  0  0  0  0  0  0
    7.2980   10.0900   25.4390 C   0  0  0  0  0  0  0  0  0  0  0  0
    6.5850   10.9110   26.2030 C   0  0  0  0  0  0  0  0  0  0  0  0
    6.8700   12.2650   26.2420 C   0  0  0  0  0  0  0  0  0  0  0  0
    8.0310   12.8120   25.3850 C   0  0  0  0  0  0  0  0  0  0  0  0
    8.7750   11.9400   24.5820 C   0  0  0  0  0  0  0  0  0  0  0  0
   10.8730   13.8400   19.3660 H   0  0  0  0  0  0  0  0  0  0  0  0
   11.6170   15.3010   18.6850 H   0  0  0  0  0  0  0  0  0  0  0  0
    9.8520   15.1450   18.6950 H   0  0  0  0  0  0  0  0  0  0  0  0
   12.7350   14.4910   23.0130 H   0  0  0  0  0  0  0  0  0  0  0  0
   12.1630   16.1380   22.6670 H   0  0  0  0  0  0  0  0  0  0  0  0
   13.1990   15.3150   21.4810 H   0  0  0  0  0  0  0  0  0  0  0  0
   11.4990   13.3460   23.6710 H   0  0  0  0  0  0  0  0  0  0  0  0
   10.9180   10.3350   22.4630 H   0  0  0  0  0  0  0  0  0  0  0  0
   10.1770    8.1260   23.1680 H   0  0  0  0  0  0  0  0  0  0  0  0
    8.8970    7.9660   24.4180 H   0  0  0  0  0  0  0  0  0  0  0  0
    8.4670    8.2540   22.7230 H   0  0  0  0  0  0  0  0  0  0  0  0
    7.0450    9.0490   25.4420 H   0  0  0  0  0  0  0  0  0  0  0  0
    5.7710   10.5120   26.8040 H   0  0  0  0  0  0  0  0  0  0  0  0
    6.2880   12.9340   26.8670 H   0  0  0  0  0  0  0  0  0  0  0  0
    8.2650   13.8730   25.4080 H   0  0  0  0  0  0  0  0  0  0  0  0
  1  2  1  0
  2  3  2  0
  2  4  1  0
  4  5  1  0
  4  6  1  0
  6  7  2  0
  6  8  1  0
  8  9  1  0
  9 10  2  0
 10 11  1  0
 11 12  1  0
 11 13  1  0
 13 14  2  0
 14 15  1  0
 15 16  2  0
 16 17  1  0
 17 18  2  0
 18  9  1  0
 18 13  1  0
  1 19  1  0
  1 20  1  0
  1 21  1  0
  5 22  1  0
  5 23  1  0
  5 24  1  0
  8 25  1  0
 10 26  1  0
 12 27  1  0
 12 28  1  0
 12 29  1  0
 14 30  1  0
 15 31  1  0
 16 32  1  0
 17 33  1  0
A    1
 C1 
A    2
 C2 
A    3
 O1 
A    4
 N1 
A    5
 C3 
A    6
 C4 
A    7
 O2 
A    8
 N2 
A    9
 C5 
A   10
 C6 
A   11
 N3 
A   12
 C7 
A   13
 C8 
A   14
 C9 
A   15
 C10
A   16
 C11
A   17
 C12
A   18
 C13
A   19
 H1 
A   20
 H2 
A   21
 H3 
A   22
 H4 
A   23
 H5 
A   24
 H6 
A   25
 H7 
A   26
 H8 
A   27
 H9 
A   28
 H10
A   29
 H11
A   30
 H12
A   31
 H13
A   32
 H14
A   33
 H15
M  END
>  <ref_pdb>  (58) 
x0554_0A

>  <ref_mols>  (58) 
x0451_0A

>  <original SMILES>  (58) 
CC(=O)N(C)C(=O)Nc1cn(C)c2ccccc12

>  <rationale>  (58) 
info cluster #3 (rank 6); hbond:S87; 

>  <cluster_rank>  (58) 
6

>  <N_interactions>  (58) 
1

>  <N_interactions_lost>  (58) 
1

>  <∆∆G>  (58) 
-12.254322

>  <comRMSD>  (58) 
0.665196

>  <N_rotatable_bonds>  (58) 
4

>  <N_unconstrained_atoms>  (58) 
2

>  <N_constrained_atoms>  (58) 
17

$$$$
Z3514568780
     RDKit          3D

 24 24  0  0  0  0  0  0  0  0999 V2000
   11.2340   14.6760   20.0160 C   0  0  0  0  0  0  0  0  0  0  0  0
   10.2320   15.1320   20.9420 O   0  0  0  0  0  0  0  0  0  0  0  0
   10.6430   15.1540   22.2510 C   0  0  0  0  0  0  0  0  0  0  0  0
   11.0760   16.1170   22.8400 O   0  0  0  0  0  0  0  0  0  0  0  0
   10.4700   13.8190   22.8970 C   0  0  0  0  0  0  0  0  0  0  0  0
    9.2220   13.6740   23.5540 O   0  0  0  0  0  0  0  0  0  0  0  0
    8.9270   12.4320   24.0140 C   0  0  0  0  0  0  0  0  0  0  0  0
    9.5970   11.2960   23.5820 C   0  0  0  0  0  0  0  0  0  0  0  0
    9.2610   10.0500   24.0840 C   0  0  0  0  0  0  0  0  0  0  0  0
    9.9350    8.9140   23.6410 C   0  0  0  0  0  0  0  0  0  0  0  0
    8.2430    9.9990   25.0290 C   0  0  0  0  0  0  0  0  0  0  0  0
    7.5590   11.0630   25.4810 N   0  0  0  0  0  0  0  0  0  0  0  0
    7.9130   12.2580   24.9640 C   0  0  0  0  0  0  0  0  0  0  0  0
    6.9850   13.5630   25.6020 Cl  0  0  0  0  0  0  0  0  0  0  0  0
   11.9190   14.0100   20.5360 H   0  0  0  0  0  0  0  0  0  0  0  0
   10.7140   14.2310   19.1740 H   0  0  0  0  0  0  0  0  0  0  0  0
   11.7930   15.5350   19.6320 H   0  0  0  0  0  0  0  0  0  0  0  0
   11.3100   13.6320   23.5760 H   0  0  0  0  0  0  0  0  0  0  0  0
   10.5150   13.0690   22.1070 H   0  0  0  0  0  0  0  0  0  0  0  0
   10.3960   11.3500   22.8490 H   0  0  0  0  0  0  0  0  0  0  0  0
   10.7950    8.7330   24.2920 H   0  0  0  0  0  0  0  0  0  0  0  0
    9.2830    8.0430   23.7530 H   0  0  0  0  0  0  0  0  0  0  0  0
   10.3010    8.9140   22.6170 H   0  0  0  0  0  0  0  0  0  0  0  0
    7.9400    9.0620   25.4720 H   0  0  0  0  0  0  0  0  0  0  0  0
  1  2  1  0
  2  3  1  0
  3  4  2  0
  3  5  1  0
  5  6  1  0
  6  7  1  0
  7  8  2  0
  8  9  1  0
  9 10  1  0
  9 11  2  0
 11 12  1  0
 12 13  2  0
 13 14  1  0
 13  7  1  0
  1 15  1  0
  1 16  1  0
  1 17  1  0
  5 18  1  0
  5 19  1  0
  8 20  1  0
 10 21  1  0
 10 22  1  0
 10 23  1  0
 11 24  1  0
A    1
 C1 
A    2
 O1 
A    3
 C2 
A    4
 O2 
A    5
 C3 
A    6
 O3 
A    7
 C4 
A    8
 C5 
A    9
 C6 
A   10
 C7 
A   11
 C8 
A   12
 N1 
A   13
 C9 
A   14
CL1 
A   15
 H1 
A   16
 H2 
A   17
 H3 
A   18
 H4 
A   19
 H5 
A   20
 H6 
A   21
 H7 
A   22
 H8 
A   23
 H9 
A   24
 H10
M  END
>  <ref_pdb>  (59) 
x0554_0A

>  <ref_mols>  (59) 
x0416_0A

>  <original SMILES>  (59) 
COC(=O)COc1cc(C)cnc1Cl

>  <rationale>  (59) 
info cluster #4 (rank 6); hbond:S87; hydroph_interaction:D109+V124; saltbridge:H21; 

>  <cluster_rank>  (59) 
6

>  <N_interactions>  (59) 
4

>  <N_interactions_lost>  (59) 
1

>  <∆∆G>  (59) 
-7.403406

>  <comRMSD>  (59) 
0.549025

>  <N_rotatable_bonds>  (59) 
5

>  <N_unconstrained_atoms>  (59) 
2

>  <N_constrained_atoms>  (59) 
12

$$$$
Z198194342
     RDKit          3D

 24 24  0  0  0  0  0  0  0  0999 V2000
   11.7640   13.3530   22.9970 C   0  0  0  0  0  0  0  0  0  0  0  0
   10.2630   13.5130   23.1590 C   0  0  0  0  0  0  0  0  0  0  0  0
    9.7890   13.8580   21.9060 N   0  0  0  0  0  0  0  0  0  0  0  0
   10.2500   15.0330   21.1560 C   0  0  0  0  0  0  0  0  0  0  0  0
    9.6810   16.2310   21.5470 N   0  0  0  0  0  0  0  0  0  0  0  0
   11.0530   14.9960   20.2300 O   0  0  0  0  0  0  0  0  0  0  0  0
    9.6630   12.3200   23.7100 C   0  0  0  0  0  0  0  0  0  0  0  0
   10.1890   10.9260   23.3450 C   0  0  0  0  0  0  0  0  0  0  0  0
    9.5780    9.7170   23.9360 C   0  0  0  0  0  0  0  0  0  0  0  0
    8.4320    9.9210   24.9010 C   0  0  0  0  0  0  0  0  0  0  0  0
    8.0040   11.2230   25.1730 C   0  0  0  0  0  0  0  0  0  0  0  0
    8.5790   12.3530   24.6160 C   0  0  0  0  0  0  0  0  0  0  0  0
   12.0520   12.3050   23.1350 H   0  0  0  0  0  0  0  0  0  0  0  0
   12.3080   13.9540   23.7310 H   0  0  0  0  0  0  0  0  0  0  0  0
   12.0930   13.6610   22.0000 H   0  0  0  0  0  0  0  0  0  0  0  0
   10.0530   14.3570   23.8260 H   0  0  0  0  0  0  0  0  0  0  0  0
   10.1540   13.0770   21.3340 H   0  0  0  0  0  0  0  0  0  0  0  0
    9.5990   16.8820   20.7810 H   0  0  0  0  0  0  0  0  0  0  0  0
    8.8450   16.1580   22.1110 H   0  0  0  0  0  0  0  0  0  0  0  0
   11.0250   10.8260   22.6440 H   0  0  0  0  0  0  0  0  0  0  0  0
    9.9470    8.7190   23.6850 H   0  0  0  0  0  0  0  0  0  0  0  0
    7.9470    9.0770   25.3810 H   0  0  0  0  0  0  0  0  0  0  0  0
    7.1740   11.3550   25.8640 H   0  0  0  0  0  0  0  0  0  0  0  0
    8.1610   13.3130   24.9100 H   0  0  0  0  0  0  0  0  0  0  0  0
  1  2  1  0
  2  3  1  0
  3  4  1  0
  4  5  1  0
  4  6  2  0
  2  7  1  0
  7  8  2  0
  8  9  1  0
  9 10  2  0
 10 11  1  0
 11 12  2  0
 12  7  1  0
  1 13  1  0
  1 14  1  0
  1 15  1  0
  2 16  1  0
  3 17  1  0
  5 18  1  0
  5 19  1  0
  8 20  1  0
  9 21  1  0
 10 22  1  0
 11 23  1  0
 12 24  1  0
A    1
 C1 
A    2
 C2 
A    3
 N1 
A    4
 C3 
A    5
 N2 
A    6
 O1 
A    7
 C4 
A    8
 C5 
A    9
 C6 
A   10
 C7 
A   11
 C8 
A   12
 C9 
A   13
 H1 
A   14
 H2 
A   15
 H3 
A   16
 H4 
A   17
 H5 
A   18
 H6 
A   19
 H7 
A   20
 H8 
A   21
 H9 
A   22
 H10
A   23
 H11
A   24
 H12
M  END
>  <ref_pdb>  (60) 
x0554_0A

>  <ref_mols>  (60) 
x0566_0A

>  <original SMILES>  (60) 
CC(NC(N)=O)c1ccccc1

>  <rationale>  (60) 
info cluster #9 (rank 6); hbond:S87+T126; 

>  <cluster_rank>  (60) 
6

>  <N_interactions>  (60) 
3

>  <N_interactions_lost>  (60) 
1

>  <∆∆G>  (60) 
-4.372943

>  <comRMSD>  (60) 
0.863029

>  <N_rotatable_bonds>  (60) 
3

>  <N_unconstrained_atoms>  (60) 
0

>  <N_constrained_atoms>  (60) 
13

$$$$
Z2252118358
     RDKit          3D

 29 30  0  0  0  0  0  0  0  0999 V2000
   11.9250   14.6050   21.7050 C   0  0  0  0  0  0  0  0  0  0  0  0
   11.0440   13.5840   22.0560 N   0  0  0  0  0  0  0  0  0  0  0  0
   10.6710   13.4890   23.4490 C   0  0  0  0  0  0  0  0  0  0  0  0
   11.0510   14.2350   24.3470 O   0  0  0  0  0  0  0  0  0  0  0  0
    9.6900   12.4120   23.9500 C   0  0  0  0  0  0  0  0  0  0  0  0
    8.5380   13.0250   24.7440 C   0  0  0  0  0  0  0  0  0  0  0  0
    7.5070   12.1520   25.3420 C   0  0  0  0  0  0  0  0  0  0  0  0
    7.6710   10.6770   25.1030 C   0  0  0  0  0  0  0  0  0  0  0  0
    6.6150    9.8460   25.7580 C   0  0  0  0  0  0  0  0  0  0  0  0
    8.7160   10.1620   24.3580 C   0  0  0  0  0  0  0  0  0  0  0  0
    9.7030   11.0030   23.8100 C   0  0  0  0  0  0  0  0  0  0  0  0
   10.7160   10.2220   23.1280 C   0  0  0  0  0  0  0  0  0  0  0  0
   10.4710    8.8740   23.5810 C   0  0  0  0  0  0  0  0  0  0  0  0
    9.0130    8.7150   24.0020 C   0  0  0  0  0  0  0  0  0  0  0  0
   12.2990   14.4610   20.6870 H   0  0  0  0  0  0  0  0  0  0  0  0
   11.4160   15.5710   21.7620 H   0  0  0  0  0  0  0  0  0  0  0  0
   12.7740   14.6050   22.3930 H   0  0  0  0  0  0  0  0  0  0  0  0
   11.0720   12.7170   21.5030 H   0  0  0  0  0  0  0  0  0  0  0  0
    8.5600   14.1160   24.8280 H   0  0  0  0  0  0  0  0  0  0  0  0
    6.6840   12.5640   25.9230 H   0  0  0  0  0  0  0  0  0  0  0  0
    5.6740    9.7380   25.2540 H   0  0  0  0  0  0  0  0  0  0  0  0
    6.4130   10.2160   26.7690 H   0  0  0  0  0  0  0  0  0  0  0  0
    7.0230    8.8720   25.8900 H   0  0  0  0  0  0  0  0  0  0  0  0
   11.6860   10.6080   23.4510 H   0  0  0  0  0  0  0  0  0  0  0  0
   10.5880   10.2780   22.0640 H   0  0  0  0  0  0  0  0  0  0  0  0
   10.7070    8.1900   22.7760 H   0  0  0  0  0  0  0  0  0  0  0  0
   11.1400    8.6220   24.4060 H   0  0  0  0  0  0  0  0  0  0  0  0
    8.3810    8.4050   23.1660 H   0  0  0  0  0  0  0  0  0  0  0  0
    8.8900    8.0250   24.8340 H   0  0  0  0  0  0  0  0  0  0  0  0
  1  2  1  0
  2  3  1  0
  3  4  2  0
  3  5  1  0
  5  6  2  0
  6  7  1  0
  7  8  2  0
  8  9  1  0
  8 10  1  0
 10 11  2  0
 11 12  1  0
 12 13  1  0
 13 14  1  0
 11  5  1  0
 14 10  1  0
  1 15  1  0
  1 16  1  0
  1 17  1  0
  2 18  1  0
  6 19  1  0
  7 20  1  0
  9 21  1  0
  9 22  1  0
  9 23  1  0
 12 24  1  0
 12 25  1  0
 13 26  1  0
 13 27  1  0
 14 28  1  0
 14 29  1  0
A    1
 C1 
A    2
 N1 
A    3
 C2 
A    4
 O1 
A    5
 C3 
A    6
 C4 
A    7
 C5 
A    8
 C6 
A    9
 C7 
A   10
 C8 
A   11
 C9 
A   12
 C10
A   13
 C11
A   14
 C12
A   15
 H1 
A   16
 H2 
A   17
 H3 
A   18
 H4 
A   19
 H5 
A   20
 H6 
A   21
 H7 
A   22
 H8 
A   23
 H9 
A   24
 H10
A   25
 H11
A   26
 H12
A   27
 H13
A   28
 H14
A   29
 H15
M  END
>  <ref_pdb>  (61) 
x0554_0A

>  <ref_mols>  (61) 
x0451_0A,x0554_0A

>  <original SMILES>  (61) 
CNC(=O)c1ccc(C)c2c1CCC2

>  <rationale>  (61) 
info cluster #8 (rank 7); hbond:S125; hydroph_interaction:A110+D109+V124; 

>  <cluster_rank>  (61) 
7

>  <N_interactions>  (61) 
4

>  <N_interactions_lost>  (61) 
1

>  <∆∆G>  (61) 
-7.590174

>  <comRMSD>  (61) 
0.964951

>  <N_rotatable_bonds>  (61) 
3

>  <N_unconstrained_atoms>  (61) 
3

>  <N_constrained_atoms>  (61) 
13

$$$$
Z1391757995
     RDKit          3D

 24 25  0  0  0  0  0  0  0  0999 V2000
   11.9450   14.3730   22.5550 C   0  0  0  0  0  0  0  0  0  0  0  0
   11.1320   13.5760   23.5690 C   0  0  0  0  0  0  0  0  0  0  0  0
   11.1160   13.8880   24.7510 O   0  0  0  0  0  0  0  0  0  0  0  0
   10.4770   12.5320   22.9630 N   0  0  0  0  0  0  0  0  0  0  0  0
    9.8580   11.3670   23.4840 C   0  0  0  0  0  0  0  0  0  0  0  0
   10.2880    9.9700   23.0640 C   0  0  0  0  0  0  0  0  0  0  0  0
    9.5650    8.9090   23.6530 C   0  0  0  0  0  0  0  0  0  0  0  0
    8.5560    9.0470   24.5300 C   0  0  0  0  0  0  0  0  0  0  0  0
    8.1440   10.3130   24.9240 C   0  0  0  0  0  0  0  0  0  0  0  0
    6.9870   10.2980   25.9070 C   0  0  0  0  0  0  0  0  0  0  0  0
    6.5290   11.5430   26.3410 C   0  0  0  0  0  0  0  0  0  0  0  0
    7.1440   12.7030   25.8620 N   0  0  0  0  0  0  0  0  0  0  0  0
    8.1970   12.6440   24.9590 C   0  0  0  0  0  0  0  0  0  0  0  0
    8.7670   11.4950   24.4300 C   0  0  0  0  0  0  0  0  0  0  0  0
   11.8880   13.9120   21.5630 H   0  0  0  0  0  0  0  0  0  0  0  0
   12.9960   14.4030   22.8490 H   0  0  0  0  0  0  0  0  0  0  0  0
   11.5530   15.3940   22.4770 H   0  0  0  0  0  0  0  0  0  0  0  0
   10.7790   12.3270   22.0010 H   0  0  0  0  0  0  0  0  0  0  0  0
   11.0890    9.7750   22.3610 H   0  0  0  0  0  0  0  0  0  0  0  0
    9.8480    7.8910   23.3730 H   0  0  0  0  0  0  0  0  0  0  0  0
    8.0470    8.1920   24.9510 H   0  0  0  0  0  0  0  0  0  0  0  0
    6.5270    9.3840   26.2640 H   0  0  0  0  0  0  0  0  0  0  0  0
    5.7070   11.6620   27.0430 H   0  0  0  0  0  0  0  0  0  0  0  0
    8.5510   13.6320   24.6880 H   0  0  0  0  0  0  0  0  0  0  0  0
  1  2  1  0
  2  3  2  0
  2  4  1  0
  4  5  1  0
  5  6  2  0
  6  7  1  0
  7  8  2  0
  8  9  1  0
  9 10  2  0
 10 11  1  0
 11 12  2  0
 12 13  1  0
 13 14  2  0
 14  5  1  0
 14  9  1  0
  1 15  1  0
  1 16  1  0
  1 17  1  0
  4 18  1  0
  6 19  1  0
  7 20  1  0
  8 21  1  0
 10 22  1  0
 11 23  1  0
 13 24  1  0
A    1
 C1 
A    2
 C2 
A    3
 O1 
A    4
 N1 
A    5
 C3 
A    6
 C4 
A    7
 C5 
A    8
 C6 
A    9
 C7 
A   10
 C8 
A   11
 C9 
A   12
 N2 
A   13
 C10
A   14
 C11
A   15
 H1 
A   16
 H2 
A   17
 H3 
A   18
 H4 
A   19
 H5 
A   20
 H6 
A   21
 H7 
A   22
 H8 
A   23
 H9 
A   24
 H10
M  END
>  <ref_pdb>  (62) 
x0554_0A

>  <ref_mols>  (62) 
x0554_0A,x0451_0A

>  <original SMILES>  (62) 
CC(=O)Nc1cccc2ccncc12

>  <rationale>  (62) 
info cluster #5 (rank 7); hbond:S125; hydroph_interaction:Y89+D109; 

>  <cluster_rank>  (62) 
7

>  <N_interactions>  (62) 
3

>  <N_interactions_lost>  (62) 
1

>  <∆∆G>  (62) 
-7.844573

>  <comRMSD>  (62) 
0.803662

>  <N_rotatable_bonds>  (62) 
2

>  <N_unconstrained_atoms>  (62) 
0

>  <N_constrained_atoms>  (62) 
16

$$$$
Z3247547473
     RDKit          3D

 22 22  0  0  0  0  0  0  0  0999 V2000
   11.8600   14.1890   22.3840 C   0  0  0  0  0  0  0  0  0  0  0  0
   11.1230   13.4380   23.4930 C   0  0  0  0  0  0  0  0  0  0  0  0
   11.0770   13.8980   24.6290 O   0  0  0  0  0  0  0  0  0  0  0  0
   10.5580   12.2520   23.0510 N   0  0  0  0  0  0  0  0  0  0  0  0
    9.6030   11.4190   23.7200 C   0  0  0  0  0  0  0  0  0  0  0  0
    9.6470    9.9520   23.7140 C   0  0  0  0  0  0  0  0  0  0  0  0
   10.7170    9.1910   23.0010 C   0  0  0  0  0  0  0  0  0  0  0  0
    8.6850    9.1840   24.3880 C   0  0  0  0  0  0  0  0  0  0  0  0
    7.5700    9.8370   25.1450 C   0  0  0  0  0  0  0  0  0  0  0  0
    7.6000   11.2280   25.0960 C   0  0  0  0  0  0  0  0  0  0  0  0
    8.5410   12.0140   24.4340 C   0  0  0  0  0  0  0  0  0  0  0  0
    8.2990   13.8940   24.5500 Br  0  0  0  0  0  0  0  0  0  0  0  0
   12.0740   13.5160   21.5520 H   0  0  0  0  0  0  0  0  0  0  0  0
   12.8080   14.5800   22.7590 H   0  0  0  0  0  0  0  0  0  0  0  0
   11.2530   15.0250   22.0300 H   0  0  0  0  0  0  0  0  0  0  0  0
   10.8120   11.9770   22.0960 H   0  0  0  0  0  0  0  0  0  0  0  0
   10.7750    9.5540   21.9740 H   0  0  0  0  0  0  0  0  0  0  0  0
   11.6350    9.3680   23.5540 H   0  0  0  0  0  0  0  0  0  0  0  0
   10.5070    8.1230   23.0240 H   0  0  0  0  0  0  0  0  0  0  0  0
    8.7430    8.0990   24.3710 H   0  0  0  0  0  0  0  0  0  0  0  0
    6.8080    9.2840   25.6840 H   0  0  0  0  0  0  0  0  0  0  0  0
    6.8080   11.7680   25.6270 H   0  0  0  0  0  0  0  0  0  0  0  0
  1  2  1  0
  2  3  2  0
  2  4  1  0
  4  5  1  0
  5  6  2  0
  6  7  1  0
  6  8  1  0
  8  9  2  0
  9 10  1  0
 10 11  2  0
 11 12  1  0
 11  5  1  0
  1 13  1  0
  1 14  1  0
  1 15  1  0
  4 16  1  0
  7 17  1  0
  7 18  1  0
  7 19  1  0
  8 20  1  0
  9 21  1  0
 10 22  1  0
A    1
 C1 
A    2
 C2 
A    3
 O1 
A    4
 N1 
A    5
 C3 
A    6
 C4 
A    7
 C5 
A    8
 C6 
A    9
 C7 
A   10
 C8 
A   11
 C9 
A   12
BR1 
A   13
 H1 
A   14
 H2 
A   15
 H3 
A   16
 H4 
A   17
 H5 
A   18
 H6 
A   19
 H7 
A   20
 H8 
A   21
 H9 
A   22
 H10
M  END
>  <ref_pdb>  (63) 
x0554_0A

>  <ref_mols>  (63) 
x0554_0A,x0310_0A

>  <original SMILES>  (63) 
CC(=O)Nc1c(C)cccc1Br

>  <rationale>  (63) 
info cluster #0 (rank 7); hbond:S125; hydroph_interaction:A110+V124; 

>  <cluster_rank>  (63) 
7

>  <N_interactions>  (63) 
3

>  <N_interactions_lost>  (63) 
1

>  <∆∆G>  (63) 
-8.239668

>  <comRMSD>  (63) 
0.713084

>  <N_rotatable_bonds>  (63) 
3

>  <N_unconstrained_atoms>  (63) 
1

>  <N_constrained_atoms>  (63) 
13

$$$$
Z3495010709
     RDKit          3D

 34 35  0  0  0  0  0  0  0  0999 V2000
   12.4640   15.4910   21.6020 C   0  0  0  0  0  0  0  0  0  0  0  0
   11.4250   14.4750   21.2320 C   0  0  0  0  0  0  0  0  0  0  0  0
   11.3380   13.4980   22.2150 N   0  0  0  0  0  0  0  0  0  0  0  0
   10.5430   13.4550   23.3940 C   0  0  0  0  0  0  0  0  0  0  0  0
    9.8530   12.2050   23.7330 C   0  0  0  0  0  0  0  0  0  0  0  0
   10.2160   10.8350   23.1870 C   0  0  0  0  0  0  0  0  0  0  0  0
    9.3350    9.9610   23.7420 N   0  0  0  0  0  0  0  0  0  0  0  0
    9.3220    8.5410   23.4810 C   0  0  0  0  0  0  0  0  0  0  0  0
    8.4540   10.6040   24.5890 C   0  0  0  0  0  0  0  0  0  0  0  0
    7.3190   10.0400   25.4270 C   0  0  0  0  0  0  0  0  0  0  0  0
    6.5390   11.0320   26.2460 C   0  0  0  0  0  0  0  0  0  0  0  0
    6.9090   12.3590   26.1820 C   0  0  0  0  0  0  0  0  0  0  0  0
    7.9690   12.8460   25.3990 C   0  0  0  0  0  0  0  0  0  0  0  0
    8.7420   11.9850   24.6050 C   0  0  0  0  0  0  0  0  0  0  0  0
   10.0440   15.1530   21.0550 C   0  0  0  0  0  0  0  0  0  0  0  0
   10.0380   16.3880   20.4700 N   0  0  0  0  0  0  0  0  0  0  0  0
    8.9880   14.6540   21.4080 O   0  0  0  0  0  0  0  0  0  0  0  0
   13.1580   15.0480   22.3100 H   0  0  0  0  0  0  0  0  0  0  0  0
   13.0050   15.8150   20.7130 H   0  0  0  0  0  0  0  0  0  0  0  0
   11.9750   16.3530   22.0590 H   0  0  0  0  0  0  0  0  0  0  0  0
   11.6610   14.1490   20.2260 H   0  0  0  0  0  0  0  0  0  0  0  0
   11.2390   12.5980   21.7320 H   0  0  0  0  0  0  0  0  0  0  0  0
   11.1700   13.7270   24.2500 H   0  0  0  0  0  0  0  0  0  0  0  0
    9.7320   14.1920   23.3450 H   0  0  0  0  0  0  0  0  0  0  0  0
   10.9870   10.5230   22.4990 H   0  0  0  0  0  0  0  0  0  0  0  0
   10.3310    8.2350   23.1950 H   0  0  0  0  0  0  0  0  0  0  0  0
    8.6250    8.3090   22.6800 H   0  0  0  0  0  0  0  0  0  0  0  0
    9.0020    8.0290   24.4000 H   0  0  0  0  0  0  0  0  0  0  0  0
    7.0770    8.9990   25.4450 H   0  0  0  0  0  0  0  0  0  0  0  0
    5.7040   10.6920   26.8730 H   0  0  0  0  0  0  0  0  0  0  0  0
    6.2750   12.9900   26.8170 H   0  0  0  0  0  0  0  0  0  0  0  0
    8.1900   13.9100   25.4100 H   0  0  0  0  0  0  0  0  0  0  0  0
    9.3640   17.0930   20.7410 H   0  0  0  0  0  0  0  0  0  0  0  0
   10.3290   16.3940   19.5000 H   0  0  0  0  0  0  0  0  0  0  0  0
  1  2  1  0
  2  3  1  0
  3  4  1  0
  4  5  1  0
  5  6  2  0
  6  7  1  0
  7  8  1  0
  7  9  1  0
  9 10  2  0
 10 11  1  0
 11 12  2  0
 12 13  1  0
 13 14  2  0
  2 15  1  0
 15 16  1  0
 15 17  2  0
 14  5  1  0
 14  9  1  0
  1 18  1  0
  1 19  1  0
  1 20  1  0
  2 21  1  0
  3 22  1  0
  4 23  1  0
  4 24  1  0
  6 25  1  0
  8 26  1  0
  8 27  1  0
  8 28  1  0
 10 29  1  0
 11 30  1  0
 12 31  1  0
 13 32  1  0
 16 33  1  0
 16 34  1  0
A    1
 C1 
A    2
 C2 
A    3
 N1 
A    4
 C3 
A    5
 C4 
A    6
 C5 
A    7
 N2 
A    8
 C6 
A    9
 C7 
A   10
 C8 
A   11
 C9 
A   12
 C10
A   13
 C11
A   14
 C12
A   15
 C13
A   16
 N3 
A   17
 O1 
A   18
 H1 
A   19
 H2 
A   20
 H3 
A   21
 H4 
A   22
 H5 
A   23
 H6 
A   24
 H7 
A   25
 H8 
A   26
 H9 
A   27
 H10
A   28
 H11
A   29
 H12
A   30
 H13
A   31
 H14
A   32
 H15
A   33
 H16
A   34
 H17
M  END
>  <ref_pdb>  (64) 
x0554_0A

>  <ref_mols>  (64) 
x0451_0A

>  <original SMILES>  (64) 
CC(NCc1cn(C)c2ccccc12)C(N)=O

>  <rationale>  (64) 
info cluster #2 (rank 7); hbond:H21+S87; hydroph_interaction:Y89+Y90; 

>  <cluster_rank>  (64) 
7

>  <N_interactions>  (64) 
4

>  <N_interactions_lost>  (64) 
1

>  <∆∆G>  (64) 
-9.333291

>  <comRMSD>  (64) 
0.903448

>  <N_rotatable_bonds>  (64) 
6

>  <N_unconstrained_atoms>  (64) 
1

>  <N_constrained_atoms>  (64) 
18

$$$$
Z3324908471
     RDKit          3D

 32 32  0  0  0  0  0  0  0  0999 V2000
   10.6840   15.3410   18.4160 C   0  0  0  0  0  0  0  0  0  0  0  0
   10.9990   14.9510   19.8590 C   0  0  0  0  0  0  0  0  0  0  0  0
    9.9690   15.4760   20.8730 C   0  0  0  0  0  0  0  0  0  0  0  0
    9.7950   16.8500   20.7730 N   0  0  0  0  0  0  0  0  0  0  0  0
   10.3650   15.1390   22.3240 C   0  0  0  0  0  0  0  0  0  0  0  0
   10.9520   15.9150   23.0580 O   0  0  0  0  0  0  0  0  0  0  0  0
    9.9640   13.9020   22.7320 N   0  0  0  0  0  0  0  0  0  0  0  0
    8.8640   13.7940   23.6510 C   0  0  0  0  0  0  0  0  0  0  0  0
    8.6970   12.4900   24.0880 C   0  0  0  0  0  0  0  0  0  0  0  0
    7.7180   12.1760   25.0170 C   0  0  0  0  0  0  0  0  0  0  0  0
    7.5030   10.9340   25.4830 N   0  0  0  0  0  0  0  0  0  0  0  0
    8.2990    9.9630   24.9910 C   0  0  0  0  0  0  0  0  0  0  0  0
    9.3040   10.1560   24.0550 C   0  0  0  0  0  0  0  0  0  0  0  0
   10.1470    9.0330   23.5410 C   0  0  0  0  0  0  0  0  0  0  0  0
    9.4990   11.4520   23.6080 C   0  0  0  0  0  0  0  0  0  0  0  0
   10.0140   16.2050   18.3780 H   0  0  0  0  0  0  0  0  0  0  0  0
   11.6140   15.5730   17.8890 H   0  0  0  0  0  0  0  0  0  0  0  0
   10.2010   14.5130   17.8930 H   0  0  0  0  0  0  0  0  0  0  0  0
   11.9770   15.3580   20.1410 H   0  0  0  0  0  0  0  0  0  0  0  0
   11.0500   13.8650   19.9130 H   0  0  0  0  0  0  0  0  0  0  0  0
    8.9970   15.0120   20.6860 H   0  0  0  0  0  0  0  0  0  0  0  0
   10.2060   17.3400   21.5810 H   0  0  0  0  0  0  0  0  0  0  0  0
   10.3090   17.1830   19.9540 H   0  0  0  0  0  0  0  0  0  0  0  0
   10.7190   13.2140   22.7650 H   0  0  0  0  0  0  0  0  0  0  0  0
    9.0380   14.4580   24.5080 H   0  0  0  0  0  0  0  0  0  0  0  0
    7.9700   14.1540   23.1320 H   0  0  0  0  0  0  0  0  0  0  0  0
    7.0550   12.9340   25.4270 H   0  0  0  0  0  0  0  0  0  0  0  0
    8.0950    8.9820   25.3950 H   0  0  0  0  0  0  0  0  0  0  0  0
   10.6100    9.2910   22.5820 H   0  0  0  0  0  0  0  0  0  0  0  0
    9.5380    8.1400   23.3710 H   0  0  0  0  0  0  0  0  0  0  0  0
   10.9350    8.7960   24.2630 H   0  0  0  0  0  0  0  0  0  0  0  0
   10.2760   11.6650   22.8800 H   0  0  0  0  0  0  0  0  0  0  0  0
  1  2  1  0
  2  3  1  0
  3  4  1  0
  3  5  1  0
  5  6  2  0
  5  7  1  0
  7  8  1  0
  8  9  1  0
  9 10  2  0
 10 11  1  0
 11 12  2  0
 12 13  1  0
 13 14  1  0
 13 15  2  0
 15  9  1  0
  1 16  1  0
  1 17  1  0
  1 18  1  0
  2 19  1  0
  2 20  1  0
  3 21  1  0
  4 22  1  0
  4 23  1  0
  7 24  1  0
  8 25  1  0
  8 26  1  0
 10 27  1  0
 12 28  1  0
 14 29  1  0
 14 30  1  0
 14 31  1  0
 15 32  1  0
A    1
 C1 
A    2
 C2 
A    3
 C3 
A    4
 N1 
A    5
 C4 
A    6
 O1 
A    7
 N2 
A    8
 C5 
A    9
 C6 
A   10
 C7 
A   11
 N3 
A   12
 C8 
A   13
 C9 
A   14
 C10
A   15
 C11
A   16
 H1 
A   17
 H2 
A   18
 H3 
A   19
 H4 
A   20
 H5 
A   21
 H6 
A   22
 H7 
A   23
 H8 
A   24
 H9 
A   25
 H10
A   26
 H11
A   27
 H12
A   28
 H13
A   29
 H14
A   30
 H15
A   31
 H16
A   32
 H17
M  END
>  <ref_pdb>  (65) 
x0554_0A

>  <ref_mols>  (65) 
x0416_0A

>  <original SMILES>  (65) 
CCC(N)C(=O)NCc1cncc(C)c1

>  <rationale>  (65) 
info cluster #7 (rank 7); hbond:S87+S125; hydroph_interaction:Y90+D109+V124; 

>  <cluster_rank>  (65) 
7

>  <N_interactions>  (65) 
6

>  <N_interactions_lost>  (65) 
1

>  <∆∆G>  (65) 
-8.722077

>  <comRMSD>  (65) 
0.469736

>  <N_rotatable_bonds>  (65) 
7

>  <N_unconstrained_atoms>  (65) 
3

>  <N_constrained_atoms>  (65) 
12

$$$$
PV_002801198191
     RDKit          3D

 28 30  0  0  0  0  0  0  0  0999 V2000
    9.1340   13.8630   22.7950 C   0  0  0  0  0  0  0  0  0  0  0  0
   10.5330   13.5140   23.1070 C   0  0  0  0  0  0  0  0  0  0  0  0
   11.4410   14.4090   22.7060 N   0  0  0  0  0  0  0  0  0  0  0  0
   12.6960   14.1200   23.0110 C   0  0  0  0  0  0  0  0  0  0  0  0
   13.1180   12.9970   23.7030 C   0  0  0  0  0  0  0  0  0  0  0  0
   12.1780   12.0930   24.0820 C   0  0  0  0  0  0  0  0  0  0  0  0
   10.8460   12.3390   23.7770 C   0  0  0  0  0  0  0  0  0  0  0  0
    9.8490   11.3890   24.1730 C   0  0  0  0  0  0  0  0  0  0  0  0
    9.9560   10.0110   23.9220 C   0  0  0  0  0  0  0  0  0  0  0  0
    8.9600    9.1440   24.3450 C   0  0  0  0  0  0  0  0  0  0  0  0
    7.8480    9.6420   25.0250 C   0  0  0  0  0  0  0  0  0  0  0  0
    7.7220   10.9960   25.2720 C   0  0  0  0  0  0  0  0  0  0  0  0
    8.7180   11.8460   24.8430 C   0  0  0  0  0  0  0  0  0  0  0  0
    8.3510   13.1180   25.2100 N   0  0  0  0  0  0  0  0  0  0  0  0
    7.1490   13.0900   25.8600 C   0  0  0  0  0  0  0  0  0  0  0  0
    6.7390   11.7810   25.9130 C   0  0  0  0  0  0  0  0  0  0  0  0
    9.0620   14.2550   21.7750 H   0  0  0  0  0  0  0  0  0  0  0  0
    8.7700   14.6410   23.4710 H   0  0  0  0  0  0  0  0  0  0  0  0
    8.4860   12.9860   22.8640 H   0  0  0  0  0  0  0  0  0  0  0  0
   13.4040   14.8550   22.6670 H   0  0  0  0  0  0  0  0  0  0  0  0
   14.1570   12.8230   23.9340 H   0  0  0  0  0  0  0  0  0  0  0  0
   12.4730   11.1910   24.6160 H   0  0  0  0  0  0  0  0  0  0  0  0
   10.8250    9.6160   23.3960 H   0  0  0  0  0  0  0  0  0  0  0  0
    9.0460    8.0770   24.1510 H   0  0  0  0  0  0  0  0  0  0  0  0
    7.0730    8.9910   25.3710 H   0  0  0  0  0  0  0  0  0  0  0  0
    8.8960   13.9510   25.0230 H   0  0  0  0  0  0  0  0  0  0  0  0
    6.6930   13.9990   26.2260 H   0  0  0  0  0  0  0  0  0  0  0  0
    5.8230   11.4220   26.3640 H   0  0  0  0  0  0  0  0  0  0  0  0
  1  2  1  0
  2  3  2  0
  3  4  1  0
  4  5  2  0
  5  6  1  0
  6  7  2  0
  7  8  1  0
  8  9  2  0
  9 10  1  0
 10 11  2  0
 11 12  1  0
 12 13  2  0
 13 14  1  0
 14 15  1  0
 15 16  2  0
  7  2  1  0
 13  8  1  0
 16 12  1  0
  1 17  1  0
  1 18  1  0
  1 19  1  0
  4 20  1  0
  5 21  1  0
  6 22  1  0
  9 23  1  0
 10 24  1  0
 11 25  1  0
 14 26  1  0
 15 27  1  0
 16 28  1  0
A    1
 C1 
A    2
 C2 
A    3
 N1 
A    4
 C3 
A    5
 C4 
A    6
 C5 
A    7
 C6 
A    8
 C7 
A    9
 C8 
A   10
 C9 
A   11
 C10
A   12
 C11
A   13
 C12
A   14
 N2 
A   15
 C13
A   16
 C14
A   17
 H1 
A   18
 H2 
A   19
 H3 
A   20
 H4 
A   21
 H5 
A   22
 H6 
A   23
 H7 
A   24
 H8 
A   25
 H9 
A   26
 H10
A   27
 H11
A   28
 H12
M  END
>  <ref_pdb>  (66) 
x0554_0A

>  <ref_mols>  (66) 
x0554_0A

>  <original SMILES>  (66) 
Cc1ncccc1-c1cccc2cc[nH]c12

>  <rationale>  (66) 
info cluster #6 (rank 7); hydroph_interaction:Y89+A110; 

>  <cluster_rank>  (66) 
7

>  <N_interactions>  (66) 
2

>  <N_interactions_lost>  (66) 
0

>  <∆∆G>  (66) 
-6.001957

>  <comRMSD>  (66) 
0.991401

>  <N_rotatable_bonds>  (66) 
2

>  <N_unconstrained_atoms>  (66) 
1

>  <N_constrained_atoms>  (66) 
16

$$$$
PV_002382496674
     RDKit          3D

 27 28  0  0  0  0  0  0  0  0999 V2000
   11.5590   13.2340   22.8060 C   0  0  0  0  0  0  0  0  0  0  0  0
   10.1460   13.2490   23.0640 N   0  0  0  0  0  0  0  0  0  0  0  0
    9.2970   14.1000   22.3590 C   0  0  0  0  0  0  0  0  0  0  0  0
    8.0930   14.1640   22.5490 O   0  0  0  0  0  0  0  0  0  0  0  0
    9.8860   14.8800   21.3980 C   0  0  0  0  0  0  0  0  0  0  0  0
    9.6430   16.2160   21.3760 N   0  0  0  0  0  0  0  0  0  0  0  0
   10.6090   14.4070   20.5340 O   0  0  0  0  0  0  0  0  0  0  0  0
    9.6060   12.0600   23.6430 C   0  0  0  0  0  0  0  0  0  0  0  0
   10.1350   10.7790   23.3040 C   0  0  0  0  0  0  0  0  0  0  0  0
    9.6060    9.6330   23.8880 C   0  0  0  0  0  0  0  0  0  0  0  0
    8.5850    9.7280   24.7840 C   0  0  0  0  0  0  0  0  0  0  0  0
    8.0420   10.9430   25.1320 C   0  0  0  0  0  0  0  0  0  0  0  0
    8.5240   12.1160   24.5880 C   0  0  0  0  0  0  0  0  0  0  0  0
    7.8580   13.1730   25.0690 N   0  0  0  0  0  0  0  0  0  0  0  0
    6.9010   12.7220   25.9550 C   0  0  0  0  0  0  0  0  0  0  0  0
    6.9940   11.3300   26.0120 C   0  0  0  0  0  0  0  0  0  0  0  0
   11.9380   12.2130   22.8950 H   0  0  0  0  0  0  0  0  0  0  0  0
   12.0700   13.8680   23.5400 H   0  0  0  0  0  0  0  0  0  0  0  0
   11.7980   13.5970   21.8020 H   0  0  0  0  0  0  0  0  0  0  0  0
    9.9520   16.7130   20.5470 H   0  0  0  0  0  0  0  0  0  0  0  0
    8.7630   16.5060   21.7860 H   0  0  0  0  0  0  0  0  0  0  0  0
   10.9440   10.6170   22.6070 H   0  0  0  0  0  0  0  0  0  0  0  0
   10.0770    8.6960   23.5690 H   0  0  0  0  0  0  0  0  0  0  0  0
    8.2470    8.7880   25.1930 H   0  0  0  0  0  0  0  0  0  0  0  0
    8.0280   14.1350   24.8250 H   0  0  0  0  0  0  0  0  0  0  0  0
    6.2410   13.4180   26.4640 H   0  0  0  0  0  0  0  0  0  0  0  0
    6.3810   10.6730   26.6150 H   0  0  0  0  0  0  0  0  0  0  0  0
  1  2  1  0
  2  3  1  0
  3  4  2  0
  3  5  1  0
  5  6  1  0
  5  7  2  0
  2  8  1  0
  8  9  2  0
  9 10  1  0
 10 11  2  0
 11 12  1  0
 12 13  2  0
 13 14  1  0
 14 15  1  0
 15 16  2  0
 13  8  1  0
 16 12  1  0
  1 17  1  0
  1 18  1  0
  1 19  1  0
  6 20  1  0
  6 21  1  0
  9 22  1  0
 10 23  1  0
 11 24  1  0
 14 25  1  0
 15 26  1  0
 16 27  1  0
A    1
 C1 
A    2
 N1 
A    3
 C2 
A    4
 O1 
A    5
 C3 
A    6
 N2 
A    7
 O2 
A    8
 C4 
A    9
 C5 
A   10
 C6 
A   11
 C7 
A   12
 C8 
A   13
 C9 
A   14
 N3 
A   15
 C10
A   16
 C11
A   17
 H1 
A   18
 H2 
A   19
 H3 
A   20
 H4 
A   21
 H5 
A   22
 H6 
A   23
 H7 
A   24
 H8 
A   25
 H9 
A   26
 H10
A   27
 H11
M  END
>  <ref_pdb>  (67) 
x0554_0A

>  <ref_mols>  (67) 
x0566_0A

>  <original SMILES>  (67) 
CN(C(=O)C(N)=O)c1cccc2cc[nH]c12

>  <rationale>  (67) 
info cluster #3 (rank 7); hbond:S87+G127; 

>  <cluster_rank>  (67) 
7

>  <N_interactions>  (67) 
3

>  <N_interactions_lost>  (67) 
1

>  <∆∆G>  (67) 
-4.396139

>  <comRMSD>  (67) 
0.799262

>  <N_rotatable_bonds>  (67) 
2

>  <N_unconstrained_atoms>  (67) 
1

>  <N_constrained_atoms>  (67) 
17

$$$$
Z3177378502
     RDKit          3D

 23 23  0  0  0  0  0  0  0  0999 V2000
   12.0930   14.9500   21.6140 C   0  0  0  0  0  0  0  0  0  0  0  0
   11.0560   14.0460   22.0330 N   0  0  0  0  0  0  0  0  0  0  0  0
   10.5210   14.1500   23.3030 C   0  0  0  0  0  0  0  0  0  0  0  0
   11.1500   14.5950   24.2490 O   0  0  0  0  0  0  0  0  0  0  0  0
    9.2350   13.7050   23.3610 N   0  0  0  0  0  0  0  0  0  0  0  0
    8.8840   12.4480   23.9330 C   0  0  0  0  0  0  0  0  0  0  0  0
    9.5300   11.2670   23.5770 C   0  0  0  0  0  0  0  0  0  0  0  0
    9.1990    9.9650   24.1380 C   0  0  0  0  0  0  0  0  0  0  0  0
    9.8740    8.8270   23.7290 C   0  0  0  0  0  0  0  0  0  0  0  0
    8.1840    9.9900   25.0810 C   0  0  0  0  0  0  0  0  0  0  0  0
    7.5210   11.1260   25.4600 N   0  0  0  0  0  0  0  0  0  0  0  0
    7.8290   12.3340   24.9250 C   0  0  0  0  0  0  0  0  0  0  0  0
    7.1390   13.4180   25.3380 F   0  0  0  0  0  0  0  0  0  0  0  0
   12.9760   14.8420   22.2390 H   0  0  0  0  0  0  0  0  0  0  0  0
   11.7210   15.9780   21.6790 H   0  0  0  0  0  0  0  0  0  0  0  0
   12.3440   14.7370   20.5700 H   0  0  0  0  0  0  0  0  0  0  0  0
   11.0310   13.1120   21.6060 H   0  0  0  0  0  0  0  0  0  0  0  0
    8.5080   14.4200   23.3920 H   0  0  0  0  0  0  0  0  0  0  0  0
   10.3180   11.3780   22.8290 H   0  0  0  0  0  0  0  0  0  0  0  0
   10.1850    8.7650   22.6870 H   0  0  0  0  0  0  0  0  0  0  0  0
    9.2460    7.9560   23.9130 H   0  0  0  0  0  0  0  0  0  0  0  0
   10.7650    8.6870   24.3450 H   0  0  0  0  0  0  0  0  0  0  0  0
    7.8510    9.0820   25.5840 H   0  0  0  0  0  0  0  0  0  0  0  0
  1  2  1  0
  2  3  1  0
  3  4  2  0
  3  5  1  0
  5  6  1  0
  6  7  2  0
  7  8  1  0
  8  9  1  0
  8 10  2  0
 10 11  1  0
 11 12  2  0
 12 13  1  0
 12  6  1  0
  1 14  1  0
  1 15  1  0
  1 16  1  0
  2 17  1  0
  5 18  1  0
  7 19  1  0
  9 20  1  0
  9 21  1  0
  9 22  1  0
 10 23  1  0
A    1
 C1 
A    2
 N1 
A    3
 C2 
A    4
 O1 
A    5
 N2 
A    6
 C3 
A    7
 C4 
A    8
 C5 
A    9
 C6 
A   10
 C7 
A   11
 N3 
A   12
 C8 
A   13
 F1 
A   14
 H1 
A   15
 H2 
A   16
 H3 
A   17
 H4 
A   18
 H5 
A   19
 H6 
A   20
 H7 
A   21
 H8 
A   22
 H9 
A   23
 H10
M  END
>  <ref_pdb>  (68) 
x0554_0A

>  <ref_mols>  (68) 
x0416_0A,x0451_0A

>  <original SMILES>  (68) 
CNC(=O)Nc1cc(C)cnc1F

>  <rationale>  (68) 
info cluster #1 (rank 7); hbond:S125+T126; hydroph_interaction:D109; 

>  <cluster_rank>  (68) 
7

>  <N_interactions>  (68) 
3

>  <N_interactions_lost>  (68) 
1

>  <∆∆G>  (68) 
-6.340541

>  <comRMSD>  (68) 
0.626007

>  <N_rotatable_bonds>  (68) 
3

>  <N_unconstrained_atoms>  (68) 
1

>  <N_constrained_atoms>  (68) 
14

$$$$
PV_005194014768
     RDKit          3D

 29 31  0  0  0  0  0  0  0  0999 V2000
   12.2670   15.5800   21.5890 C   0  0  0  0  0  0  0  0  0  0  0  0
   11.2390   14.7040   22.0670 N   0  0  0  0  0  0  0  0  0  0  0  0
    9.9750   14.8400   21.6850 C   0  0  0  0  0  0  0  0  0  0  0  0
    9.1330   13.8580   22.2670 N   0  0  0  0  0  0  0  0  0  0  0  0
   10.0100   13.1050   23.0270 C   0  0  0  0  0  0  0  0  0  0  0  0
    9.4910   11.9920   23.7080 C   0  0  0  0  0  0  0  0  0  0  0  0
   10.0540   10.6440   23.4170 C   0  0  0  0  0  0  0  0  0  0  0  0
    9.5310    9.5390   24.0740 C   0  0  0  0  0  0  0  0  0  0  0  0
    8.4970    9.6900   24.9910 C   0  0  0  0  0  0  0  0  0  0  0  0
    7.9430   10.9390   25.2890 C   0  0  0  0  0  0  0  0  0  0  0  0
    8.4460   12.0680   24.6480 C   0  0  0  0  0  0  0  0  0  0  0  0
    7.7100   13.1600   25.1370 N   0  0  0  0  0  0  0  0  0  0  0  0
    6.7850   12.7310   26.0500 C   0  0  0  0  0  0  0  0  0  0  0  0
    6.9040   11.3640   26.1640 C   0  0  0  0  0  0  0  0  0  0  0  0
   11.3360   13.6070   22.9650 C   0  0  0  0  0  0  0  0  0  0  0  0
   12.5260   13.1200   23.6520 C   0  0  0  0  0  0  0  0  0  0  0  0
   12.9390   13.4960   24.7210 O   0  0  0  0  0  0  0  0  0  0  0  0
   13.2170   12.1300   23.0730 O   0  0  0  0  0  0  0  0  0  0  0  0
   12.3810   15.4480   20.5110 H   0  0  0  0  0  0  0  0  0  0  0  0
   11.9940   16.6180   21.7940 H   0  0  0  0  0  0  0  0  0  0  0  0
   13.2130   15.3490   22.0780 H   0  0  0  0  0  0  0  0  0  0  0  0
    9.4880   15.5600   21.0150 H   0  0  0  0  0  0  0  0  0  0  0  0
   10.8610   10.5070   22.7030 H   0  0  0  0  0  0  0  0  0  0  0  0
    9.9340    8.5500   23.8700 H   0  0  0  0  0  0  0  0  0  0  0  0
    8.1130    8.8160   25.4880 H   0  0  0  0  0  0  0  0  0  0  0  0
    7.8720   14.1120   24.8330 H   0  0  0  0  0  0  0  0  0  0  0  0
    6.1190   13.4380   26.5380 H   0  0  0  0  0  0  0  0  0  0  0  0
    6.3090   10.7300   26.8080 H   0  0  0  0  0  0  0  0  0  0  0  0
   13.9630   12.6170   22.6290 H   0  0  0  0  0  0  0  0  0  0  0  0
  1  2  1  0
  2  3  1  0
  3  4  2  0
  4  5  1  0
  5  6  1  0
  6  7  2  0
  7  8  1  0
  8  9  2  0
  9 10  1  0
 10 11  2  0
 11 12  1  0
 12 13  1  0
 13 14  2  0
  5 15  2  0
 15 16  1  0
 16 17  2  0
 16 18  1  0
 15  2  1  0
 11  6  1  0
 14 10  1  0
  1 19  1  0
  1 20  1  0
  1 21  1  0
  3 22  1  0
  7 23  1  0
  8 24  1  0
  9 25  1  0
 12 26  1  0
 13 27  1  0
 14 28  1  0
 18 29  1  0
A    1
 C1 
A    2
 N1 
A    3
 C2 
A    4
 N2 
A    5
 C3 
A    6
 C4 
A    7
 C5 
A    8
 C6 
A    9
 C7 
A   10
 C8 
A   11
 C9 
A   12
 N3 
A   13
 C10
A   14
 C11
A   15
 C12
A   16
 C13
A   17
 O1 
A   18
 O2 
A   19
 H1 
A   20
 H2 
A   21
 H3 
A   22
 H4 
A   23
 H5 
A   24
 H6 
A   25
 H7 
A   26
 H8 
A   27
 H9 
A   28
 H10
A   29
 H11
M  END
>  <ref_pdb>  (69) 
x0554_0A

>  <ref_mols>  (69) 
x0566_0A

>  <original SMILES>  (69) 
Cn1cnc(-c2cccc3cc[nH]c23)c1C(=O)O

>  <rationale>  (69) 
info cluster #4 (rank 7); saltbridge:H21; 

>  <cluster_rank>  (69) 
7

>  <N_interactions>  (69) 
1

>  <N_interactions_lost>  (69) 
0

>  <∆∆G>  (69) 
-7.41917

>  <comRMSD>  (69) 
0.952124

>  <N_rotatable_bonds>  (69) 
3

>  <N_unconstrained_atoms>  (69) 
2

>  <N_constrained_atoms>  (69) 
18

$$$$
Z5102731374
     RDKit          3D

 27 27  0  0  0  0  0  0  0  0999 V2000
   11.1980   14.6720   19.8470 C   0  0  0  0  0  0  0  0  0  0  0  0
   10.1060   15.4360   20.5960 C   0  0  0  0  0  0  0  0  0  0  0  0
   10.1710   15.1470   22.0890 C   0  0  0  0  0  0  0  0  0  0  0  0
   10.8370   15.8110   22.8780 O   0  0  0  0  0  0  0  0  0  0  0  0
    9.3780   14.0860   22.4640 N   0  0  0  0  0  0  0  0  0  0  0  0
    9.0100   13.9350   23.8680 C   0  0  0  0  0  0  0  0  0  0  0  0
    8.7900   12.6030   24.2090 C   0  0  0  0  0  0  0  0  0  0  0  0
    9.5660   11.5870   23.6360 C   0  0  0  0  0  0  0  0  0  0  0  0
    9.3600   10.2450   23.9710 C   0  0  0  0  0  0  0  0  0  0  0  0
   10.1750    9.1820   23.3610 C   0  0  0  0  0  0  0  0  0  0  0  0
    8.3730    9.9490   24.8920 C   0  0  0  0  0  0  0  0  0  0  0  0
    7.5680   10.8640   25.4980 N   0  0  0  0  0  0  0  0  0  0  0  0
    7.8070   12.2410   25.1210 C   0  0  0  0  0  0  0  0  0  0  0  0
    6.6950   13.5260   25.9530 Br  0  0  0  0  0  0  0  0  0  0  0  0
   11.8420   14.1200   20.5410 H   0  0  0  0  0  0  0  0  0  0  0  0
   11.8210   15.3440   19.2540 H   0  0  0  0  0  0  0  0  0  0  0  0
   10.7590   13.9280   19.1730 H   0  0  0  0  0  0  0  0  0  0  0  0
    9.1440   15.1370   20.1720 H   0  0  0  0  0  0  0  0  0  0  0  0
   10.2150   16.5090   20.4090 H   0  0  0  0  0  0  0  0  0  0  0  0
    8.6540   13.8310   21.7770 H   0  0  0  0  0  0  0  0  0  0  0  0
    9.8070   14.3440   24.4990 H   0  0  0  0  0  0  0  0  0  0  0  0
    8.1010   14.5130   24.0810 H   0  0  0  0  0  0  0  0  0  0  0  0
   10.3430   11.8420   22.9180 H   0  0  0  0  0  0  0  0  0  0  0  0
   10.7460    9.3710   22.4600 H   0  0  0  0  0  0  0  0  0  0  0  0
    9.5220    8.3370   23.1110 H   0  0  0  0  0  0  0  0  0  0  0  0
   10.8820    8.8300   24.1170 H   0  0  0  0  0  0  0  0  0  0  0  0
    8.1890    8.9310   25.1910 H   0  0  0  0  0  0  0  0  0  0  0  0
  1  2  1  0
  2  3  1  0
  3  4  2  0
  3  5  1  0
  5  6  1  0
  6  7  1  0
  7  8  2  0
  8  9  1  0
  9 10  1  0
  9 11  2  0
 11 12  1  0
 12 13  2  0
 13 14  1  0
 13  7  1  0
  1 15  1  0
  1 16  1  0
  1 17  1  0
  2 18  1  0
  2 19  1  0
  5 20  1  0
  6 21  1  0
  6 22  1  0
  8 23  1  0
 10 24  1  0
 10 25  1  0
 10 26  1  0
 11 27  1  0
A    1
 C1 
A    2
 C2 
A    3
 C3 
A    4
 O1 
A    5
 N1 
A    6
 C4 
A    7
 C5 
A    8
 C6 
A    9
 C7 
A   10
 C8 
A   11
 C9 
A   12
 N2 
A   13
 C10
A   14
BR1 
A   15
 H1 
A   16
 H2 
A   17
 H3 
A   18
 H4 
A   19
 H5 
A   20
 H6 
A   21
 H7 
A   22
 H8 
A   23
 H9 
A   24
 H10
A   25
 H11
A   26
 H12
A   27
 H13
M  END
>  <ref_pdb>  (70) 
x0554_0A

>  <ref_mols>  (70) 
x0416_0A

>  <original SMILES>  (70) 
CCC(=O)NCc1cc(C)cnc1Br

>  <rationale>  (70) 
info cluster #9 (rank 7); hbond:S87+T126; hydroph_interaction:V124; 

>  <cluster_rank>  (70) 
7

>  <N_interactions>  (70) 
3

>  <N_interactions_lost>  (70) 
1

>  <∆∆G>  (70) 
-7.738528

>  <comRMSD>  (70) 
0.54426

>  <N_rotatable_bonds>  (70) 
5

>  <N_unconstrained_atoms>  (70) 
2

>  <N_constrained_atoms>  (70) 
13

$$$$
Z1022691278
     RDKit          3D

 22 23  0  0  0  0  0  0  0  0999 V2000
    9.7060    8.4390   23.4120 C   0  0  0  0  0  0  0  0  0  0  0  0
    9.2350    9.7530   23.9540 C   0  0  0  0  0  0  0  0  0  0  0  0
    8.2460    9.8400   25.1050 C   0  0  0  0  0  0  0  0  0  0  0  0
    7.9660   11.2560   25.3580 C   0  0  0  0  0  0  0  0  0  0  0  0
    7.0110   11.6790   26.4180 C   0  0  0  0  0  0  0  0  0  0  0  0
    7.0500   13.0300   26.3090 N   0  0  0  0  0  0  0  0  0  0  0  0
    7.8940   13.4850   25.3310 N   0  0  0  0  0  0  0  0  0  0  0  0
    8.4900   12.3900   24.7090 C   0  0  0  0  0  0  0  0  0  0  0  0
    9.4010   12.2540   23.6800 C   0  0  0  0  0  0  0  0  0  0  0  0
    9.9740   13.4710   22.9660 C   0  0  0  0  0  0  0  0  0  0  0  0
    9.0490   14.3380   22.4430 N   0  0  0  0  0  0  0  0  0  0  0  0
   11.1700   13.6730   22.8440 O   0  0  0  0  0  0  0  0  0  0  0  0
    9.7540   10.9200   23.3290 C   0  0  0  0  0  0  0  0  0  0  0  0
   10.7570    8.2750   23.6610 H   0  0  0  0  0  0  0  0  0  0  0  0
    9.1200    7.6190   23.8360 H   0  0  0  0  0  0  0  0  0  0  0  0
    9.6020    8.4210   22.3250 H   0  0  0  0  0  0  0  0  0  0  0  0
    7.8130    9.0050   25.6410 H   0  0  0  0  0  0  0  0  0  0  0  0
    6.4350   11.0560   27.0970 H   0  0  0  0  0  0  0  0  0  0  0  0
    6.5410   13.7190   26.8520 H   0  0  0  0  0  0  0  0  0  0  0  0
    8.1550   14.4760   22.8940 H   0  0  0  0  0  0  0  0  0  0  0  0
    9.4460   15.1280   21.9490 H   0  0  0  0  0  0  0  0  0  0  0  0
   10.4660   10.7780   22.5190 H   0  0  0  0  0  0  0  0  0  0  0  0
  1  2  1  0
  2  3  2  0
  3  4  1  0
  4  5  2  0
  5  6  1  0
  6  7  1  0
  7  8  2  0
  8  9  1  0
  9 10  1  0
 10 11  1  0
 10 12  2  0
  9 13  2  0
 13  2  1  0
  8  4  1  0
  1 14  1  0
  1 15  1  0
  1 16  1  0
  3 17  1  0
  5 18  1  0
  6 19  1  0
 11 20  1  0
 11 21  1  0
 13 22  1  0
A    1
 C1 
A    2
 C2 
A    3
 C3 
A    4
 C4 
A    5
 C5 
A    6
 N1 
A    7
 N2 
A    8
 C6 
A    9
 C7 
A   10
 C8 
A   11
 N3 
A   12
 O1 
A   13
 C9 
A   14
 H1 
A   15
 H2 
A   16
 H3 
A   17
 H4 
A   18
 H5 
A   19
 H6 
A   20
 H7 
A   21
 H8 
A   22
 H9 
M  END
>  <ref_pdb>  (71) 
x0554_0A

>  <ref_mols>  (71) 
x0566_0A,x0451_0A

>  <original SMILES>  (71) 
Cc1cc(C(N)=O)c2n[nH]cc2c1

>  <rationale>  (71) 
info cluster #8 (rank 8); hbond:T126; hydroph_interaction:D109+V124; 

>  <cluster_rank>  (71) 
8

>  <N_interactions>  (71) 
3

>  <N_interactions_lost>  (71) 
0

>  <∆∆G>  (71) 
-5.189756

>  <comRMSD>  (71) 
0.680272

>  <N_rotatable_bonds>  (71) 
2

>  <N_unconstrained_atoms>  (71) 
0

>  <N_constrained_atoms>  (71) 
14

$$$$
Z2087500821
     RDKit          3D

 24 25  0  0  0  0  0  0  0  0999 V2000
   11.9110   14.4090   22.4830 C   0  0  0  0  0  0  0  0  0  0  0  0
   11.1320   13.5860   23.5380 C   0  0  0  0  0  0  0  0  0  0  0  0
   11.1320   13.9030   24.7180 O   0  0  0  0  0  0  0  0  0  0  0  0
   10.4910   12.5220   22.9460 N   0  0  0  0  0  0  0  0  0  0  0  0
    9.8210   11.3950   23.4970 C   0  0  0  0  0  0  0  0  0  0  0  0
   10.2250    9.9750   23.0880 C   0  0  0  0  0  0  0  0  0  0  0  0
    9.5940    8.8620   23.5860 C   0  0  0  0  0  0  0  0  0  0  0  0
    8.5890    9.0530   24.4630 C   0  0  0  0  0  0  0  0  0  0  0  0
    8.1440   10.2770   24.8930 C   0  0  0  0  0  0  0  0  0  0  0  0
    6.9930   10.2260   25.8730 C   0  0  0  0  0  0  0  0  0  0  0  0
    6.4140   11.5460   26.4240 C   0  0  0  0  0  0  0  0  0  0  0  0
    4.9940   11.7150   27.6490 Br  0  0  0  0  0  0  0  0  0  0  0  0
    7.1650   12.5970   25.8300 C   0  0  0  0  0  0  0  0  0  0  0  0
    8.2280   12.5960   24.9190 N   0  0  0  0  0  0  0  0  0  0  0  0
    8.7170   11.4620   24.4520 C   0  0  0  0  0  0  0  0  0  0  0  0
   12.9730   14.4510   22.7380 H   0  0  0  0  0  0  0  0  0  0  0  0
   11.5430   15.4390   22.4160 H   0  0  0  0  0  0  0  0  0  0  0  0
   11.8170   13.9590   21.4850 H   0  0  0  0  0  0  0  0  0  0  0  0
   10.8410   12.3320   22.0040 H   0  0  0  0  0  0  0  0  0  0  0  0
   11.0260    9.7950   22.3830 H   0  0  0  0  0  0  0  0  0  0  0  0
    9.9020    7.8670   23.2780 H   0  0  0  0  0  0  0  0  0  0  0  0
    8.1130    8.1670   24.8450 H   0  0  0  0  0  0  0  0  0  0  0  0
    6.5740    9.2790   26.1890 H   0  0  0  0  0  0  0  0  0  0  0  0
    6.8910   13.6090   26.1090 H   0  0  0  0  0  0  0  0  0  0  0  0
  1  2  1  0
  2  3  2  0
  2  4  1  0
  4  5  1  0
  5  6  2  0
  6  7  1  0
  7  8  2  0
  8  9  1  0
  9 10  2  0
 10 11  1  0
 11 12  1  0
 11 13  2  0
 13 14  1  0
 14 15  2  0
 15  5  1  0
 15  9  1  0
  1 16  1  0
  1 17  1  0
  1 18  1  0
  4 19  1  0
  6 20  1  0
  7 21  1  0
  8 22  1  0
 10 23  1  0
 13 24  1  0
A    1
 C1 
A    2
 C2 
A    3
 O1 
A    4
 N1 
A    5
 C3 
A    6
 C4 
A    7
 C5 
A    8
 C6 
A    9
 C7 
A   10
 C8 
A   11
 C9 
A   12
BR1 
A   13
 C10
A   14
 N2 
A   15
 C11
A   16
 H1 
A   17
 H2 
A   18
 H3 
A   19
 H4 
A   20
 H5 
A   21
 H6 
A   22
 H7 
A   23
 H8 
A   24
 H9 
M  END
>  <ref_pdb>  (72) 
x0554_0A

>  <ref_mols>  (72) 
x0554_0A,x0451_0A

>  <original SMILES>  (72) 
CC(=O)Nc1cccc2cc(Br)cnc12

>  <rationale>  (72) 
info cluster #5 (rank 8); hbond:S125; hydroph_interaction:Y89+D109; 

>  <cluster_rank>  (72) 
8

>  <N_interactions>  (72) 
3

>  <N_interactions_lost>  (72) 
1

>  <∆∆G>  (72) 
-8.274498

>  <comRMSD>  (72) 
0.79327

>  <N_rotatable_bonds>  (72) 
2

>  <N_unconstrained_atoms>  (72) 
1

>  <N_constrained_atoms>  (72) 
16

$$$$
Z5293336576
     RDKit          3D

 27 28  0  0  0  0  0  0  0  0999 V2000
   10.7600   14.6680   19.8430 N   0  0  0  0  0  0  0  0  0  0  0  0
   10.5040   15.4120   20.9580 C   0  0  0  0  0  0  0  0  0  0  0  0
   10.0940   16.7760   20.9360 O   0  0  0  0  0  0  0  0  0  0  0  0
   10.6880   14.6830   22.2790 C   0  0  0  0  0  0  0  0  0  0  0  0
   10.7690   15.5250   23.3400 O   0  0  0  0  0  0  0  0  0  0  0  0
   10.7400   13.3120   22.2630 N   0  0  0  0  0  0  0  0  0  0  0  0
   11.0930   12.5980   23.4530 C   0  0  0  0  0  0  0  0  0  0  0  0
   10.0490   11.5460   23.8600 C   0  0  0  0  0  0  0  0  0  0  0  0
   10.2540   10.0790   23.4040 C   0  0  0  0  0  0  0  0  0  0  0  0
    9.3020    9.1710   23.8200 C   0  0  0  0  0  0  0  0  0  0  0  0
    8.1920    9.6570   24.6430 C   0  0  0  0  0  0  0  0  0  0  0  0
    7.9770   10.9480   25.0480 C   0  0  0  0  0  0  0  0  0  0  0  0
    8.9200   11.9200   24.6510 C   0  0  0  0  0  0  0  0  0  0  0  0
    8.5290   13.1510   25.1560 N   0  0  0  0  0  0  0  0  0  0  0  0
    7.3130   12.9770   25.8930 C   0  0  0  0  0  0  0  0  0  0  0  0
    6.9650   11.5730   25.8240 C   0  0  0  0  0  0  0  0  0  0  0  0
   10.1780   14.7920   19.0260 H   0  0  0  0  0  0  0  0  0  0  0  0
   11.6740   14.2380   19.7440 H   0  0  0  0  0  0  0  0  0  0  0  0
   10.9250   12.8470   21.3720 H   0  0  0  0  0  0  0  0  0  0  0  0
   12.0380   12.0820   23.2560 H   0  0  0  0  0  0  0  0  0  0  0  0
   11.2270   13.3320   24.2500 H   0  0  0  0  0  0  0  0  0  0  0  0
   11.0910    9.7670   22.8000 H   0  0  0  0  0  0  0  0  0  0  0  0
    9.4640    8.1380   23.4940 H   0  0  0  0  0  0  0  0  0  0  0  0
    7.5220    8.8720   24.9220 H   0  0  0  0  0  0  0  0  0  0  0  0
    9.0250   14.0210   25.0210 H   0  0  0  0  0  0  0  0  0  0  0  0
    6.7430   13.7430   26.4160 H   0  0  0  0  0  0  0  0  0  0  0  0
    6.0840   11.1430   26.2970 H   0  0  0  0  0  0  0  0  0  0  0  0
  1  2  1  0
  2  3  2  0
  2  4  1  0
  4  5  2  0
  4  6  1  0
  6  7  1  0
  7  8  1  0
  8  9  2  0
  9 10  1  0
 10 11  2  0
 11 12  1  0
 12 13  2  0
 13 14  1  0
 14 15  1  0
 15 16  2  0
 13  8  1  0
 16 12  1  0
  1 17  1  0
  1 18  1  0
  6 19  1  0
  7 20  1  0
  7 21  1  0
  9 22  1  0
 10 23  1  0
 11 24  1  0
 14 25  1  0
 15 26  1  0
 16 27  1  0
A    1
 N1 
A    2
 C1 
A    3
 O1 
A    4
 C2 
A    5
 O2 
A    6
 N2 
A    7
 C3 
A    8
 C4 
A    9
 C5 
A   10
 C6 
A   11
 C7 
A   12
 C8 
A   13
 C9 
A   14
 N3 
A   15
 C10
A   16
 C11
A   17
 H1 
A   18
 H2 
A   19
 H3 
A   20
 H4 
A   21
 H5 
A   22
 H6 
A   23
 H7 
A   24
 H8 
A   25
 H9 
A   26
 H10
A   27
 H11
M  END
>  <ref_pdb>  (73) 
x0554_0A

>  <ref_mols>  (73) 
x0554_0A

>  <original SMILES>  (73) 
NC(=O)C(=O)NCc1cccc2cc[nH]c12

>  <rationale>  (73) 
info cluster #0 (rank 8); hbond:S87+S125; 

>  <cluster_rank>  (73) 
8

>  <N_interactions>  (73) 
3

>  <N_interactions_lost>  (73) 
1

>  <∆∆G>  (73) 
-6.98619

>  <comRMSD>  (73) 
0.418835

>  <N_rotatable_bonds>  (73) 
2

>  <N_unconstrained_atoms>  (73) 
2

>  <N_constrained_atoms>  (73) 
14

$$$$
Z1389119304
     RDKit          3D

 34 34  0  0  0  0  0  0  0  0999 V2000
    9.9200   16.6830   20.6570 C   0  0  0  0  0  0  0  0  0  0  0  0
   10.1600   15.1830   20.7620 C   0  0  0  0  0  0  0  0  0  0  0  0
   11.0570   14.8280   19.7710 C   0  0  0  0  0  0  0  0  0  0  0  0
   10.8410   14.8970   22.0930 C   0  0  0  0  0  0  0  0  0  0  0  0
   11.0030   15.7710   22.9490 O   0  0  0  0  0  0  0  0  0  0  0  0
   11.2980   13.5160   22.2970 N   0  0  0  0  0  0  0  0  0  0  0  0
   10.7870   12.8930   23.3650 N   0  0  0  0  0  0  0  0  0  0  0  0
    9.4780   12.7600   23.3610 C   0  0  0  0  0  0  0  0  0  0  0  0
    8.8190   13.6000   22.7290 O   0  0  0  0  0  0  0  0  0  0  0  0
    8.7960   11.6440   24.0830 C   0  0  0  0  0  0  0  0  0  0  0  0
    7.6660   12.0190   24.9780 C   0  0  0  0  0  0  0  0  0  0  0  0
    7.1540   10.7500   25.5800 C   0  0  0  0  0  0  0  0  0  0  0  0
    5.9700   10.9120   26.5470 C   0  0  0  0  0  0  0  0  0  0  0  0
    5.2180    9.8750   27.0060 N   0  0  0  0  0  0  0  0  0  0  0  0
    5.7290   12.2100   26.8920 O   0  0  0  0  0  0  0  0  0  0  0  0
    7.9520    9.7310   25.0520 C   0  0  0  0  0  0  0  0  0  0  0  0
    8.9170   10.2550   24.1700 N   0  0  0  0  0  0  0  0  0  0  0  0
    9.8860    9.4220   23.4680 C   0  0  0  0  0  0  0  0  0  0  0  0
    9.8820   16.9820   19.6060 H   0  0  0  0  0  0  0  0  0  0  0  0
   10.7360   17.2190   21.1410 H   0  0  0  0  0  0  0  0  0  0  0  0
    8.9820   16.9550   21.1490 H   0  0  0  0  0  0  0  0  0  0  0  0
    9.1780   14.7600   20.9090 H   0  0  0  0  0  0  0  0  0  0  0  0
   10.8810   13.8560   19.2990 H   0  0  0  0  0  0  0  0  0  0  0  0
   11.1310   15.5750   18.9720 H   0  0  0  0  0  0  0  0  0  0  0  0
   12.0560   14.7830   20.2200 H   0  0  0  0  0  0  0  0  0  0  0  0
   11.4590   12.8870   21.4960 H   0  0  0  0  0  0  0  0  0  0  0  0
   11.2880   13.0560   24.2360 H   0  0  0  0  0  0  0  0  0  0  0  0
    7.2690   13.0150   25.1740 H   0  0  0  0  0  0  0  0  0  0  0  0
    5.5720    8.9630   27.2600 H   0  0  0  0  0  0  0  0  0  0  0  0
    4.2730   10.1030   27.2720 H   0  0  0  0  0  0  0  0  0  0  0  0
    7.9240    8.6550   25.2240 H   0  0  0  0  0  0  0  0  0  0  0  0
   10.4290   10.0240   22.7420 H   0  0  0  0  0  0  0  0  0  0  0  0
   10.5890    9.0140   24.2000 H   0  0  0  0  0  0  0  0  0  0  0  0
    9.3470    8.6250   22.9440 H   0  0  0  0  0  0  0  0  0  0  0  0
  1  2  1  0
  2  3  1  0
  2  4  1  0
  4  5  2  0
  4  6  1  0
  6  7  1  0
  7  8  1  0
  8  9  2  0
  8 10  1  0
 10 11  2  0
 11 12  1  0
 12 13  1  0
 13 14  1  0
 13 15  2  0
 12 16  2  0
 16 17  1  0
 17 18  1  0
 17 10  1  0
  1 19  1  0
  1 20  1  0
  1 21  1  0
  2 22  1  0
  3 23  1  0
  3 24  1  0
  3 25  1  0
  6 26  1  0
  7 27  1  0
 11 28  1  0
 14 29  1  0
 14 30  1  0
 16 31  1  0
 18 32  1  0
 18 33  1  0
 18 34  1  0
A    1
 C1 
A    2
 C2 
A    3
 C3 
A    4
 C4 
A    5
 O1 
A    6
 N1 
A    7
 N2 
A    8
 C5 
A    9
 O2 
A   10
 C6 
A   11
 C7 
A   12
 C8 
A   13
 C9 
A   14
 N3 
A   15
 O3 
A   16
 C10
A   17
 N4 
A   18
 C11
A   19
 H1 
A   20
 H2 
A   21
 H3 
A   22
 H4 
A   23
 H5 
A   24
 H6 
A   25
 H7 
A   26
 H8 
A   27
 H9 
A   28
 H10
A   29
 H11
A   30
 H12
A   31
 H13
A   32
 H14
A   33
 H15
A   34
 H16
M  END
>  <ref_pdb>  (74) 
x0554_0A

>  <ref_mols>  (74) 
x0556_0A

>  <original SMILES>  (74) 
CC(C)C(=O)NNC(=O)c1cc(C(N)=O)cn1C

>  <rationale>  (74) 
info cluster #2 (rank 8); hbond:H21+S87+S105+G127; hydroph_interaction:Y90; 

>  <cluster_rank>  (74) 
8

>  <N_interactions>  (74) 
5

>  <N_interactions_lost>  (74) 
2

>  <∆∆G>  (74) 
-10.369884

>  <comRMSD>  (74) 
0.448623

>  <N_rotatable_bonds>  (74) 
6

>  <N_unconstrained_atoms>  (74) 
3

>  <N_constrained_atoms>  (74) 
16

$$$$
PV_002929090681
     RDKit          3D

 35 35  0  0  0  0  0  0  0  0999 V2000
   10.2220    8.7680   23.1810 C   0  0  0  0  0  0  0  0  0  0  0  0
    9.3930    9.8870   23.7450 C   0  0  0  0  0  0  0  0  0  0  0  0
    8.3840    9.6480   24.5740 N   0  0  0  0  0  0  0  0  0  0  0  0
    7.8910   10.8690   24.8560 N   0  0  0  0  0  0  0  0  0  0  0  0
    6.7640   10.9580   25.7570 C   0  0  0  0  0  0  0  0  0  0  0  0
    8.5740   11.8870   24.2040 C   0  0  0  0  0  0  0  0  0  0  0  0
    8.2800   13.3990   24.2740 C   0  0  0  0  0  0  0  0  0  0  0  0
    8.5630   13.9750   22.9480 N   0  0  0  0  0  0  0  0  0  0  0  0
    9.7020   14.7170   22.6270 C   0  0  0  0  0  0  0  0  0  0  0  0
   10.6290   14.9390   23.3930 O   0  0  0  0  0  0  0  0  0  0  0  0
    9.6300   15.2040   21.3270 N   0  0  0  0  0  0  0  0  0  0  0  0
   10.6500   14.9750   20.3020 C   0  0  0  0  0  0  0  0  0  0  0  0
   10.3540   15.5810   19.0880 C   0  0  0  0  0  0  0  0  0  0  0  0
   11.4550   15.3760   18.2290 C   0  0  0  0  0  0  0  0  0  0  0  0
   10.1070   17.0230   19.2300 N   0  0  0  0  0  0  0  0  0  0  0  0
    9.5560   11.2510   23.4930 C   0  0  0  0  0  0  0  0  0  0  0  0
    9.5850    7.9100   22.9460 H   0  0  0  0  0  0  0  0  0  0  0  0
   10.9750    8.4470   23.8960 H   0  0  0  0  0  0  0  0  0  0  0  0
   10.7250    9.0860   22.2600 H   0  0  0  0  0  0  0  0  0  0  0  0
    6.2760   11.9240   25.6150 H   0  0  0  0  0  0  0  0  0  0  0  0
    7.1380   10.8590   26.7770 H   0  0  0  0  0  0  0  0  0  0  0  0
    6.0530   10.1500   25.5490 H   0  0  0  0  0  0  0  0  0  0  0  0
    7.2370   13.5980   24.5490 H   0  0  0  0  0  0  0  0  0  0  0  0
    8.9190   13.8940   25.0130 H   0  0  0  0  0  0  0  0  0  0  0  0
    8.0230   13.6370   22.1570 H   0  0  0  0  0  0  0  0  0  0  0  0
    9.0150   15.9930   21.1950 H   0  0  0  0  0  0  0  0  0  0  0  0
   11.6060   15.3570   20.6810 H   0  0  0  0  0  0  0  0  0  0  0  0
   10.7500   13.8910   20.1810 H   0  0  0  0  0  0  0  0  0  0  0  0
    9.4690   15.1280   18.6340 H   0  0  0  0  0  0  0  0  0  0  0  0
   11.7260   16.2900   17.6880 H   0  0  0  0  0  0  0  0  0  0  0  0
   11.2310   14.6100   17.4820 H   0  0  0  0  0  0  0  0  0  0  0  0
   12.3370   15.0370   18.7850 H   0  0  0  0  0  0  0  0  0  0  0  0
    9.1080   17.2120   19.2720 H   0  0  0  0  0  0  0  0  0  0  0  0
   10.4590   17.5090   18.4050 H   0  0  0  0  0  0  0  0  0  0  0  0
   10.3000   11.7150   22.8600 H   0  0  0  0  0  0  0  0  0  0  0  0
  1  2  1  0
  2  3  2  0
  3  4  1  0
  4  5  1  0
  4  6  1  0
  6  7  1  0
  7  8  1  0
  8  9  1  0
  9 10  2  0
  9 11  1  0
 11 12  1  0
 12 13  1  0
 13 14  1  0
 13 15  1  0
  6 16  2  0
 16  2  1  0
  1 17  1  0
  1 18  1  0
  1 19  1  0
  5 20  1  0
  5 21  1  0
  5 22  1  0
  7 23  1  0
  7 24  1  0
  8 25  1  0
 11 26  1  0
 12 27  1  0
 12 28  1  0
 13 29  1  0
 14 30  1  0
 14 31  1  0
 14 32  1  0
 15 33  1  0
 15 34  1  0
 16 35  1  0
A    1
 C1 
A    2
 C2 
A    3
 N1 
A    4
 N2 
A    5
 C3 
A    6
 C4 
A    7
 C5 
A    8
 N3 
A    9
 C6 
A   10
 O1 
A   11
 N4 
A   12
 C7 
A   13
 C8 
A   14
 C9 
A   15
 N5 
A   16
 C10
A   17
 H1 
A   18
 H2 
A   19
 H3 
A   20
 H4 
A   21
 H5 
A   22
 H6 
A   23
 H7 
A   24
 H8 
A   25
 H9 
A   26
 H10
A   27
 H11
A   28
 H12
A   29
 H13
A   30
 H14
A   31
 H15
A   32
 H16
A   33
 H17
A   34
 H18
A   35
 H19
M  END
>  <ref_pdb>  (75) 
x0554_0A

>  <ref_mols>  (75) 
x0310_0A

>  <original SMILES>  (75) 
Cc1cc(CNC(=O)NCC(C)N)n(C)n1

>  <rationale>  (75) 
info cluster #7 (rank 8); hbond:S87+T126; hydroph_interaction:Y90+D109+V124+D39; 

>  <cluster_rank>  (75) 
8

>  <N_interactions>  (75) 
6

>  <N_interactions_lost>  (75) 
1

>  <∆∆G>  (75) 
-9.003345

>  <comRMSD>  (75) 
0.582077

>  <N_rotatable_bonds>  (75) 
8

>  <N_unconstrained_atoms>  (75) 
4

>  <N_constrained_atoms>  (75) 
13

$$$$
PV_002134983030
     RDKit          3D

 29 31  0  0  0  0  0  0  0  0999 V2000
    4.2250   17.9510   25.3760 C   0  0  0  0  0  0  0  0  0  0  0  0
    4.8430   16.5650   25.4640 C   0  0  0  0  0  0  0  0  0  0  0  0
    5.9390   16.2530   24.5800 C   0  0  0  0  0  0  0  0  0  0  0  0
    6.5630   15.1040   25.1810 O   0  0  0  0  0  0  0  0  0  0  0  0
    5.7420   14.6160   26.2650 N   0  0  0  0  0  0  0  0  0  0  0  0
    5.6750   13.1490   26.2940 C   0  0  0  0  0  0  0  0  0  0  0  0
    4.7560   12.5090   26.8080 O   0  0  0  0  0  0  0  0  0  0  0  0
    6.7500   12.4230   25.6680 C   0  0  0  0  0  0  0  0  0  0  0  0
    7.0250   10.9850   25.7230 C   0  0  0  0  0  0  0  0  0  0  0  0
    8.1370   10.6800   24.9690 C   0  0  0  0  0  0  0  0  0  0  0  0
    8.8080    9.3760   24.6980 C   0  0  0  0  0  0  0  0  0  0  0  0
   10.0190    9.4620   23.7900 C   0  0  0  0  0  0  0  0  0  0  0  0
   10.4280   10.8280   23.2680 C   0  0  0  0  0  0  0  0  0  0  0  0
    9.7860   12.0630   23.5390 C   0  0  0  0  0  0  0  0  0  0  0  0
    8.5860   11.8390   24.4490 C   0  0  0  0  0  0  0  0  0  0  0  0
    7.7160   12.9720   24.8860 N   0  0  0  0  0  0  0  0  0  0  0  0
    4.5270   15.4100   26.3270 C   0  0  0  0  0  0  0  0  0  0  0  0
    3.3920   18.2100   26.0370 H   0  0  0  0  0  0  0  0  0  0  0  0
    4.6070   18.6870   24.6620 H   0  0  0  0  0  0  0  0  0  0  0  0
    6.6780   17.0600   24.5670 H   0  0  0  0  0  0  0  0  0  0  0  0
    5.7170   15.9840   23.5480 H   0  0  0  0  0  0  0  0  0  0  0  0
    6.4400   10.2530   26.2680 H   0  0  0  0  0  0  0  0  0  0  0  0
    8.4700    8.4410   25.1090 H   0  0  0  0  0  0  0  0  0  0  0  0
   10.5810    8.5680   23.5250 H   0  0  0  0  0  0  0  0  0  0  0  0
   11.2980   10.8690   22.6230 H   0  0  0  0  0  0  0  0  0  0  0  0
   10.1070   13.0210   23.1480 H   0  0  0  0  0  0  0  0  0  0  0  0
    7.8050   13.9500   24.6540 H   0  0  0  0  0  0  0  0  0  0  0  0
    4.3340   15.7250   27.3590 H   0  0  0  0  0  0  0  0  0  0  0  0
    3.6880   14.8200   25.9450 H   0  0  0  0  0  0  0  0  0  0  0  0
  1  2  2  0
  2  3  1  0
  3  4  1  0
  4  5  1  0
  5  6  1  0
  6  7  2  0
  6  8  1  0
  8  9  2  0
  9 10  1  0
 10 11  2  0
 11 12  1  0
 12 13  2  0
 13 14  1  0
 14 15  2  0
 15 16  1  0
  5 17  1  0
 17  2  1  0
 16  8  1  0
 15 10  1  0
  1 18  1  0
  1 19  1  0
  3 20  1  0
  3 21  1  0
  9 22  1  0
 11 23  1  0
 12 24  1  0
 13 25  1  0
 14 26  1  0
 16 27  1  0
 17 28  1  0
 17 29  1  0
A    1
 C1 
A    2
 C2 
A    3
 C3 
A    4
 O1 
A    5
 N1 
A    6
 C4 
A    7
 O2 
A    8
 C5 
A    9
 C6 
A   10
 C7 
A   11
 C8 
A   12
 C9 
A   13
 C10
A   14
 C11
A   15
 C12
A   16
 N2 
A   17
 C13
A   18
 H1 
A   19
 H2 
A   20
 H3 
A   21
 H4 
A   22
 H5 
A   23
 H6 
A   24
 H7 
A   25
 H8 
A   26
 H9 
A   27
 H10
A   28
 H11
A   29
 H12
M  END
>  <ref_pdb>  (76) 
x0554_0A

>  <ref_mols>  (76) 
x0554_0A,x0416_0A

>  <original SMILES>  (76) 
C=C1CON(C(=O)c2cc3ccccc3[nH]2)C1

>  <rationale>  (76) 
info cluster #6 (rank 8); hydroph_interaction:E85; 

>  <cluster_rank>  (76) 
8

>  <N_interactions>  (76) 
1

>  <N_interactions_lost>  (76) 
0

>  <∆∆G>  (76) 
-4.273912

>  <comRMSD>  (76) 
0.987742

>  <N_rotatable_bonds>  (76) 
1

>  <N_unconstrained_atoms>  (76) 
5

>  <N_constrained_atoms>  (76) 
14

$$$$
Z2488809575
     RDKit          3D

 30 31  0  0  0  0  0  0  0  0999 V2000
   10.9910   14.8750   19.7480 C   0  0  0  0  0  0  0  0  0  0  0  0
   10.1190   15.3740   20.8870 C   0  0  2  0  0  0  0  0  0  0  0  0
    9.9600   16.7550   20.8760 N   0  0  0  0  0  0  0  0  0  0  0  0
   10.6210   14.8520   22.2110 C   0  0  0  0  0  0  0  0  0  0  0  0
   10.9300   15.5900   23.1460 O   0  0  0  0  0  0  0  0  0  0  0  0
   10.6970   13.4660   22.2610 N   0  0  0  0  0  0  0  0  0  0  0  0
   10.8710   12.7680   23.4250 C   0  0  0  0  0  0  0  0  0  0  0  0
   10.0410   11.6930   23.7810 C   0  0  0  0  0  0  0  0  0  0  0  0
   10.2770   10.3810   23.3660 C   0  0  0  0  0  0  0  0  0  0  0  0
    9.3590    9.2660   23.8020 C   0  0  0  0  0  0  0  0  0  0  0  0
    8.2920    9.5970   24.6140 C   0  0  0  0  0  0  0  0  0  0  0  0
    8.0350   10.8910   25.0240 C   0  0  0  0  0  0  0  0  0  0  0  0
    8.9020   11.9140   24.6080 C   0  0  0  0  0  0  0  0  0  0  0  0
    8.3910   13.4360   25.2390 S   0  0  0  0  0  0  0  0  0  0  0  0
    7.0570   12.7640   26.0410 C   0  0  0  0  0  0  0  0  0  0  0  0
    6.9800   11.3900   25.8480 C   0  0  0  0  0  0  0  0  0  0  0  0
   10.7980   13.8220   19.5660 H   0  0  0  0  0  0  0  0  0  0  0  0
   12.0500   14.9950   19.9970 H   0  0  0  0  0  0  0  0  0  0  0  0
   10.7760   15.4320   18.8320 H   0  0  0  0  0  0  0  0  0  0  0  0
    9.1190   14.9560   20.7470 H   0  0  0  0  0  0  0  0  0  0  0  0
    8.9600   16.9560   20.9610 H   0  0  0  0  0  0  0  0  0  0  0  0
   10.3550   17.1830   21.7150 H   0  0  0  0  0  0  0  0  0  0  0  0
   10.9000   12.9430   21.4110 H   0  0  0  0  0  0  0  0  0  0  0  0
   10.8140   13.5030   24.2370 H   0  0  0  0  0  0  0  0  0  0  0  0
   11.9140   12.4210   23.4330 H   0  0  0  0  0  0  0  0  0  0  0  0
   11.1250   10.1330   22.7250 H   0  0  0  0  0  0  0  0  0  0  0  0
    9.5290    8.2290   23.4930 H   0  0  0  0  0  0  0  0  0  0  0  0
    7.6320    8.8130   24.9440 H   0  0  0  0  0  0  0  0  0  0  0  0
    6.3940   13.3930   26.6150 H   0  0  0  0  0  0  0  0  0  0  0  0
    6.1950   10.7650   26.2840 H   0  0  0  0  0  0  0  0  0  0  0  0
  1  2  1  0
  2  3  1  0
  2  4  1  0
  4  5  2  0
  4  6  1  0
  6  7  1  0
  7  8  1  0
  8  9  2  0
  9 10  1  0
 10 11  2  0
 11 12  1  0
 12 13  2  0
 13 14  1  0
 14 15  1  0
 15 16  2  0
 13  8  1  0
 16 12  1  0
  1 17  1  0
  1 18  1  0
  1 19  1  0
  2 20  1  6
  3 21  1  0
  3 22  1  0
  6 23  1  0
  7 24  1  0
  7 25  1  0
  9 26  1  0
 10 27  1  0
 11 28  1  0
 15 29  1  0
 16 30  1  0
A    1
 C1 
A    2
 C2 
A    3
 N1 
A    4
 C3 
A    5
 O1 
A    6
 N2 
A    7
 C4 
A    8
 C5 
A    9
 C6 
A   10
 C7 
A   11
 C8 
A   12
 C9 
A   13
 C10
A   14
 S1 
A   15
 C11
A   16
 C12
A   17
 H1 
A   18
 H2 
A   19
 H3 
A   20
 H4 
A   21
 H5 
A   22
 H6 
A   23
 H7 
A   24
 H8 
A   25
 H9 
A   26
 H10
A   27
 H11
A   28
 H12
A   29
 H13
A   30
 H14
M  END
>  <ref_pdb>  (77) 
x0554_0A

>  <ref_mols>  (77) 
x0554_0A

>  <original SMILES>  (77) 
C[C@H](N)C(=O)NCc1cccc2ccsc12

>  <rationale>  (77) 
info cluster #3 (rank 8); hbond:S87+S125; 

>  <cluster_rank>  (77) 
8

>  <N_interactions>  (77) 
3

>  <N_interactions_lost>  (77) 
1

>  <∆∆G>  (77) 
-9.320698

>  <comRMSD>  (77) 
0.454668

>  <N_rotatable_bonds>  (77) 
5

>  <N_unconstrained_atoms>  (77) 
2

>  <N_constrained_atoms>  (77) 
14

$$$$
Z1891774463
     RDKit          3D

 24 24  0  0  0  0  0  0  0  0999 V2000
   11.2230   14.5670   20.3020 C   0  0  0  0  0  0  0  0  0  0  0  0
   10.1870   14.5820   21.3210 N   0  0  0  0  0  0  0  0  0  0  0  0
   10.4470   14.2070   22.6420 C   0  0  0  0  0  0  0  0  0  0  0  0
   11.5300   14.4140   23.1540 O   0  0  0  0  0  0  0  0  0  0  0  0
    9.2800   13.6160   23.4080 C   0  0  0  0  0  0  0  0  0  0  0  0
    8.0550   14.0690   22.7450 N   0  0  0  0  0  0  0  0  0  0  0  0
    9.1880   12.2230   23.7690 C   0  0  0  0  0  0  0  0  0  0  0  0
   10.1060   11.1380   23.3240 C   0  0  0  0  0  0  0  0  0  0  0  0
    9.9470    9.7810   23.7130 C   0  0  0  0  0  0  0  0  0  0  0  0
    8.8150    9.4600   24.6060 C   0  0  0  0  0  0  0  0  0  0  0  0
    7.9760   10.4860   25.0130 C   0  0  0  0  0  0  0  0  0  0  0  0
    8.1290   11.8240   24.6260 C   0  0  0  0  0  0  0  0  0  0  0  0
   12.1020   14.0350   20.6790 H   0  0  0  0  0  0  0  0  0  0  0  0
   10.8580   14.0480   19.4100 H   0  0  0  0  0  0  0  0  0  0  0  0
   11.5150   15.5830   20.0170 H   0  0  0  0  0  0  0  0  0  0  0  0
    9.4050   15.2050   21.1550 H   0  0  0  0  0  0  0  0  0  0  0  0
    9.3180   14.1480   24.3610 H   0  0  0  0  0  0  0  0  0  0  0  0
    7.4240   13.2660   22.6830 H   0  0  0  0  0  0  0  0  0  0  0  0
    7.5760   14.8130   23.2570 H   0  0  0  0  0  0  0  0  0  0  0  0
   10.9450   11.3710   22.6650 H   0  0  0  0  0  0  0  0  0  0  0  0
   10.6800    9.0680   23.3210 H   0  0  0  0  0  0  0  0  0  0  0  0
    8.6650    8.4240   24.9260 H   0  0  0  0  0  0  0  0  0  0  0  0
    7.1420   10.2330   25.6770 H   0  0  0  0  0  0  0  0  0  0  0  0
    7.4150   12.5550   24.9970 H   0  0  0  0  0  0  0  0  0  0  0  0
  1  2  1  0
  2  3  1  0
  3  4  2  0
  3  5  1  0
  5  6  1  0
  5  7  1  0
  7  8  2  0
  8  9  1  0
  9 10  2  0
 10 11  1  0
 11 12  2  0
 12  7  1  0
  1 13  1  0
  1 14  1  0
  1 15  1  0
  2 16  1  0
  5 17  1  0
  6 18  1  0
  6 19  1  0
  8 20  1  0
  9 21  1  0
 10 22  1  0
 11 23  1  0
 12 24  1  0
A    1
 C1 
A    2
 N1 
A    3
 C2 
A    4
 O1 
A    5
 C3 
A    6
 N2 
A    7
 C4 
A    8
 C5 
A    9
 C6 
A   10
 C7 
A   11
 C8 
A   12
 C9 
A   13
 H1 
A   14
 H2 
A   15
 H3 
A   16
 H4 
A   17
 H5 
A   18
 H6 
A   19
 H7 
A   20
 H8 
A   21
 H9 
A   22
 H10
A   23
 H11
A   24
 H12
M  END
>  <ref_pdb>  (78) 
x0554_0A

>  <ref_mols>  (78) 
x0566_0A

>  <original SMILES>  (78) 
CNC(=O)C(N)c1ccccc1

>  <rationale>  (78) 
info cluster #1 (rank 8); hbond:G127+T126; 

>  <cluster_rank>  (78) 
8

>  <N_interactions>  (78) 
3

>  <N_interactions_lost>  (78) 
0

>  <∆∆G>  (78) 
-5.283622

>  <comRMSD>  (78) 
0.880553

>  <N_rotatable_bonds>  (78) 
4

>  <N_unconstrained_atoms>  (78) 
0

>  <N_constrained_atoms>  (78) 
13

$$$$
Z4875247928
     RDKit          3D

 25 26  0  0  0  0  0  0  0  0999 V2000
   12.0990   14.6710   21.9470 C   0  0  0  0  0  0  0  0  0  0  0  0
   10.7280   14.4290   22.2780 O   0  0  0  0  0  0  0  0  0  0  0  0
   10.4860   14.1460   23.5920 C   0  0  0  0  0  0  0  0  0  0  0  0
   10.6700   14.9280   24.5060 O   0  0  0  0  0  0  0  0  0  0  0  0
    9.9640   12.7550   23.7980 C   0  0  0  0  0  0  0  0  0  0  0  0
   10.6610   11.7620   23.1260 C   0  0  0  0  0  0  0  0  0  0  0  0
   10.0110   10.5310   23.4320 N   0  0  0  0  0  0  0  0  0  0  0  0
   10.3950    9.2310   22.9200 C   0  0  0  0  0  0  0  0  0  0  0  0
    8.9900   10.7920   24.2700 C   0  0  0  0  0  0  0  0  0  0  0  0
    8.1010    9.8100   24.8330 C   0  0  0  0  0  0  0  0  0  0  0  0
    8.5580    8.2490   24.2960 Cl  0  0  0  0  0  0  0  0  0  0  0  0
    7.0690   10.2350   25.6870 C   0  0  0  0  0  0  0  0  0  0  0  0
    6.9560   11.6120   25.9580 C   0  0  0  0  0  0  0  0  0  0  0  0
    7.8500   12.5500   25.3970 C   0  0  0  0  0  0  0  0  0  0  0  0
    8.8910   12.1420   24.5370 C   0  0  0  0  0  0  0  0  0  0  0  0
   12.3470   14.1810   21.0010 H   0  0  0  0  0  0  0  0  0  0  0  0
   12.2920   15.7440   21.8520 H   0  0  0  0  0  0  0  0  0  0  0  0
   12.7200   14.2520   22.7430 H   0  0  0  0  0  0  0  0  0  0  0  0
   11.5220   11.8240   22.4820 H   0  0  0  0  0  0  0  0  0  0  0  0
   11.1140    9.3790   22.1210 H   0  0  0  0  0  0  0  0  0  0  0  0
   10.8040    8.6320   23.7370 H   0  0  0  0  0  0  0  0  0  0  0  0
    9.5270    8.7240   22.5030 H   0  0  0  0  0  0  0  0  0  0  0  0
    6.3710    9.5250   26.1310 H   0  0  0  0  0  0  0  0  0  0  0  0
    6.1660   11.9640   26.6160 H   0  0  0  0  0  0  0  0  0  0  0  0
    7.7210   13.6030   25.6400 H   0  0  0  0  0  0  0  0  0  0  0  0
  1  2  1  0
  2  3  1  0
  3  4  2  0
  3  5  1  0
  5  6  2  0
  6  7  1  0
  7  8  1  0
  7  9  1  0
  9 10  2  0
 10 11  1  0
 10 12  1  0
 12 13  2  0
 13 14  1  0
 14 15  2  0
 15  5  1  0
 15  9  1  0
  1 16  1  0
  1 17  1  0
  1 18  1  0
  6 19  1  0
  8 20  1  0
  8 21  1  0
  8 22  1  0
 12 23  1  0
 13 24  1  0
 14 25  1  0
A    1
 C1 
A    2
 O1 
A    3
 C2 
A    4
 O2 
A    5
 C3 
A    6
 C4 
A    7
 N1 
A    8
 C5 
A    9
 C6 
A   10
 C7 
A   11
CL1 
A   12
 C8 
A   13
 C9 
A   14
 C10
A   15
 C11
A   16
 H1 
A   17
 H2 
A   18
 H3 
A   19
 H4 
A   20
 H5 
A   21
 H6 
A   22
 H7 
A   23
 H8 
A   24
 H9 
A   25
 H10
M  END
>  <ref_pdb>  (79) 
x0554_0A

>  <ref_mols>  (79) 
x0451_0A,x0451_0A

>  <original SMILES>  (79) 
COC(=O)c1cn(C)c2c(Cl)cccc12

>  <rationale>  (79) 
info cluster #4 (rank 8); hbond:S87; saltbridge:H21; 

>  <cluster_rank>  (79) 
8

>  <N_interactions>  (79) 
2

>  <N_interactions_lost>  (79) 
0

>  <∆∆G>  (79) 
-5.903117

>  <comRMSD>  (79) 
0.815578

>  <N_rotatable_bonds>  (79) 
3

>  <N_unconstrained_atoms>  (79) 
1

>  <N_constrained_atoms>  (79) 
14

$$$$
Z3365802281
     RDKit          3D

 28 28  0  0  0  0  0  0  0  0999 V2000
   11.0060   14.7780   19.7960 C   0  0  0  0  0  0  0  0  0  0  0  0
   10.8870   15.4850   21.1370 C   0  0  1  0  0  0  0  0  0  0  0  0
    9.9550   16.6210   21.0010 N   0  0  0  0  0  0  0  0  0  0  0  0
   10.4800   14.5180   22.2520 C   0  0  0  0  0  0  0  0  0  0  0  0
   11.3570   13.3390   22.3070 N   0  0  0  0  0  0  0  0  0  0  0  0
   11.6830   12.5890   23.7600 S   0  0  0  0  0  6  0  0  0  0  0  0
   11.7920   13.6360   24.7530 O   0  0  0  0  0  0  0  0  0  0  0  0
   12.7720   11.6770   23.5790 O   0  0  0  0  0  0  0  0  0  0  0  0
   10.2080   11.6650   24.1230 C   0  0  0  0  0  0  0  0  0  0  0  0
    9.0130   12.5110   24.4510 C   0  0  0  0  0  0  0  0  0  0  0  0
    7.7220   11.8670   24.8140 C   0  0  0  0  0  0  0  0  0  0  0  0
    7.6770   10.4820   24.8330 C   0  0  0  0  0  0  0  0  0  0  0  0
    8.8150    9.7120   24.5060 C   0  0  0  0  0  0  0  0  0  0  0  0
   10.0660   10.2520   24.1520 C   0  0  0  0  0  0  0  0  0  0  0  0
   10.6080   13.7680   19.8530 H   0  0  0  0  0  0  0  0  0  0  0  0
   10.4650   15.3160   19.0120 H   0  0  0  0  0  0  0  0  0  0  0  0
   12.0570   14.7070   19.4940 H   0  0  0  0  0  0  0  0  0  0  0  0
   11.8690   15.9160   21.3820 H   0  0  0  0  0  0  0  0  0  0  0  0
   10.0810   17.0520   20.0840 H   0  0  0  0  0  0  0  0  0  0  0  0
   10.2470   17.3360   21.6720 H   0  0  0  0  0  0  0  0  0  0  0  0
   10.5660   15.0220   23.2240 H   0  0  0  0  0  0  0  0  0  0  0  0
    9.4330   14.2180   22.1420 H   0  0  0  0  0  0  0  0  0  0  0  0
   11.3300   12.7060   21.5030 H   0  0  0  0  0  0  0  0  0  0  0  0
    9.0930   13.5990   24.4310 H   0  0  0  0  0  0  0  0  0  0  0  0
    6.8430   12.4630   25.0600 H   0  0  0  0  0  0  0  0  0  0  0  0
    6.7460   10.0010   25.1010 H   0  0  0  0  0  0  0  0  0  0  0  0
    8.6380    8.6390   24.5560 H   0  0  0  0  0  0  0  0  0  0  0  0
   10.8950    9.5880   23.9190 H   0  0  0  0  0  0  0  0  0  0  0  0
  1  2  1  0
  2  3  1  0
  2  4  1  0
  4  5  1  0
  5  6  1  0
  6  7  2  0
  6  8  2  0
  6  9  1  0
  9 10  2  0
 10 11  1  0
 11 12  2  0
 12 13  1  0
 13 14  2  0
 14  9  1  0
  1 15  1  0
  1 16  1  0
  1 17  1  0
  2 18  1  1
  3 19  1  0
  3 20  1  0
  4 21  1  0
  4 22  1  0
  5 23  1  0
 10 24  1  0
 11 25  1  0
 12 26  1  0
 13 27  1  0
 14 28  1  0
A    1
 C1 
A    2
 C2 
A    3
 N1 
A    4
 C3 
A    5
 N2 
A    6
 S1 
A    7
 O1 
A    8
 O2 
A    9
 C4 
A   10
 C5 
A   11
 C6 
A   12
 C7 
A   13
 C8 
A   14
 C9 
A   15
 H1 
A   16
 H2 
A   17
 H3 
A   18
 H4 
A   19
 H5 
A   20
 H6 
A   21
 H7 
A   22
 H8 
A   23
 H9 
A   24
 H10
A   25
 H11
A   26
 H12
A   27
 H13
A   28
 H14
M  END
>  <ref_pdb>  (80) 
x0554_0A

>  <ref_mols>  (80) 
x0566_0A

>  <original SMILES>  (80) 
C[C@@H](N)CNS(=O)(=O)c1ccccc1

>  <rationale>  (80) 
info cluster #9 (rank 8); hbond:H21+S87; 

>  <cluster_rank>  (80) 
8

>  <N_interactions>  (80) 
3

>  <N_interactions_lost>  (80) 
1

>  <∆∆G>  (80) 
-8.076934

>  <comRMSD>  (80) 
0.992171

>  <N_rotatable_bonds>  (80) 
6

>  <N_unconstrained_atoms>  (80) 
3

>  <N_constrained_atoms>  (80) 
14

$$$$
Z4990944741
     RDKit          3D

 26 26  0  0  0  0  0  0  0  0999 V2000
    9.3530   15.3190   21.5120 C   0  0  0  0  0  0  0  0  0  0  0  0
    8.8780   14.1980   22.2770 N   0  0  0  0  0  0  0  0  0  0  0  0
    9.8160   13.4540   22.9670 C   0  0  0  0  0  0  0  0  0  0  0  0
   11.0240   13.6790   22.9660 O   0  0  0  0  0  0  0  0  0  0  0  0
    9.2170   12.2750   23.7240 C   0  0  0  0  0  0  0  0  0  0  0  0
    9.9530   11.1200   23.3860 C   0  0  0  0  0  0  0  0  0  0  0  0
    9.4350    9.8970   24.0730 C   0  0  0  0  0  0  0  0  0  0  0  0
   10.1700    8.7650   23.7120 C   0  0  0  0  0  0  0  0  0  0  0  0
    8.3530    9.9300   24.9540 C   0  0  0  0  0  0  0  0  0  0  0  0
    7.6890   11.1300   25.2220 C   0  0  0  0  0  0  0  0  0  0  0  0
    6.4890   11.1280   26.1880 C   0  0  0  0  0  0  0  0  0  0  0  0
    6.0300    9.9070   26.5720 N   0  0  0  0  0  0  0  0  0  0  0  0
    5.9520   12.1570   26.5990 O   0  0  0  0  0  0  0  0  0  0  0  0
    8.1210   12.3150   24.6040 C   0  0  0  0  0  0  0  0  0  0  0  0
   10.0490   15.9020   22.1200 H   0  0  0  0  0  0  0  0  0  0  0  0
    9.8700   14.9770   20.6100 H   0  0  0  0  0  0  0  0  0  0  0  0
    8.5040   15.9540   21.2430 H   0  0  0  0  0  0  0  0  0  0  0  0
    8.1020   13.7060   21.8420 H   0  0  0  0  0  0  0  0  0  0  0  0
   10.8010   11.1070   22.6990 H   0  0  0  0  0  0  0  0  0  0  0  0
   10.5370    8.8960   22.6890 H   0  0  0  0  0  0  0  0  0  0  0  0
    9.4970    7.9040   23.6730 H   0  0  0  0  0  0  0  0  0  0  0  0
   11.0250    8.4960   24.3170 H   0  0  0  0  0  0  0  0  0  0  0  0
    8.0260    9.0180   25.4300 H   0  0  0  0  0  0  0  0  0  0  0  0
    5.2850    9.7960   27.2480 H   0  0  0  0  0  0  0  0  0  0  0  0
    6.0970    9.1930   25.8470 H   0  0  0  0  0  0  0  0  0  0  0  0
    7.6090   13.2560   24.8030 H   0  0  0  0  0  0  0  0  0  0  0  0
  1  2  1  0
  2  3  1  0
  3  4  2  0
  3  5  1  0
  5  6  2  0
  6  7  1  0
  7  8  1  0
  7  9  2  0
  9 10  1  0
 10 11  1  0
 11 12  1  0
 11 13  2  0
 10 14  2  0
 14  5  1  0
  1 15  1  0
  1 16  1  0
  1 17  1  0
  2 18  1  0
  6 19  1  0
  8 20  1  0
  8 21  1  0
  8 22  1  0
  9 23  1  0
 12 24  1  0
 12 25  1  0
 14 26  1  0
A    1
 C1 
A    2
 N1 
A    3
 C2 
A    4
 O1 
A    5
 C3 
A    6
 C4 
A    7
 C5 
A    8
 C6 
A    9
 C7 
A   10
 C8 
A   11
 C9 
A   12
 N2 
A   13
 O2 
A   14
 C10
A   15
 H1 
A   16
 H2 
A   17
 H3 
A   18
 H4 
A   19
 H5 
A   20
 H6 
A   21
 H7 
A   22
 H8 
A   23
 H9 
A   24
 H10
A   25
 H11
A   26
 H12
M  END
>  <ref_pdb>  (81) 
x0554_0A

>  <ref_mols>  (81) 
x0566_0A,x0556_0A

>  <original SMILES>  (81) 
CNC(=O)c1cc(C)cc(C(N)=O)c1

>  <rationale>  (81) 
info cluster #8 (rank 9); hbond:S105+T126; hydroph_interaction:D109+V124; 

>  <cluster_rank>  (81) 
9

>  <N_interactions>  (81) 
4

>  <N_interactions_lost>  (81) 
1

>  <∆∆G>  (81) 
-7.693077

>  <comRMSD>  (81) 
0.592999

>  <N_rotatable_bonds>  (81) 
4

>  <N_unconstrained_atoms>  (81) 
1

>  <N_constrained_atoms>  (81) 
14

$$$$
Z28487267
     RDKit          3D

 24 25  0  0  0  0  0  0  0  0999 V2000
   12.0590   14.2310   22.7560 C   0  0  0  0  0  0  0  0  0  0  0  0
   11.1300   13.4500   23.6150 C   0  0  0  0  0  0  0  0  0  0  0  0
   11.0670   13.6330   24.8190 O   0  0  0  0  0  0  0  0  0  0  0  0
   10.4000   12.5670   22.9410 N   0  0  0  0  0  0  0  0  0  0  0  0
    9.7870   11.4290   23.5100 C   0  0  0  0  0  0  0  0  0  0  0  0
   10.2340   10.2240   23.1340 C   0  0  0  0  0  0  0  0  0  0  0  0
    9.7020    8.8770   23.5920 C   0  0  0  0  0  0  0  0  0  0  0  0
    8.5660    9.0380   24.5600 C   0  0  0  0  0  0  0  0  0  0  0  0
    8.1460   10.3120   24.9130 C   0  0  0  0  0  0  0  0  0  0  0  0
    7.0160   10.3280   25.8680 C   0  0  0  0  0  0  0  0  0  0  0  0
    6.4620   11.4830   26.3360 C   0  0  0  0  0  0  0  0  0  0  0  0
    7.0670   12.6210   25.8270 C   0  0  0  0  0  0  0  0  0  0  0  0
    8.1780   12.6980   24.8840 N   0  0  0  0  0  0  0  0  0  0  0  0
    8.7040   11.5200   24.4380 C   0  0  0  0  0  0  0  0  0  0  0  0
   13.0630   14.2220   23.1850 H   0  0  0  0  0  0  0  0  0  0  0  0
   12.1140   13.8050   21.7480 H   0  0  0  0  0  0  0  0  0  0  0  0
   11.7420   15.2740   22.6520 H   0  0  0  0  0  0  0  0  0  0  0  0
   10.7100   12.3880   21.9830 H   0  0  0  0  0  0  0  0  0  0  0  0
   11.0630   10.2800   22.4200 H   0  0  0  0  0  0  0  0  0  0  0  0
   10.0990    7.9260   23.2540 H   0  0  0  0  0  0  0  0  0  0  0  0
    8.1490    8.1090   24.9260 H   0  0  0  0  0  0  0  0  0  0  0  0
    6.6000    9.3900   26.2210 H   0  0  0  0  0  0  0  0  0  0  0  0
    5.6360   11.5100   27.0360 H   0  0  0  0  0  0  0  0  0  0  0  0
    6.6330   13.5560   26.1960 H   0  0  0  0  0  0  0  0  0  0  0  0
  1  2  1  0
  2  3  2  0
  2  4  1  0
  4  5  1  0
  5  6  2  0
  6  7  1  0
  7  8  2  0
  8  9  1  0
  9 10  2  0
 10 11  1  0
 11 12  2  0
 12 13  1  0
 13 14  2  0
 14  5  1  0
 14  9  1  0
  1 15  1  0
  1 16  1  0
  1 17  1  0
  4 18  1  0
  6 19  1  0
  7 20  1  0
  8 21  1  0
 10 22  1  0
 11 23  1  0
 12 24  1  0
A    1
 C1 
A    2
 C2 
A    3
 O1 
A    4
 N1 
A    5
 C3 
A    6
 C4 
A    7
 C5 
A    8
 C6 
A    9
 C7 
A   10
 C8 
A   11
 C9 
A   12
 C10
A   13
 N2 
A   14
 C11
A   15
 H1 
A   16
 H2 
A   17
 H3 
A   18
 H4 
A   19
 H5 
A   20
 H6 
A   21
 H7 
A   22
 H8 
A   23
 H9 
A   24
 H10
M  END
>  <ref_pdb>  (82) 
x0554_0A

>  <ref_mols>  (82) 
x0554_0A,x0451_0A

>  <original SMILES>  (82) 
CC(=O)Nc1cccc2cccnc12

>  <rationale>  (82) 
info cluster #5 (rank 9); hbond:S125; hydroph_interaction:Y89+D109; 

>  <cluster_rank>  (82) 
9

>  <N_interactions>  (82) 
3

>  <N_interactions_lost>  (82) 
1

>  <∆∆G>  (82) 
-7.633676

>  <comRMSD>  (82) 
0.777033

>  <N_rotatable_bonds>  (82) 
2

>  <N_unconstrained_atoms>  (82) 
0

>  <N_constrained_atoms>  (82) 
16

$$$$
Z230747656
     RDKit          3D

 27 27  0  0  0  0  0  0  0  0999 V2000
   10.3530    9.3320   23.5130 C   0  0  0  0  0  0  0  0  0  0  0  0
    9.4490   10.3870   24.0700 C   0  0  0  0  0  0  0  0  0  0  0  0
    8.3600   10.0220   24.8660 C   0  0  0  0  0  0  0  0  0  0  0  0
    7.4720   10.9660   25.4110 C   0  0  0  0  0  0  0  0  0  0  0  0
    7.6720   12.3350   25.1600 C   0  0  0  0  0  0  0  0  0  0  0  0
    6.8890   13.4200   25.6250 N   0  0  0  0  0  0  0  0  0  0  0  0
    5.6460   13.4390   26.1940 C   0  0  0  0  0  0  0  0  0  0  0  0
    5.0310   12.2350   26.1220 N   0  0  0  0  0  0  0  0  0  0  0  0
    5.0670   14.3780   26.7180 O   0  0  0  0  0  0  0  0  0  0  0  0
    8.7600   12.6760   24.3740 C   0  0  0  0  0  0  0  0  0  0  0  0
    9.6540   11.7620   23.8210 C   0  0  0  0  0  0  0  0  0  0  0  0
   10.7340   12.2340   23.0440 N   0  0  0  0  0  0  0  0  0  0  0  0
   11.3310   13.4480   23.2170 C   0  0  0  0  0  0  0  0  0  0  0  0
   11.8720   13.9050   22.0540 N   0  0  0  0  0  0  0  0  0  0  0  0
   11.4110   14.1110   24.2410 O   0  0  0  0  0  0  0  0  0  0  0  0
   11.1570    9.0970   24.2200 H   0  0  0  0  0  0  0  0  0  0  0  0
    9.7850    8.4190   23.3120 H   0  0  0  0  0  0  0  0  0  0  0  0
   10.8230    9.6640   22.5810 H   0  0  0  0  0  0  0  0  0  0  0  0
    8.1860    8.9800   25.0810 H   0  0  0  0  0  0  0  0  0  0  0  0
    6.6450   10.6100   26.0180 H   0  0  0  0  0  0  0  0  0  0  0  0
    7.2870   14.3360   25.4770 H   0  0  0  0  0  0  0  0  0  0  0  0
    4.8900   11.9060   25.1650 H   0  0  0  0  0  0  0  0  0  0  0  0
    4.1970   12.2040   26.6920 H   0  0  0  0  0  0  0  0  0  0  0  0
    8.9940   13.7170   24.1290 H   0  0  0  0  0  0  0  0  0  0  0  0
   10.8540   11.8630   22.1020 H   0  0  0  0  0  0  0  0  0  0  0  0
   11.5210   14.7860   21.7130 H   0  0  0  0  0  0  0  0  0  0  0  0
   11.8460   13.1600   21.3500 H   0  0  0  0  0  0  0  0  0  0  0  0
  1  2  1  0
  2  3  2  0
  3  4  1  0
  4  5  2  0
  5  6  1  0
  6  7  1  0
  7  8  1  0
  7  9  2  0
  5 10  1  0
 10 11  2  0
 11 12  1  0
 12 13  1  0
 13 14  1  0
 13 15  2  0
 11  2  1  0
  1 16  1  0
  1 17  1  0
  1 18  1  0
  3 19  1  0
  4 20  1  0
  6 21  1  0
  8 22  1  0
  8 23  1  0
 10 24  1  0
 12 25  1  0
 14 26  1  0
 14 27  1  0
A    1
 C1 
A    2
 C2 
A    3
 C3 
A    4
 C4 
A    5
 C5 
A    6
 N1 
A    7
 C6 
A    8
 N2 
A    9
 O1 
A   10
 C7 
A   11
 C8 
A   12
 N3 
A   13
 C9 
A   14
 N4 
A   15
 O2 
A   16
 H1 
A   17
 H2 
A   18
 H3 
A   19
 H4 
A   20
 H5 
A   21
 H6 
A   22
 H7 
A   23
 H8 
A   24
 H9 
A   25
 H10
A   26
 H11
A   27
 H12
M  END
>  <ref_pdb>  (83) 
x0554_0A

>  <ref_mols>  (83) 
x0416_0A,x0554_0A

>  <original SMILES>  (83) 
Cc1ccc(NC(N)=O)cc1NC(N)=O

>  <rationale>  (83) 
info cluster #0 (rank 9); hbond:S125+G127; 

>  <cluster_rank>  (83) 
9

>  <N_interactions>  (83) 
3

>  <N_interactions_lost>  (83) 
1

>  <∆∆G>  (83) 
-7.002412

>  <comRMSD>  (83) 
0.529178

>  <N_rotatable_bonds>  (83) 
3

>  <N_unconstrained_atoms>  (83) 
1

>  <N_constrained_atoms>  (83) 
14

$$$$
Z3304213444
     RDKit          3D

 31 31  0  0  0  0  0  0  0  0999 V2000
    9.6740   16.5800   20.5930 C   0  0  0  0  0  0  0  0  0  0  0  0
   10.1900   15.1450   20.6150 C   0  0  0  0  0  0  0  0  0  0  0  0
   10.7020   14.8610   19.3650 C   0  0  0  0  0  0  0  0  0  0  0  0
   11.6150   15.1600   21.7660 S   0  0  0  0  0  4  0  0  0  0  0  0
   12.8480   15.4270   20.9790 O   0  0  0  0  0  0  0  0  0  0  0  0
   11.4220   13.5770   22.2380 N   0  0  0  0  0  0  0  0  0  0  0  0
   10.3810   13.3040   23.2130 C   0  0  0  0  0  0  0  0  0  0  0  0
   10.4710   12.0510   23.6620 C   0  0  0  0  0  0  0  0  0  0  0  0
    9.2990   11.3320   24.2340 C   0  0  0  0  0  0  0  0  0  0  0  0
    8.1970   12.1140   24.9440 C   0  0  0  0  0  0  0  0  0  0  0  0
    7.2890   10.9990   25.3360 C   0  0  0  0  0  0  0  0  0  0  0  0
    7.8230    9.7360   24.8890 N   0  0  0  0  0  0  0  0  0  0  0  0
    8.9950   10.0420   24.2550 N   0  0  0  0  0  0  0  0  0  0  0  0
    9.7780    8.9730   23.6810 C   0  0  0  0  0  0  0  0  0  0  0  0
    9.5750   16.9370   19.5640 H   0  0  0  0  0  0  0  0  0  0  0  0
    8.7050   16.6360   21.0990 H   0  0  0  0  0  0  0  0  0  0  0  0
   10.3770   17.2240   21.1170 H   0  0  0  0  0  0  0  0  0  0  0  0
    9.4270   14.5930   21.1450 H   0  0  0  0  0  0  0  0  0  0  0  0
   10.9820   13.8100   19.2650 H   0  0  0  0  0  0  0  0  0  0  0  0
    9.9860   15.0930   18.5680 H   0  0  0  0  0  0  0  0  0  0  0  0
   11.5960   15.4590   19.1660 H   0  0  0  0  0  0  0  0  0  0  0  0
   11.3350   12.9100   21.4580 H   0  0  0  0  0  0  0  0  0  0  0  0
   10.4120   14.0080   24.0470 H   0  0  0  0  0  0  0  0  0  0  0  0
    9.4140   13.3960   22.7110 H   0  0  0  0  0  0  0  0  0  0  0  0
   11.2760   12.0150   24.4070 H   0  0  0  0  0  0  0  0  0  0  0  0
   10.8650   11.4490   22.8360 H   0  0  0  0  0  0  0  0  0  0  0  0
    8.1040   13.1770   25.1170 H   0  0  0  0  0  0  0  0  0  0  0  0
    6.3440   11.0900   25.8820 H   0  0  0  0  0  0  0  0  0  0  0  0
   10.0590    9.2290   22.6540 H   0  0  0  0  0  0  0  0  0  0  0  0
    9.1710    8.0640   23.6810 H   0  0  0  0  0  0  0  0  0  0  0  0
   10.6820    8.8350   24.2800 H   0  0  0  0  0  0  0  0  0  0  0  0
  1  2  1  0
  2  3  1  0
  2  4  1  0
  4  5  2  0
  4  6  1  0
  6  7  1  0
  7  8  1  0
  8  9  1  0
  9 10  2  0
 10 11  1  0
 11 12  2  0
 12 13  1  0
 13 14  1  0
 13  9  1  0
  1 15  1  0
  1 16  1  0
  1 17  1  0
  2 18  1  0
  3 19  1  0
  3 20  1  0
  3 21  1  0
  6 22  1  0
  7 23  1  0
  7 24  1  0
  8 25  1  0
  8 26  1  0
 10 27  1  0
 11 28  1  0
 14 29  1  0
 14 30  1  0
 14 31  1  0
A    1
 C1 
A    2
 C2 
A    3
 C3 
A    4
 S1 
A    5
 O1 
A    6
 N1 
A    7
 C4 
A    8
 C5 
A    9
 C6 
A   10
 C7 
A   11
 C8 
A   12
 N2 
A   13
 N3 
A   14
 C9 
A   15
 H1 
A   16
 H2 
A   17
 H3 
A   18
 H4 
A   19
 H5 
A   20
 H6 
A   21
 H7 
A   22
 H8 
A   23
 H9 
A   24
 H10
A   25
 H11
A   26
 H12
A   27
 H13
A   28
 H14
A   29
 H15
A   30
 H16
A   31
 H17
M  END
>  <ref_pdb>  (84) 
x0554_0A

>  <ref_mols>  (84) 
x0556_0A

>  <original SMILES>  (84) 
CC(C)S(=O)NCCc1ccnn1C

>  <rationale>  (84) 
info cluster #2 (rank 9); hbond:H21; hydroph_interaction:Y90+V84; pication:H21; 

>  <cluster_rank>  (84) 
9

>  <N_interactions>  (84) 
4

>  <N_interactions_lost>  (84) 
0

>  <∆∆G>  (84) 
-8.654932

>  <comRMSD>  (84) 
0.654154

>  <N_rotatable_bonds>  (84) 
8

>  <N_unconstrained_atoms>  (84) 
3

>  <N_constrained_atoms>  (84) 
12

$$$$
Z3700433595
     RDKit          3D

 29 29  0  0  0  0  0  0  0  0999 V2000
   10.0380    8.9250   23.5830 C   0  0  0  0  0  0  0  0  0  0  0  0
    9.2580   10.1390   24.0600 C   0  0  0  0  0  0  0  0  0  0  0  0
    8.1870    9.9460   25.0990 C   0  0  0  0  0  0  0  0  0  0  0  0
    7.4170   11.0670   25.5640 N   0  0  0  0  0  0  0  0  0  0  0  0
    7.6650   12.3260   25.0580 C   0  0  0  0  0  0  0  0  0  0  0  0
    6.9420   13.3720   25.4930 F   0  0  0  0  0  0  0  0  0  0  0  0
    8.6740   12.4710   24.1020 C   0  0  0  0  0  0  0  0  0  0  0  0
    8.8630   13.8830   23.6200 C   0  0  0  0  0  0  0  0  0  0  0  0
   10.0560   13.9600   22.7990 N   0  0  0  0  0  0  0  0  0  0  0  0
   10.4510   15.1630   22.3180 C   0  0  0  0  0  0  0  0  0  0  0  0
   10.9980   15.9920   23.0190 O   0  0  0  0  0  0  0  0  0  0  0  0
   10.1380   15.3370   20.9750 C   0  0  2  0  0  0  0  0  0  0  0  0
   11.0770   14.9140   19.8820 C   0  0  0  0  0  0  0  0  0  0  0  0
    9.9180   16.6940   20.7900 N   0  0  0  0  0  0  0  0  0  0  0  0
    9.4560   11.4160   23.6110 C   0  0  0  0  0  0  0  0  0  0  0  0
   10.4540    9.1130   22.5870 H   0  0  0  0  0  0  0  0  0  0  0  0
   10.8680    8.7090   24.2630 H   0  0  0  0  0  0  0  0  0  0  0  0
    9.4000    8.0400   23.5160 H   0  0  0  0  0  0  0  0  0  0  0  0
    7.9710    8.9710   25.5180 H   0  0  0  0  0  0  0  0  0  0  0  0
    8.9360   14.5680   24.4740 H   0  0  0  0  0  0  0  0  0  0  0  0
    8.0200   14.2150   23.0070 H   0  0  0  0  0  0  0  0  0  0  0  0
   10.4070   13.1370   22.2970 H   0  0  0  0  0  0  0  0  0  0  0  0
    9.1820   14.8260   20.8260 H   0  0  0  0  0  0  0  0  0  0  0  0
   10.8100   13.9010   19.5700 H   0  0  0  0  0  0  0  0  0  0  0  0
   10.9680   15.5190   18.9810 H   0  0  0  0  0  0  0  0  0  0  0  0
   12.1410   14.8830   20.1050 H   0  0  0  0  0  0  0  0  0  0  0  0
   10.2810   17.2400   21.5870 H   0  0  0  0  0  0  0  0  0  0  0  0
   10.4560   17.0000   19.9780 H   0  0  0  0  0  0  0  0  0  0  0  0
   10.2260   11.6170   22.8600 H   0  0  0  0  0  0  0  0  0  0  0  0
  1  2  1  0
  2  3  2  0
  3  4  1  0
  4  5  2  0
  5  6  1  0
  5  7  1  0
  7  8  1  0
  8  9  1  0
  9 10  1  0
 10 11  2  0
 10 12  1  0
 12 13  1  0
 12 14  1  0
  7 15  2  0
 15  2  1  0
  1 16  1  0
  1 17  1  0
  1 18  1  0
  3 19  1  0
  8 20  1  0
  8 21  1  0
  9 22  1  0
 12 23  1  6
 13 24  1  0
 13 25  1  0
 13 26  1  0
 14 27  1  0
 14 28  1  0
 15 29  1  0
A    1
 C1 
A    2
 C2 
A    3
 C3 
A    4
 N1 
A    5
 C4 
A    6
 F1 
A    7
 C5 
A    8
 C6 
A    9
 N2 
A   10
 C7 
A   11
 O1 
A   12
 C8 
A   13
 C9 
A   14
 N3 
A   15
 C10
A   16
 H1 
A   17
 H2 
A   18
 H3 
A   19
 H4 
A   20
 H5 
A   21
 H6 
A   22
 H7 
A   23
 H8 
A   24
 H9 
A   25
 H10
A   26
 H11
A   27
 H12
A   28
 H13
A   29
 H14
M  END
>  <ref_pdb>  (85) 
x0554_0A

>  <ref_mols>  (85) 
x0416_0A

>  <original SMILES>  (85) 
Cc1cnc(F)c(CNC(=O)[C@H](C)N)c1

>  <rationale>  (85) 
info cluster #7 (rank 9); hbond:S87+S125; hydroph_interaction:Y90+D109+V124; 

>  <cluster_rank>  (85) 
9

>  <N_interactions>  (85) 
6

>  <N_interactions_lost>  (85) 
2

>  <∆∆G>  (85) 
-7.99928

>  <comRMSD>  (85) 
0.467525

>  <N_rotatable_bonds>  (85) 
6

>  <N_unconstrained_atoms>  (85) 
2

>  <N_constrained_atoms>  (85) 
13

$$$$
Z4152892475
     RDKit          3D

 46 48  0  0  0  0  0  0  0  0999 V2000
   13.4130   11.5290   24.8430 C   0  0  0  0  0  0  0  0  0  0  0  0
   14.8990   11.4370   24.9880 C   0  0  0  0  0  0  0  0  0  0  0  0
   15.5290   12.0580   26.0620 C   0  0  0  0  0  0  0  0  0  0  0  0
   16.2600   13.0180   25.9330 O   0  0  0  0  0  0  0  0  0  0  0  0
   15.2110   11.4240   27.3160 N   0  0  0  0  0  0  0  0  0  0  0  0
   14.4370   12.2330   28.1910 C   0  0  0  0  0  0  0  0  0  0  0  0
   14.7040   12.0990   29.6340 C   0  0  0  0  0  0  0  0  0  0  0  0
   13.8430   13.0220   30.4910 C   0  0  0  0  0  0  0  0  0  0  0  0
   12.8130   13.9760   29.8010 C   0  0  0  0  0  0  0  0  0  0  0  0
   12.6850   13.9440   28.3720 C   0  0  0  0  0  0  0  0  0  0  0  0
   11.6620   14.8190   27.6140 C   0  0  0  0  0  0  0  0  0  0  0  0
   10.3280   14.1470   27.4630 N   0  0  0  0  0  0  0  0  0  0  0  0
    9.6370   14.0910   26.1100 C   0  0  0  0  0  0  0  0  0  0  0  0
    8.8820   12.8640   25.8440 C   0  0  0  0  0  0  0  0  0  0  0  0
    7.6760   12.5410   26.5030 C   0  0  0  0  0  0  0  0  0  0  0  0
    6.9600   11.3440   26.2630 C   0  0  0  0  0  0  0  0  0  0  0  0
    7.4290   10.4030   25.3460 C   0  0  0  0  0  0  0  0  0  0  0  0
    8.6150   10.7130   24.6800 C   0  0  0  0  0  0  0  0  0  0  0  0
    9.3230   11.9030   24.9000 C   0  0  0  0  0  0  0  0  0  0  0  0
   10.4350   11.9440   24.0940 N   0  0  0  0  0  0  0  0  0  0  0  0
   10.4300   10.8220   23.4170 C   0  0  0  0  0  0  0  0  0  0  0  0
    9.3660   10.0470   23.7420 N   0  0  0  0  0  0  0  0  0  0  0  0
    9.1120    8.7500   23.1800 C   0  0  0  0  0  0  0  0  0  0  0  0
   13.4950   13.0870   27.6360 C   0  0  0  0  0  0  0  0  0  0  0  0
   12.9590   11.9720   25.7320 H   0  0  0  0  0  0  0  0  0  0  0  0
   12.9850   10.5350   24.6700 H   0  0  0  0  0  0  0  0  0  0  0  0
   13.1350   12.1540   23.9860 H   0  0  0  0  0  0  0  0  0  0  0  0
   15.3280   11.8420   24.0720 H   0  0  0  0  0  0  0  0  0  0  0  0
   15.1710   10.3780   25.0460 H   0  0  0  0  0  0  0  0  0  0  0  0
   15.9550   10.8930   27.7520 H   0  0  0  0  0  0  0  0  0  0  0  0
   15.4330   11.4300   30.0790 H   0  0  0  0  0  0  0  0  0  0  0  0
   13.9500   13.0180   31.5720 H   0  0  0  0  0  0  0  0  0  0  0  0
   12.1950   14.6410   30.4000 H   0  0  0  0  0  0  0  0  0  0  0  0
   11.5520   15.7750   28.1420 H   0  0  0  0  0  0  0  0  0  0  0  0
   12.0670   15.0590   26.6270 H   0  0  0  0  0  0  0  0  0  0  0  0
    9.6770   14.5510   28.1370 H   0  0  0  0  0  0  0  0  0  0  0  0
    8.9350   14.9300   26.0240 H   0  0  0  0  0  0  0  0  0  0  0  0
   10.3770   14.2260   25.3240 H   0  0  0  0  0  0  0  0  0  0  0  0
    7.2810   13.2440   27.2330 H   0  0  0  0  0  0  0  0  0  0  0  0
    6.0360   11.1520   26.8040 H   0  0  0  0  0  0  0  0  0  0  0  0
    6.8880    9.4840   25.1680 H   0  0  0  0  0  0  0  0  0  0  0  0
   11.1700   10.5260   22.6890 H   0  0  0  0  0  0  0  0  0  0  0  0
    8.0420    8.6100   23.0780 H   0  0  0  0  0  0  0  0  0  0  0  0
    9.5080    7.9900   23.8480 H   0  0  0  0  0  0  0  0  0  0  0  0
    9.6160    8.6830   22.2140 H   0  0  0  0  0  0  0  0  0  0  0  0
   13.3740   13.0970   26.5560 H   0  0  0  0  0  0  0  0  0  0  0  0
  1  2  1  0
  2  3  1  0
  3  4  2  0
  3  5  1  0
  5  6  1  0
  6  7  2  0
  7  8  1  0
  8  9  2  0
  9 10  1  0
 10 11  1  0
 11 12  1  0
 12 13  1  0
 13 14  1  0
 14 15  2  0
 15 16  1  0
 16 17  2  0
 17 18  1  0
 18 19  2  0
 19 20  1  0
 20 21  2  0
 21 22  1  0
 22 23  1  0
 10 24  2  0
 24  6  1  0
 19 14  1  0
 22 18  1  0
  1 25  1  0
  1 26  1  0
  1 27  1  0
  2 28  1  0
  2 29  1  0
  5 30  1  0
  7 31  1  0
  8 32  1  0
  9 33  1  0
 11 34  1  0
 11 35  1  0
 12 36  1  0
 13 37  1  0
 13 38  1  0
 15 39  1  0
 16 40  1  0
 17 41  1  0
 21 42  1  0
 23 43  1  0
 23 44  1  0
 23 45  1  0
 24 46  1  0
A    1
 C1 
A    2
 C2 
A    3
 C3 
A    4
 O1 
A    5
 N1 
A    6
 C4 
A    7
 C5 
A    8
 C6 
A    9
 C7 
A   10
 C8 
A   11
 C9 
A   12
 N2 
A   13
 C10
A   14
 C11
A   15
 C12
A   16
 C13
A   17
 C14
A   18
 C15
A   19
 C16
A   20
 N3 
A   21
 C17
A   22
 N4 
A   23
 C18
A   24
 C19
A   25
 H1 
A   26
 H2 
A   27
 H3 
A   28
 H4 
A   29
 H5 
A   30
 H6 
A   31
 H7 
A   32
 H8 
A   33
 H9 
A   34
 H10
A   35
 H11
A   36
 H12
A   37
 H13
A   38
 H14
A   39
 H15
A   40
 H16
A   41
 H17
A   42
 H18
A   43
 H19
A   44
 H20
A   45
 H21
A   46
 H22
M  END
>  <ref_pdb>  (86) 
x0554_0A

>  <ref_mols>  (86) 
x0451_0A

>  <original SMILES>  (86) 
CCC(=O)Nc1cccc(CNCc2cccc3c2ncn3C)c1

>  <rationale>  (86) 
info cluster #6 (rank 9); hydroph_interaction:L22+Y89+P107+A110; 

>  <cluster_rank>  (86) 
9

>  <N_interactions>  (86) 
5

>  <N_interactions_lost>  (86) 
1

>  <∆∆G>  (86) 
-9.405948

>  <comRMSD>  (86) 
0.973475

>  <N_rotatable_bonds>  (86) 
8

>  <N_unconstrained_atoms>  (86) 
2

>  <N_constrained_atoms>  (86) 
22

$$$$
Z3295207213
     RDKit          3D

 31 32  0  0  0  0  0  0  0  0999 V2000
    9.1960   16.0290   21.3470 C   0  0  0  0  0  0  0  0  0  0  0  0
   10.5590   15.3630   21.1520 C   0  0  0  0  0  0  0  0  0  0  0  0
   10.7530   14.9010   19.7050 C   0  0  0  0  0  0  0  0  0  0  0  0
   10.9000   14.3020   22.1360 N   0  0  0  0  0  0  0  0  0  0  0  0
   12.3190   14.0690   22.2150 C   0  0  0  0  0  0  0  0  0  0  0  0
   10.1270   14.1210   23.2900 C   0  0  0  0  0  0  0  0  0  0  0  0
    9.7860   15.0750   23.9820 O   0  0  0  0  0  0  0  0  0  0  0  0
    9.7320   12.7790   23.7190 C   0  0  0  0  0  0  0  0  0  0  0  0
   10.3750   11.6100   23.3500 C   0  0  0  0  0  0  0  0  0  0  0  0
    9.7740   10.5270   23.9110 O   0  0  0  0  0  0  0  0  0  0  0  0
    8.7350   10.9940   24.6530 C   0  0  0  0  0  0  0  0  0  0  0  0
    7.8650   10.2060   25.3950 C   0  0  0  0  0  0  0  0  0  0  0  0
    6.8600   10.8710   26.0890 C   0  0  0  0  0  0  0  0  0  0  0  0
    5.9890   10.1580   26.8240 F   0  0  0  0  0  0  0  0  0  0  0  0
    6.7290   12.2490   26.0500 C   0  0  0  0  0  0  0  0  0  0  0  0
    7.6260   13.0080   25.2930 C   0  0  0  0  0  0  0  0  0  0  0  0
    7.4810   14.3400   25.2720 F   0  0  0  0  0  0  0  0  0  0  0  0
    8.6590   12.3760   24.5720 C   0  0  0  0  0  0  0  0  0  0  0  0
    9.2000   17.0680   20.9960 H   0  0  0  0  0  0  0  0  0  0  0  0
    8.9140   16.0350   22.4040 H   0  0  0  0  0  0  0  0  0  0  0  0
    8.4160   15.4990   20.7950 H   0  0  0  0  0  0  0  0  0  0  0  0
   11.3020   16.1580   21.3010 H   0  0  0  0  0  0  0  0  0  0  0  0
    9.9300   15.2180   19.0560 H   0  0  0  0  0  0  0  0  0  0  0  0
   11.6780   15.3190   19.2920 H   0  0  0  0  0  0  0  0  0  0  0  0
   10.8270   13.8140   19.6490 H   0  0  0  0  0  0  0  0  0  0  0  0
   12.8340   14.8350   21.6330 H   0  0  0  0  0  0  0  0  0  0  0  0
   12.6400   14.1280   23.2580 H   0  0  0  0  0  0  0  0  0  0  0  0
   12.5950   13.0800   21.8500 H   0  0  0  0  0  0  0  0  0  0  0  0
   11.2300   11.3980   22.7250 H   0  0  0  0  0  0  0  0  0  0  0  0
    7.9710    9.1370   25.4280 H   0  0  0  0  0  0  0  0  0  0  0  0
    5.9340   12.7370   26.6030 H   0  0  0  0  0  0  0  0  0  0  0  0
  1  2  1  0
  2  3  1  0
  2  4  1  0
  4  5  1  0
  4  6  1  0
  6  7  2  0
  6  8  1  0
  8  9  2  0
  9 10  1  0
 10 11  1  0
 11 12  2  0
 12 13  1  0
 13 14  1  0
 13 15  2  0
 15 16  1  0
 16 17  1  0
 16 18  2  0
 18  8  1  0
 18 11  1  0
  1 19  1  0
  1 20  1  0
  1 21  1  0
  2 22  1  0
  3 23  1  0
  3 24  1  0
  3 25  1  0
  5 26  1  0
  5 27  1  0
  5 28  1  0
  9 29  1  0
 12 30  1  0
 15 31  1  0
A    1
 C1 
A    2
 C2 
A    3
 C3 
A    4
 N1 
A    5
 C4 
A    6
 C5 
A    7
 O1 
A    8
 C6 
A    9
 C7 
A   10
 O2 
A   11
 C8 
A   12
 C9 
A   13
 C10
A   14
 F1 
A   15
 C11
A   16
 C12
A   17
 F2 
A   18
 C13
A   19
 H1 
A   20
 H2 
A   21
 H3 
A   22
 H4 
A   23
 H5 
A   24
 H6 
A   25
 H7 
A   26
 H8 
A   27
 H9 
A   28
 H10
A   29
 H11
A   30
 H12
A   31
 H13
M  END
>  <ref_pdb>  (87) 
x0554_0A

>  <ref_mols>  (87) 
x0451_0A,x0556_0A

>  <original SMILES>  (87) 
CC(C)N(C)C(=O)c1coc2cc(F)cc(F)c12

>  <rationale>  (87) 
info cluster #3 (rank 9); halogenbond:S105; hbond:S87; hydroph_interaction:V84; 

>  <cluster_rank>  (87) 
9

>  <N_interactions>  (87) 
3

>  <N_interactions_lost>  (87) 
1

>  <∆∆G>  (87) 
-7.170089

>  <comRMSD>  (87) 
0.802255

>  <N_rotatable_bonds>  (87) 
5

>  <N_unconstrained_atoms>  (87) 
1

>  <N_constrained_atoms>  (87) 
18

$$$$
Z1273099535
     RDKit          3D

 29 30  0  0  0  0  0  0  0  0999 V2000
   11.0600   14.6080   20.3870 C   0  0  0  0  0  0  0  0  0  0  0  0
   10.1920   15.0970   21.5390 C   0  0  0  0  0  0  0  0  0  0  0  0
    9.3090   16.2430   21.0540 C   0  0  0  0  0  0  0  0  0  0  0  0
    9.4640   14.1530   22.2070 N   0  0  0  0  0  0  0  0  0  0  0  0
   10.2220   13.1560   22.9800 C   0  0  0  0  0  0  0  0  0  0  0  0
   11.4330   13.2380   23.0870 O   0  0  0  0  0  0  0  0  0  0  0  0
    9.6010   12.0570   23.6290 C   0  0  0  0  0  0  0  0  0  0  0  0
   10.0700   10.7600   23.3520 C   0  0  0  0  0  0  0  0  0  0  0  0
    9.4910    9.5660   24.0080 C   0  0  0  0  0  0  0  0  0  0  0  0
    8.5130    9.7060   24.8730 C   0  0  0  0  0  0  0  0  0  0  0  0
    7.9950   10.9420   25.1860 C   0  0  0  0  0  0  0  0  0  0  0  0
    8.5210   12.1290   24.5780 C   0  0  0  0  0  0  0  0  0  0  0  0
    7.8140   13.2160   25.0840 N   0  0  0  0  0  0  0  0  0  0  0  0
    6.8530   12.8160   25.9850 C   0  0  0  0  0  0  0  0  0  0  0  0
    6.9450   11.3020   26.0780 C   0  0  0  0  0  0  0  0  0  0  0  0
   11.4750   15.4570   19.8380 H   0  0  0  0  0  0  0  0  0  0  0  0
   10.4860   13.9940   19.6920 H   0  0  0  0  0  0  0  0  0  0  0  0
   11.8840   14.0100   20.7880 H   0  0  0  0  0  0  0  0  0  0  0  0
   10.9030   15.5560   22.2370 H   0  0  0  0  0  0  0  0  0  0  0  0
    8.9530   16.0490   20.0440 H   0  0  0  0  0  0  0  0  0  0  0  0
    8.4880   16.4300   21.7550 H   0  0  0  0  0  0  0  0  0  0  0  0
    9.9190   17.1510   21.0390 H   0  0  0  0  0  0  0  0  0  0  0  0
    8.6600   13.7760   21.7090 H   0  0  0  0  0  0  0  0  0  0  0  0
   10.8890   10.6210   22.6370 H   0  0  0  0  0  0  0  0  0  0  0  0
    9.8530    8.5490   23.8020 H   0  0  0  0  0  0  0  0  0  0  0  0
    8.0490    8.8770   25.3980 H   0  0  0  0  0  0  0  0  0  0  0  0
    7.9900   14.1710   24.8160 H   0  0  0  0  0  0  0  0  0  0  0  0
    6.2070   13.5320   26.4750 H   0  0  0  0  0  0  0  0  0  0  0  0
    6.3420   10.6500   26.6920 H   0  0  0  0  0  0  0  0  0  0  0  0
  1  2  1  0
  2  3  1  0
  2  4  1  0
  4  5  1  0
  5  6  2  0
  5  7  1  0
  7  8  2  0
  8  9  1  0
  9 10  2  0
 10 11  1  0
 11 12  2  0
 12 13  1  0
 13 14  1  0
 14 15  2  0
 12  7  1  0
 15 11  1  0
  1 16  1  0
  1 17  1  0
  1 18  1  0
  2 19  1  0
  3 20  1  0
  3 21  1  0
  3 22  1  0
  4 23  1  0
  8 24  1  0
  9 25  1  0
 10 26  1  0
 13 27  1  0
 14 28  1  0
 15 29  1  0
A    1
 C1 
A    2
 C2 
A    3
 C3 
A    4
 N1 
A    5
 C4 
A    6
 O1 
A    7
 C5 
A    8
 C6 
A    9
 C7 
A   10
 C8 
A   11
 C9 
A   12
 C10
A   13
 N2 
A   14
 C11
A   15
 C12
A   16
 H1 
A   17
 H2 
A   18
 H3 
A   19
 H4 
A   20
 H5 
A   21
 H6 
A   22
 H7 
A   23
 H8 
A   24
 H9 
A   25
 H10
A   26
 H11
A   27
 H12
A   28
 H13
A   29
 H14
M  END
>  <ref_pdb>  (88) 
x0554_0A

>  <ref_mols>  (88) 
x0566_0A

>  <original SMILES>  (88) 
CC(C)NC(=O)c1cccc2cc[nH]c12

>  <rationale>  (88) 
info cluster #1 (rank 9); hbond:T126; hydroph_interaction:V84; 

>  <cluster_rank>  (88) 
9

>  <N_interactions>  (88) 
2

>  <N_interactions_lost>  (88) 
0

>  <∆∆G>  (88) 
-6.688682

>  <comRMSD>  (88) 
0.575521

>  <N_rotatable_bonds>  (88) 
4

>  <N_unconstrained_atoms>  (88) 
0

>  <N_constrained_atoms>  (88) 
16

$$$$
Z1291192055
     RDKit          3D

 25 26  0  0  0  0  0  0  0  0999 V2000
   12.3250   14.9530   21.5130 C   0  0  0  0  0  0  0  0  0  0  0  0
   10.8990   14.8350   21.8810 C   0  0  0  0  0  0  0  0  0  0  0  0
   10.6350   13.7130   22.3210 O   0  0  0  0  0  0  0  0  0  0  0  0
   10.3620   13.6760   23.6520 C   0  0  0  0  0  0  0  0  0  0  0  0
   10.7240   14.5270   24.4450 O   0  0  0  0  0  0  0  0  0  0  0  0
    9.6040   12.5530   24.0710 C   0  0  0  0  0  0  0  0  0  0  0  0
    8.4600   12.7290   24.9670 C   0  0  0  0  0  0  0  0  0  0  0  0
    7.6740   11.5790   25.4220 C   0  0  0  0  0  0  0  0  0  0  0  0
    7.9440   10.2050   25.0400 C   0  0  0  0  0  0  0  0  0  0  0  0
    9.0390   10.0720   24.1760 C   0  0  0  0  0  0  0  0  0  0  0  0
    9.8330   11.1970   23.7150 C   0  0  0  0  0  0  0  0  0  0  0  0
   10.8150   10.7080   22.8970 N   0  0  0  0  0  0  0  0  0  0  0  0
   10.7320    9.3640   22.7830 C   0  0  0  0  0  0  0  0  0  0  0  0
    9.6080    8.9500   23.5870 C   0  0  0  0  0  0  0  0  0  0  0  0
   12.9440   14.5360   22.3080 H   0  0  0  0  0  0  0  0  0  0  0  0
   12.5370   14.4110   20.5850 H   0  0  0  0  0  0  0  0  0  0  0  0
   12.6050   15.9980   21.3630 H   0  0  0  0  0  0  0  0  0  0  0  0
   10.2550   15.0870   21.0330 H   0  0  0  0  0  0  0  0  0  0  0  0
   10.6750   15.5530   22.6750 H   0  0  0  0  0  0  0  0  0  0  0  0
    8.2010   13.7410   25.2960 H   0  0  0  0  0  0  0  0  0  0  0  0
    6.8520   11.8560   26.0880 H   0  0  0  0  0  0  0  0  0  0  0  0
    7.2990    9.4270   25.4420 H   0  0  0  0  0  0  0  0  0  0  0  0
   11.5030   11.3070   22.4470 H   0  0  0  0  0  0  0  0  0  0  0  0
   11.4180    8.8280   22.1890 H   0  0  0  0  0  0  0  0  0  0  0  0
    9.3750    7.8820   23.6220 H   0  0  0  0  0  0  0  0  0  0  0  0
  1  2  1  0
  2  3  1  0
  3  4  1  0
  4  5  2  0
  4  6  1  0
  6  7  2  0
  7  8  1  0
  8  9  2  0
  9 10  1  0
 10 11  2  0
 11 12  1  0
 12 13  1  0
 13 14  2  0
 11  6  1  0
 14 10  1  0
  1 15  1  0
  1 16  1  0
  1 17  1  0
  2 18  1  0
  2 19  1  0
  7 20  1  0
  8 21  1  0
  9 22  1  0
 12 23  1  0
 13 24  1  0
 14 25  1  0
A    1
 C1 
A    2
 C2 
A    3
 O1 
A    4
 C3 
A    5
 O2 
A    6
 C4 
A    7
 C5 
A    8
 C6 
A    9
 C7 
A   10
 C8 
A   11
 C9 
A   12
 N1 
A   13
 C10
A   14
 C11
A   15
 H1 
A   16
 H2 
A   17
 H3 
A   18
 H4 
A   19
 H5 
A   20
 H6 
A   21
 H7 
A   22
 H8 
A   23
 H9 
A   24
 H10
A   25
 H11
M  END
>  <ref_pdb>  (89) 
x0554_0A

>  <ref_mols>  (89) 
x0554_0A,x0451_0A

>  <original SMILES>  (89) 
CCOC(=O)c1cccc2cc[nH]c12

>  <rationale>  (89) 
info cluster #4 (rank 9); hydroph_interaction:Y89; saltbridge:H21; 

>  <cluster_rank>  (89) 
9

>  <N_interactions>  (89) 
2

>  <N_interactions_lost>  (89) 
0

>  <∆∆G>  (89) 
-5.711766

>  <comRMSD>  (89) 
0.96016

>  <N_rotatable_bonds>  (89) 
3

>  <N_unconstrained_atoms>  (89) 
3

>  <N_constrained_atoms>  (89) 
12

$$$$
Z3796506747
     RDKit          3D

 29 29  0  0  0  0  0  0  0  0999 V2000
   10.2300    9.1660   23.2330 C   0  0  0  0  0  0  0  0  0  0  0  0
    9.3250   10.2100   23.8700 C   0  0  0  0  0  0  0  0  0  0  0  0
    9.5310   11.6930   23.5830 C   0  0  0  0  0  0  0  0  0  0  0  0
    8.5550   12.6200   24.2690 C   0  0  0  0  0  0  0  0  0  0  0  0
    8.6700   14.1250   24.0390 C   0  0  0  0  0  0  0  0  0  0  0  0
    8.9550   14.4010   22.6540 N   0  0  0  0  0  0  0  0  0  0  0  0
   10.0820   15.1090   22.2960 C   0  0  0  0  0  0  0  0  0  0  0  0
   10.9600   15.4390   23.0780 O   0  0  0  0  0  0  0  0  0  0  0  0
   10.0750   15.4500   20.7910 C   0  0  2  0  0  0  0  0  0  0  0  0
   11.2030   14.8000   19.9890 C   0  0  0  0  0  0  0  0  0  0  0  0
   10.1640   16.8160   20.7030 N   0  0  0  0  0  0  0  0  0  0  0  0
    7.5790   12.0500   25.0920 C   0  0  0  0  0  0  0  0  0  0  0  0
    7.4460   10.7520   25.3130 N   0  0  0  0  0  0  0  0  0  0  0  0
    8.2920    9.8910   24.7190 C   0  0  0  0  0  0  0  0  0  0  0  0
    8.1320    8.6100   24.9620 F   0  0  0  0  0  0  0  0  0  0  0  0
   10.7580    9.5920   22.3740 H   0  0  0  0  0  0  0  0  0  0  0  0
    9.6490    8.3130   22.8690 H   0  0  0  0  0  0  0  0  0  0  0  0
   10.9780    8.8010   23.9410 H   0  0  0  0  0  0  0  0  0  0  0  0
   10.3320   12.0530   22.9220 H   0  0  0  0  0  0  0  0  0  0  0  0
    9.4780   14.5620   24.6350 H   0  0  0  0  0  0  0  0  0  0  0  0
    7.7270   14.5960   24.3400 H   0  0  0  0  0  0  0  0  0  0  0  0
    8.3570   13.9900   21.9340 H   0  0  0  0  0  0  0  0  0  0  0  0
    9.1160   15.1560   20.3480 H   0  0  0  0  0  0  0  0  0  0  0  0
   11.8770   15.5520   19.5730 H   0  0  0  0  0  0  0  0  0  0  0  0
   10.8040   14.1860   19.1730 H   0  0  0  0  0  0  0  0  0  0  0  0
   11.7800   14.1200   20.6270 H   0  0  0  0  0  0  0  0  0  0  0  0
    9.2310   17.1790   20.4930 H   0  0  0  0  0  0  0  0  0  0  0  0
   10.3800   17.2310   21.6220 H   0  0  0  0  0  0  0  0  0  0  0  0
    6.8490   12.6780   25.6140 H   0  0  0  0  0  0  0  0  0  0  0  0
  1  2  1  0
  2  3  2  0
  3  4  1  0
  4  5  1  0
  5  6  1  0
  6  7  1  0
  7  8  2  0
  7  9  1  0
  9 10  1  0
  9 11  1  0
  4 12  2  0
 12 13  1  0
 13 14  2  0
 14 15  1  0
 14  2  1  0
  1 16  1  0
  1 17  1  0
  1 18  1  0
  3 19  1  0
  5 20  1  0
  5 21  1  0
  6 22  1  0
  9 23  1  6
 10 24  1  0
 10 25  1  0
 10 26  1  0
 11 27  1  0
 11 28  1  0
 12 29  1  0
A    1
 C1 
A    2
 C2 
A    3
 C3 
A    4
 C4 
A    5
 C5 
A    6
 N1 
A    7
 C6 
A    8
 O1 
A    9
 C7 
A   10
 C8 
A   11
 N2 
A   12
 C9 
A   13
 N3 
A   14
 C10
A   15
 F1 
A   16
 H1 
A   17
 H2 
A   18
 H3 
A   19
 H4 
A   20
 H5 
A   21
 H6 
A   22
 H7 
A   23
 H8 
A   24
 H9 
A   25
 H10
A   26
 H11
A   27
 H12
A   28
 H13
A   29
 H14
M  END
>  <ref_pdb>  (90) 
x0554_0A

>  <ref_mols>  (90) 
x0416_0A

>  <original SMILES>  (90) 
Cc1cc(CNC(=O)[C@H](C)N)cnc1F

>  <rationale>  (90) 
info cluster #9 (rank 9); hbond:S87+T126; hydroph_interaction:V124; 

>  <cluster_rank>  (90) 
9

>  <N_interactions>  (90) 
4

>  <N_interactions_lost>  (90) 
1

>  <∆∆G>  (90) 
-7.350161

>  <comRMSD>  (90) 
0.434047

>  <N_rotatable_bonds>  (90) 
6

>  <N_unconstrained_atoms>  (90) 
3

>  <N_constrained_atoms>  (90) 
12

$$$$
PV_002237875611
     RDKit          3D

 22 22  0  0  0  0  0  0  0  0999 V2000
   11.9110   14.4140   22.3650 C   0  0  0  0  0  0  0  0  0  0  0  0
   11.1840   13.6100   23.4350 C   0  0  0  0  0  0  0  0  0  0  0  0
   11.0490   14.0460   24.5710 O   0  0  0  0  0  0  0  0  0  0  0  0
   10.7290   12.3990   22.9670 N   0  0  0  0  0  0  0  0  0  0  0  0
    9.8220   11.4820   23.5590 C   0  0  0  0  0  0  0  0  0  0  0  0
    9.8040   10.1360   23.2220 C   0  0  0  0  0  0  0  0  0  0  0  0
    8.7940    9.2360   23.8920 C   0  0  0  0  0  0  0  0  0  0  0  0
    8.8350    7.7860   23.4420 C   0  0  0  0  0  0  0  0  0  0  0  0
    7.9130    9.7540   24.8370 C   0  0  0  0  0  0  0  0  0  0  0  0
    7.9630   11.1040   25.1450 C   0  0  0  0  0  0  0  0  0  0  0  0
    8.8890   11.9440   24.5190 C   0  0  0  0  0  0  0  0  0  0  0  0
    8.8640   13.2440   24.8620 F   0  0  0  0  0  0  0  0  0  0  0  0
   11.4150   15.3730   22.1840 H   0  0  0  0  0  0  0  0  0  0  0  0
   12.9380   14.6170   22.6790 H   0  0  0  0  0  0  0  0  0  0  0  0
   11.9480   13.8680   21.4160 H   0  0  0  0  0  0  0  0  0  0  0  0
   11.0410   12.1130   22.0330 H   0  0  0  0  0  0  0  0  0  0  0  0
   10.4880    9.7160   22.4890 H   0  0  0  0  0  0  0  0  0  0  0  0
    9.8280    7.5330   23.0710 H   0  0  0  0  0  0  0  0  0  0  0  0
    8.6080    7.1170   24.2780 H   0  0  0  0  0  0  0  0  0  0  0  0
    8.1060    7.6170   22.6450 H   0  0  0  0  0  0  0  0  0  0  0  0
    7.1850    9.1300   25.3370 H   0  0  0  0  0  0  0  0  0  0  0  0
    7.2770   11.5180   25.8760 H   0  0  0  0  0  0  0  0  0  0  0  0
  1  2  1  0
  2  3  2  0
  2  4  1  0
  4  5  1  0
  5  6  2  0
  6  7  1  0
  7  8  1  0
  7  9  2  0
  9 10  1  0
 10 11  2  0
 11 12  1  0
 11  5  1  0
  1 13  1  0
  1 14  1  0
  1 15  1  0
  4 16  1  0
  6 17  1  0
  8 18  1  0
  8 19  1  0
  8 20  1  0
  9 21  1  0
 10 22  1  0
A    1
 C1 
A    2
 C2 
A    3
 O1 
A    4
 N1 
A    5
 C3 
A    6
 C4 
A    7
 C5 
A    8
 C6 
A    9
 C7 
A   10
 C8 
A   11
 C9 
A   12
 F1 
A   13
 H1 
A   14
 H2 
A   15
 H3 
A   16
 H4 
A   17
 H5 
A   18
 H6 
A   19
 H7 
A   20
 H8 
A   21
 H9 
A   22
 H10
M  END
>  <ref_pdb>  (91) 
x0554_0A

>  <ref_mols>  (91) 
x0554_0A,x0310_0A

>  <original SMILES>  (91) 
CC(=O)Nc1cc(C)ccc1F

>  <rationale>  (91) 
info cluster #8 (rank 10); hbond:S125; hydroph_interaction:Y89+D109+V124; 

>  <cluster_rank>  (91) 
10

>  <N_interactions>  (91) 
4

>  <N_interactions_lost>  (91) 
2

>  <∆∆G>  (91) 
-8.064239

>  <comRMSD>  (91) 
0.640725

>  <N_rotatable_bonds>  (91) 
3

>  <N_unconstrained_atoms>  (91) 
1

>  <N_constrained_atoms>  (91) 
13

$$$$
PV_002721485426
     RDKit          3D

 27 28  0  0  0  0  0  0  0  0999 V2000
   11.9450   14.4070   22.5150 C   0  0  0  0  0  0  0  0  0  0  0  0
   11.1450   13.6030   23.5420 C   0  0  0  0  0  0  0  0  0  0  0  0
   11.1100   13.9380   24.7170 O   0  0  0  0  0  0  0  0  0  0  0  0
   10.5220   12.5210   22.9700 N   0  0  0  0  0  0  0  0  0  0  0  0
    9.8010   11.4390   23.5480 C   0  0  0  0  0  0  0  0  0  0  0  0
    8.7020   11.5180   24.4970 C   0  0  0  0  0  0  0  0  0  0  0  0
    8.1620   12.6650   25.0230 C   0  0  0  0  0  0  0  0  0  0  0  0
    7.1080   12.5500   25.9170 N   0  0  0  0  0  0  0  0  0  0  0  0
    6.5670   11.2800   26.3070 C   0  0  0  0  0  0  0  0  0  0  0  0
    5.3980   11.1770   27.3030 C   0  0  0  0  0  0  0  0  0  0  0  0
    7.1200   10.1750   25.7740 C   0  0  0  0  0  0  0  0  0  0  0  0
    8.1680   10.2840   24.8860 C   0  0  0  0  0  0  0  0  0  0  0  0
    8.6450    8.9330   24.4070 C   0  0  0  0  0  0  0  0  0  0  0  0
    9.6840    8.9250   23.5130 C   0  0  0  0  0  0  0  0  0  0  0  0
   10.2420   10.1360   23.0990 C   0  0  0  0  0  0  0  0  0  0  0  0
   11.9260   13.9130   21.5390 H   0  0  0  0  0  0  0  0  0  0  0  0
   12.9780   14.5060   22.8520 H   0  0  0  0  0  0  0  0  0  0  0  0
   11.5160   15.4080   22.4110 H   0  0  0  0  0  0  0  0  0  0  0  0
   10.8590   12.2800   22.0290 H   0  0  0  0  0  0  0  0  0  0  0  0
    8.4740   13.6840   24.8110 H   0  0  0  0  0  0  0  0  0  0  0  0
    5.6230   11.7200   28.2260 H   0  0  0  0  0  0  0  0  0  0  0  0
    5.2160   10.1260   27.5580 H   0  0  0  0  0  0  0  0  0  0  0  0
    4.4880   11.6040   26.8640 H   0  0  0  0  0  0  0  0  0  0  0  0
    6.8030    9.1570   25.9880 H   0  0  0  0  0  0  0  0  0  0  0  0
    8.2000    8.0140   24.7480 H   0  0  0  0  0  0  0  0  0  0  0  0
   10.0360    7.9620   23.1590 H   0  0  0  0  0  0  0  0  0  0  0  0
   11.0550   10.0500   22.3920 H   0  0  0  0  0  0  0  0  0  0  0  0
  1  2  1  0
  2  3  2  0
  2  4  1  0
  4  5  1  0
  5  6  2  0
  6  7  1  0
  7  8  2  0
  8  9  1  0
  9 10  1  0
  9 11  2  0
 11 12  1  0
 12 13  2  0
 13 14  1  0
 14 15  2  0
 15  5  1  0
 12  6  1  0
  1 16  1  0
  1 17  1  0
  1 18  1  0
  4 19  1  0
  7 20  1  0
 10 21  1  0
 10 22  1  0
 10 23  1  0
 11 24  1  0
 13 25  1  0
 14 26  1  0
 15 27  1  0
A    1
 C1 
A    2
 C2 
A    3
 O1 
A    4
 N1 
A    5
 C3 
A    6
 C4 
A    7
 C5 
A    8
 N2 
A    9
 C6 
A   10
 C7 
A   11
 C8 
A   12
 C9 
A   13
 C10
A   14
 C11
A   15
 C12
A   16
 H1 
A   17
 H2 
A   18
 H3 
A   19
 H4 
A   20
 H5 
A   21
 H6 
A   22
 H7 
A   23
 H8 
A   24
 H9 
A   25
 H10
A   26
 H11
A   27
 H12
M  END
>  <ref_pdb>  (92) 
x0554_0A

>  <ref_mols>  (92) 
x0554_0A,x0451_0A

>  <original SMILES>  (92) 
CC(=O)Nc1cccc2cc(C)ncc12

>  <rationale>  (92) 
info cluster #5 (rank 10); hbond:S125; hydroph_interaction:Y89+V124; 

>  <cluster_rank>  (92) 
10

>  <N_interactions>  (92) 
3

>  <N_interactions_lost>  (92) 
1

>  <∆∆G>  (92) 
-9.062471

>  <comRMSD>  (92) 
0.751486

>  <N_rotatable_bonds>  (92) 
3

>  <N_unconstrained_atoms>  (92) 
1

>  <N_constrained_atoms>  (92) 
16

$$$$
Z1798083960
     RDKit          3D

 32 32  0  0  0  0  0  0  0  0999 V2000
   12.2780   15.0180   20.4550 C   0  0  0  0  0  0  0  0  0  0  0  0
   10.8990   14.9570   19.8280 C   0  0  0  0  0  0  0  0  0  0  0  0
    9.8250   15.5440   20.7240 C   0  0  0  0  0  0  0  0  0  0  0  0
    9.7120   17.0480   20.5890 C   0  0  0  0  0  0  0  0  0  0  0  0
   10.0000   15.1330   22.1780 C   0  0  0  0  0  0  0  0  0  0  0  0
   10.7160   15.6990   23.0010 O   0  0  0  0  0  0  0  0  0  0  0  0
    9.2080   14.0540   22.4330 O   0  0  0  0  0  0  0  0  0  0  0  0
    8.8050   13.9300   23.8010 C   0  0  0  0  0  0  0  0  0  0  0  0
    8.6740   12.5780   24.1570 C   0  0  0  0  0  0  0  0  0  0  0  0
    7.7010   12.1790   25.0780 C   0  0  0  0  0  0  0  0  0  0  0  0
    7.5100   10.9090   25.4780 N   0  0  0  0  0  0  0  0  0  0  0  0
    8.3210    9.9790   24.9340 C   0  0  0  0  0  0  0  0  0  0  0  0
    9.3130   10.2480   24.0060 C   0  0  0  0  0  0  0  0  0  0  0  0
   10.1730    9.1540   23.4350 C   0  0  0  0  0  0  0  0  0  0  0  0
    9.4950   11.5810   23.6150 C   0  0  0  0  0  0  0  0  0  0  0  0
   12.4270   15.9250   21.0480 H   0  0  0  0  0  0  0  0  0  0  0  0
   13.0340   15.0020   19.6650 H   0  0  0  0  0  0  0  0  0  0  0  0
   12.4470   14.1620   21.1110 H   0  0  0  0  0  0  0  0  0  0  0  0
   10.8700   15.4590   18.8540 H   0  0  0  0  0  0  0  0  0  0  0  0
   10.6610   13.9180   19.6000 H   0  0  0  0  0  0  0  0  0  0  0  0
    8.8780   15.0990   20.3950 H   0  0  0  0  0  0  0  0  0  0  0  0
    9.6760   17.3380   19.5360 H   0  0  0  0  0  0  0  0  0  0  0  0
    8.7980   17.4250   21.0660 H   0  0  0  0  0  0  0  0  0  0  0  0
   10.5530   17.5620   21.0610 H   0  0  0  0  0  0  0  0  0  0  0  0
    7.8330   14.4280   23.8960 H   0  0  0  0  0  0  0  0  0  0  0  0
    9.4770   14.4640   24.4830 H   0  0  0  0  0  0  0  0  0  0  0  0
    7.0270   12.8990   25.5340 H   0  0  0  0  0  0  0  0  0  0  0  0
    8.1440    8.9720   25.2820 H   0  0  0  0  0  0  0  0  0  0  0  0
   10.9350    8.8570   24.1610 H   0  0  0  0  0  0  0  0  0  0  0  0
   10.6660    9.4820   22.5140 H   0  0  0  0  0  0  0  0  0  0  0  0
    9.5680    8.2750   23.1780 H   0  0  0  0  0  0  0  0  0  0  0  0
   10.2700   11.8370   22.8940 H   0  0  0  0  0  0  0  0  0  0  0  0
  1  2  1  0
  2  3  1  0
  3  4  1  0
  3  5  1  0
  5  6  2  0
  5  7  1  0
  7  8  1  0
  8  9  1  0
  9 10  2  0
 10 11  1  0
 11 12  2  0
 12 13  1  0
 13 14  1  0
 13 15  2  0
 15  9  1  0
  1 16  1  0
  1 17  1  0
  1 18  1  0
  2 19  1  0
  2 20  1  0
  3 21  1  0
  4 22  1  0
  4 23  1  0
  4 24  1  0
  8 25  1  0
  8 26  1  0
 10 27  1  0
 12 28  1  0
 14 29  1  0
 14 30  1  0
 14 31  1  0
 15 32  1  0
A    1
 C1 
A    2
 C2 
A    3
 C3 
A    4
 C4 
A    5
 C5 
A    6
 O1 
A    7
 O2 
A    8
 C6 
A    9
 C7 
A   10
 C8 
A   11
 N1 
A   12
 C9 
A   13
 C10
A   14
 C11
A   15
 C12
A   16
 H1 
A   17
 H2 
A   18
 H3 
A   19
 H4 
A   20
 H5 
A   21
 H6 
A   22
 H7 
A   23
 H8 
A   24
 H9 
A   25
 H10
A   26
 H11
A   27
 H12
A   28
 H13
A   29
 H14
A   30
 H15
A   31
 H16
A   32
 H17
M  END
>  <ref_pdb>  (93) 
x0554_0A

>  <ref_mols>  (93) 
x0416_0A

>  <original SMILES>  (93) 
CCC(C)C(=O)OCc1cncc(C)c1

>  <rationale>  (93) 
info cluster #2 (rank 10); hbond:S87; hydroph_interaction:Y90+V124+V84; 

>  <cluster_rank>  (93) 
10

>  <N_interactions>  (93) 
5

>  <N_interactions_lost>  (93) 
1

>  <∆∆G>  (93) 
-9.792736

>  <comRMSD>  (93) 
0.492393

>  <N_rotatable_bonds>  (93) 
7

>  <N_unconstrained_atoms>  (93) 
3

>  <N_constrained_atoms>  (93) 
12

$$$$
PV_002210460146
     RDKit          3D

 22 22  0  0  0  0  0  0  0  0999 V2000
   11.8540   14.2070   22.3730 C   0  0  0  0  0  0  0  0  0  0  0  0
   11.1020   13.4660   23.4810 C   0  0  0  0  0  0  0  0  0  0  0  0
   11.1050   13.9030   24.6250 O   0  0  0  0  0  0  0  0  0  0  0  0
   10.4680   12.3180   23.0340 N   0  0  0  0  0  0  0  0  0  0  0  0
    9.5420   11.4730   23.7280 C   0  0  0  0  0  0  0  0  0  0  0  0
    8.5350   11.9490   24.6190 C   0  0  0  0  0  0  0  0  0  0  0  0
    8.3100   13.8020   24.9640 Br  0  0  0  0  0  0  0  0  0  0  0  0
    7.7020   11.1100   25.2490 C   0  0  0  0  0  0  0  0  0  0  0  0
    6.7610   11.5610   26.0870 F   0  0  0  0  0  0  0  0  0  0  0  0
    7.7530    9.6470   25.0730 C   0  0  0  0  0  0  0  0  0  0  0  0
    8.7230    9.1860   24.1990 C   0  0  0  0  0  0  0  0  0  0  0  0
    9.5890   10.0720   23.5440 C   0  0  0  0  0  0  0  0  0  0  0  0
   10.5370    9.3520   22.6460 C   0  0  0  0  0  0  0  0  0  0  0  0
   11.2740   15.0700   22.0370 H   0  0  0  0  0  0  0  0  0  0  0  0
   12.0130   13.5420   21.5220 H   0  0  0  0  0  0  0  0  0  0  0  0
   12.8200   14.5600   22.7410 H   0  0  0  0  0  0  0  0  0  0  0  0
   10.7620   12.0000   22.1040 H   0  0  0  0  0  0  0  0  0  0  0  0
    7.0660    9.0040   25.6020 H   0  0  0  0  0  0  0  0  0  0  0  0
    8.8060    8.1150   24.0230 H   0  0  0  0  0  0  0  0  0  0  0  0
    9.9930    8.8200   21.8700 H   0  0  0  0  0  0  0  0  0  0  0  0
   11.0820    8.5920   23.2060 H   0  0  0  0  0  0  0  0  0  0  0  0
   11.2120   10.0690   22.2100 H   0  0  0  0  0  0  0  0  0  0  0  0
  1  2  1  0
  2  3  2  0
  2  4  1  0
  4  5  1  0
  5  6  2  0
  6  7  1  0
  6  8  1  0
  8  9  1  0
  8 10  2  0
 10 11  1  0
 11 12  2  0
 12 13  1  0
 12  5  1  0
  1 14  1  0
  1 15  1  0
  1 16  1  0
  4 17  1  0
 10 18  1  0
 11 19  1  0
 13 20  1  0
 13 21  1  0
 13 22  1  0
A    1
 C1 
A    2
 C2 
A    3
 O1 
A    4
 N1 
A    5
 C3 
A    6
 C4 
A    7
BR1 
A    8
 C5 
A    9
 F1 
A   10
 C6 
A   11
 C7 
A   12
 C8 
A   13
 C9 
A   14
 H1 
A   15
 H2 
A   16
 H3 
A   17
 H4 
A   18
 H5 
A   19
 H6 
A   20
 H7 
A   21
 H8 
A   22
 H9 
M  END
>  <ref_pdb>  (94) 
x0554_0A

>  <ref_mols>  (94) 
x0554_0A,x0310_0A

>  <original SMILES>  (94) 
CC(=O)Nc1c(C)ccc(F)c1Br

>  <rationale>  (94) 
info cluster #0 (rank 10); hbond:S125; hydroph_interaction:A110+V124; 

>  <cluster_rank>  (94) 
10

>  <N_interactions>  (94) 
3

>  <N_interactions_lost>  (94) 
1

>  <∆∆G>  (94) 
-7.372717

>  <comRMSD>  (94) 
0.62168

>  <N_rotatable_bonds>  (94) 
3

>  <N_unconstrained_atoms>  (94) 
0

>  <N_constrained_atoms>  (94) 
13

$$$$
Z3643921225
     RDKit          3D

 29 29  0  0  0  0  0  0  0  0999 V2000
    9.8140    8.7950   23.3430 C   0  0  0  0  0  0  0  0  0  0  0  0
    9.1010    9.9750   23.9740 C   0  0  0  0  0  0  0  0  0  0  0  0
    7.9790    9.7860   24.7620 N   0  0  0  0  0  0  0  0  0  0  0  0
    7.5860   11.0240   25.1650 N   0  0  0  0  0  0  0  0  0  0  0  0
    6.4200   11.2710   26.0200 C   0  0  0  0  0  0  0  0  0  0  0  0
    6.0090    9.9760   26.6290 C   0  0  0  0  0  0  0  0  0  0  0  0
    6.7450   12.2430   27.1250 C   0  0  0  0  0  0  0  0  0  0  0  0
    8.4490   11.8450   24.6280 C   0  0  0  0  0  0  0  0  0  0  0  0
    9.4500   11.3570   23.8620 C   0  0  0  0  0  0  0  0  0  0  0  0
   10.4830   11.9800   23.1850 N   0  0  0  0  0  0  0  0  0  0  0  0
   11.1030   13.1090   23.6590 C   0  0  0  0  0  0  0  0  0  0  0  0
   10.7950   13.6240   24.7200 O   0  0  0  0  0  0  0  0  0  0  0  0
   12.2010   13.6760   22.7740 C   0  0  0  0  0  0  0  0  0  0  0  0
   11.8600   15.0390   22.3180 C   0  0  0  0  0  0  0  0  0  0  0  0
   11.5250   16.3100   21.9870 N   0  0  0  0  0  0  0  0  0  0  0  0
    9.1860    7.8980   23.3540 H   0  0  0  0  0  0  0  0  0  0  0  0
   10.7230    8.5560   23.9010 H   0  0  0  0  0  0  0  0  0  0  0  0
   10.0880    9.0170   22.3070 H   0  0  0  0  0  0  0  0  0  0  0  0
    5.7220   11.8510   25.4470 H   0  0  0  0  0  0  0  0  0  0  0  0
    5.1430    9.5290   26.1330 H   0  0  0  0  0  0  0  0  0  0  0  0
    6.8560    9.3100   26.5350 H   0  0  0  0  0  0  0  0  0  0  0  0
    5.7890   10.1000   27.6940 H   0  0  0  0  0  0  0  0  0  0  0  0
    6.5630   11.8230   28.1210 H   0  0  0  0  0  0  0  0  0  0  0  0
    6.1150   13.1380   27.0570 H   0  0  0  0  0  0  0  0  0  0  0  0
    7.7910   12.5630   27.0670 H   0  0  0  0  0  0  0  0  0  0  0  0
    8.4400   12.9340   24.7410 H   0  0  0  0  0  0  0  0  0  0  0  0
   10.6720   11.6800   22.2230 H   0  0  0  0  0  0  0  0  0  0  0  0
   12.3530   13.0080   21.9270 H   0  0  0  0  0  0  0  0  0  0  0  0
   13.1420   13.7020   23.3270 H   0  0  0  0  0  0  0  0  0  0  0  0
  1  2  1  0
  2  3  2  0
  3  4  1  0
  4  5  1  0
  5  6  1  0
  5  7  1  0
  4  8  1  0
  8  9  2  0
  9 10  1  0
 10 11  1  0
 11 12  2  0
 11 13  1  0
 13 14  1  0
 14 15  3  0
  9  2  1  0
  1 16  1  0
  1 17  1  0
  1 18  1  0
  5 19  1  0
  6 20  1  0
  6 21  1  0
  6 22  1  0
  7 23  1  0
  7 24  1  0
  7 25  1  0
  8 26  1  0
 10 27  1  0
 13 28  1  0
 13 29  1  0
A    1
 C1 
A    2
 C2 
A    3
 N1 
A    4
 N2 
A    5
 C3 
A    6
 C4 
A    7
 C5 
A    8
 C6 
A    9
 C7 
A   10
 N3 
A   11
 C8 
A   12
 O1 
A   13
 C9 
A   14
 C10
A   15
 N4 
A   16
 H1 
A   17
 H2 
A   18
 H3 
A   19
 H4 
A   20
 H5 
A   21
 H6 
A   22
 H7 
A   23
 H8 
A   24
 H9 
A   25
 H10
A   26
 H11
A   27
 H12
A   28
 H13
A   29
 H14
M  END
>  <ref_pdb>  (95) 
x0554_0A

>  <ref_mols>  (95) 
x0310_0A,x0556_0A

>  <original SMILES>  (95) 
Cc1nn(C(C)C)cc1NC(=O)CC#N

>  <rationale>  (95) 
info cluster #7 (rank 10); hbond:S87+S125; hydroph_interaction:Y89+P107+D109+V124; 

>  <cluster_rank>  (95) 
10

>  <N_interactions>  (95) 
7

>  <N_interactions_lost>  (95) 
3

>  <∆∆G>  (95) 
-8.096612

>  <comRMSD>  (95) 
0.672351

>  <N_rotatable_bonds>  (95) 
6

>  <N_unconstrained_atoms>  (95) 
0

>  <N_constrained_atoms>  (95) 
16

$$$$
PV_007062965961
     RDKit          3D

 27 28  0  0  0  0  0  0  0  0999 V2000
   12.1470   14.9270   21.5780 C   0  0  0  0  0  0  0  0  0  0  0  0
   11.5840   13.7140   22.1840 N   0  0  0  0  0  0  0  0  0  0  0  0
   10.1710   13.9250   23.0920 S   0  0  0  0  0  6  0  0  0  0  0  0
   10.5170   14.6960   24.2620 O   0  0  0  0  0  0  0  0  0  0  0  0
    9.1390   14.2950   22.1410 O   0  0  0  0  0  0  0  0  0  0  0  0
    9.5970   12.4240   23.6950 C   0  0  0  0  0  0  0  0  0  0  0  0
   10.0870   11.0980   23.2540 C   0  0  0  0  0  0  0  0  0  0  0  0
    9.3130   10.1330   23.9880 N   0  0  0  0  0  0  0  0  0  0  0  0
    9.5670    8.7220   23.7310 C   0  0  0  0  0  0  0  0  0  0  0  0
    8.4340   10.8170   24.8330 C   0  0  0  0  0  0  0  0  0  0  0  0
    7.5470   10.2060   25.6950 C   0  0  0  0  0  0  0  0  0  0  0  0
    6.7300   11.0120   26.4580 C   0  0  0  0  0  0  0  0  0  0  0  0
    6.8350   12.3950   26.3400 C   0  0  0  0  0  0  0  0  0  0  0  0
    7.7360   12.9910   25.4750 C   0  0  0  0  0  0  0  0  0  0  0  0
    7.7320   14.8900   25.4570 Br  0  0  0  0  0  0  0  0  0  0  0  0
    8.5640   12.2080   24.6920 C   0  0  0  0  0  0  0  0  0  0  0  0
   12.2600   14.7970   20.4990 H   0  0  0  0  0  0  0  0  0  0  0  0
   11.5110   15.7990   21.7490 H   0  0  0  0  0  0  0  0  0  0  0  0
   13.1170   15.1270   22.0360 H   0  0  0  0  0  0  0  0  0  0  0  0
   11.4620   12.9240   21.5330 H   0  0  0  0  0  0  0  0  0  0  0  0
   10.8430   10.8100   22.5360 H   0  0  0  0  0  0  0  0  0  0  0  0
   10.6440    8.5480   23.7480 H   0  0  0  0  0  0  0  0  0  0  0  0
    9.1370    8.4510   22.7580 H   0  0  0  0  0  0  0  0  0  0  0  0
    9.0690    8.1120   24.4890 H   0  0  0  0  0  0  0  0  0  0  0  0
    7.4820    9.1390   25.7830 H   0  0  0  0  0  0  0  0  0  0  0  0
    6.0150   10.5690   27.1460 H   0  0  0  0  0  0  0  0  0  0  0  0
    6.1830   13.0140   26.9520 H   0  0  0  0  0  0  0  0  0  0  0  0
  1  2  1  0
  2  3  1  0
  3  4  2  0
  3  5  2  0
  3  6  1  0
  6  7  2  0
  7  8  1  0
  8  9  1  0
  8 10  1  0
 10 11  2  0
 11 12  1  0
 12 13  2  0
 13 14  1  0
 14 15  1  0
 14 16  2  0
 16  6  1  0
 16 10  1  0
  1 17  1  0
  1 18  1  0
  1 19  1  0
  2 20  1  0
  7 21  1  0
  9 22  1  0
  9 23  1  0
  9 24  1  0
 11 25  1  0
 12 26  1  0
 13 27  1  0
A    1
 C1 
A    2
 N1 
A    3
 S1 
A    4
 O1 
A    5
 O2 
A    6
 C2 
A    7
 C3 
A    8
 N2 
A    9
 C4 
A   10
 C5 
A   11
 C6 
A   12
 C7 
A   13
 C8 
A   14
 C9 
A   15
BR1 
A   16
 C10
A   17
 H1 
A   18
 H2 
A   19
 H3 
A   20
 H4 
A   21
 H5 
A   22
 H6 
A   23
 H7 
A   24
 H8 
A   25
 H9 
A   26
 H10
A   27
 H11
M  END
>  <ref_pdb>  (96) 
x0554_0A

>  <ref_mols>  (96) 
x0451_0A,x0566_0A

>  <original SMILES>  (96) 
CNS(=O)(=O)c1cn(C)c2cccc(Br)c12

>  <rationale>  (96) 
info cluster #6 (rank 10); hbond:H21; 

>  <cluster_rank>  (96) 
10

>  <N_interactions>  (96) 
1

>  <N_interactions_lost>  (96) 
0

>  <∆∆G>  (96) 
-9.322566

>  <comRMSD>  (96) 
0.612909

>  <N_rotatable_bonds>  (96) 
4

>  <N_unconstrained_atoms>  (96) 
1

>  <N_constrained_atoms>  (96) 
15

$$$$
PV_002829161007
     RDKit          3D

 29 31  0  0  0  0  0  0  0  0999 V2000
    9.1830    8.4250   23.6800 C   0  0  0  0  0  0  0  0  0  0  0  0
    9.0340    9.8340   23.9010 N   0  0  0  0  0  0  0  0  0  0  0  0
    9.7630   10.8320   23.2360 C   0  0  0  0  0  0  0  0  0  0  0  0
    9.3150   12.1720   23.7010 C   0  0  0  0  0  0  0  0  0  0  0  0
    9.9150   13.3680   23.1100 C   0  0  0  0  0  0  0  0  0  0  0  0
    9.1250   14.2410   22.3710 C   0  0  0  0  0  0  0  0  0  0  0  0
    9.7860   15.4630   21.7670 C   0  0  0  0  0  0  0  0  0  0  0  0
    9.1020   16.4090   21.0000 N   0  0  0  0  0  0  0  0  0  0  0  0
   11.2140   15.5680   22.0610 C   0  0  0  0  0  0  0  0  0  0  0  0
   11.8660   14.6540   22.7950 N   0  0  0  0  0  0  0  0  0  0  0  0
   11.2310   13.5650   23.3110 N   0  0  0  0  0  0  0  0  0  0  0  0
    8.3200   11.8990   24.6840 C   0  0  0  0  0  0  0  0  0  0  0  0
    7.5440   12.7010   25.4810 C   0  0  0  0  0  0  0  0  0  0  0  0
    6.6250   12.1390   26.3680 C   0  0  0  0  0  0  0  0  0  0  0  0
    6.4830   10.7680   26.4540 C   0  0  0  0  0  0  0  0  0  0  0  0
    7.2520    9.9290   25.6630 C   0  0  0  0  0  0  0  0  0  0  0  0
    8.1670   10.4820   24.7820 C   0  0  0  0  0  0  0  0  0  0  0  0
    8.5830    8.1380   22.8120 H   0  0  0  0  0  0  0  0  0  0  0  0
   10.2330    8.1900   23.4860 H   0  0  0  0  0  0  0  0  0  0  0  0
    8.8190    7.8870   24.5580 H   0  0  0  0  0  0  0  0  0  0  0  0
   10.5310   10.6430   22.4800 H   0  0  0  0  0  0  0  0  0  0  0  0
    8.0720   14.0480   22.2340 H   0  0  0  0  0  0  0  0  0  0  0  0
    8.2430   16.7480   21.4220 H   0  0  0  0  0  0  0  0  0  0  0  0
    9.6780   17.1620   20.6320 H   0  0  0  0  0  0  0  0  0  0  0  0
   11.8220   16.3880   21.7010 H   0  0  0  0  0  0  0  0  0  0  0  0
    7.6340   13.7820   25.4280 H   0  0  0  0  0  0  0  0  0  0  0  0
    6.0130   12.7900   26.9920 H   0  0  0  0  0  0  0  0  0  0  0  0
    5.7620   10.3370   27.1440 H   0  0  0  0  0  0  0  0  0  0  0  0
    7.1380    8.8710   25.7350 H   0  0  0  0  0  0  0  0  0  0  0  0
  1  2  1  0
  2  3  1  0
  3  4  2  0
  4  5  1  0
  5  6  2  0
  6  7  1  0
  7  8  1  0
  7  9  2  0
  9 10  1  0
 10 11  2  0
  4 12  1  0
 12 13  2  0
 13 14  1  0
 14 15  2  0
 15 16  1  0
 16 17  2  0
 17  2  1  0
 11  5  1  0
 17 12  1  0
  1 18  1  0
  1 19  1  0
  1 20  1  0
  3 21  1  0
  6 22  1  0
  8 23  1  0
  8 24  1  0
  9 25  1  0
 13 26  1  0
 14 27  1  0
 15 28  1  0
 16 29  1  0
A    1
 C1 
A    2
 N1 
A    3
 C2 
A    4
 C3 
A    5
 C4 
A    6
 C5 
A    7
 C6 
A    8
 N2 
A    9
 C7 
A   10
 N3 
A   11
 N4 
A   12
 C8 
A   13
 C9 
A   14
 C10
A   15
 C11
A   16
 C12
A   17
 C13
A   18
 H1 
A   19
 H2 
A   20
 H3 
A   21
 H4 
A   22
 H5 
A   23
 H6 
A   24
 H7 
A   25
 H8 
A   26
 H9 
A   27
 H10
A   28
 H11
A   29
 H12
M  END
>  <ref_pdb>  (97) 
x0554_0A

>  <ref_mols>  (97) 
x0451_0A,x0566_0A

>  <original SMILES>  (97) 
Cn1cc(-c2cc(N)cnn2)c2ccccc21

>  <rationale>  (97) 
info cluster #1 (rank 10); hbond:S87+T126; 

>  <cluster_rank>  (97) 
10

>  <N_interactions>  (97) 
2

>  <N_interactions_lost>  (97) 
1

>  <∆∆G>  (97) 
-6.855306

>  <comRMSD>  (97) 
0.759739

>  <N_rotatable_bonds>  (97) 
3

>  <N_unconstrained_atoms>  (97) 
0

>  <N_constrained_atoms>  (97) 
17

$$$$
Z2827962607
     RDKit          3D

 28 28  0  0  0  0  0  0  0  0999 V2000
   10.5940    9.5840   23.3730 C   0  0  0  0  0  0  0  0  0  0  0  0
    9.5340   10.4070   24.0240 C   0  0  0  0  0  0  0  0  0  0  0  0
    9.3460   11.7860   23.8950 C   0  0  0  0  0  0  0  0  0  0  0  0
   10.3210   12.4590   23.0380 N   0  0  0  0  0  0  0  0  0  0  0  0
   11.1300   13.4230   23.5370 C   0  0  0  0  0  0  0  0  0  0  0  0
   10.9190   13.9090   24.6440 O   0  0  0  0  0  0  0  0  0  0  0  0
   12.2690   13.8440   22.6840 C   0  0  0  0  0  0  0  0  0  0  0  0
   12.0740   15.0860   21.8850 C   0  0  0  0  0  0  0  0  0  0  0  0
   11.2750   15.9240   22.5440 N   0  0  0  0  0  0  0  0  0  0  0  0
    8.2250   12.2510   24.6470 C   0  0  0  0  0  0  0  0  0  0  0  0
    7.5770   11.1140   25.3710 C   0  0  0  0  0  0  0  0  0  0  0  0
    6.3650   11.2720   26.2510 C   0  0  0  0  0  0  0  0  0  0  0  0
    5.7820    9.9790   26.5150 N   0  0  0  0  0  0  0  0  0  0  0  0
    5.8680   12.2940   26.7180 O   0  0  0  0  0  0  0  0  0  0  0  0
    8.3980    9.6770   25.0480 S   0  0  0  0  0  0  0  0  0  0  0  0
   10.7530    9.8890   22.3360 H   0  0  0  0  0  0  0  0  0  0  0  0
   10.3110    8.5280   23.3870 H   0  0  0  0  0  0  0  0  0  0  0  0
   11.5480    9.6970   23.9010 H   0  0  0  0  0  0  0  0  0  0  0  0
   10.6340   12.0470   22.1510 H   0  0  0  0  0  0  0  0  0  0  0  0
   12.4580   13.0400   21.9650 H   0  0  0  0  0  0  0  0  0  0  0  0
   13.1510   13.8170   23.3290 H   0  0  0  0  0  0  0  0  0  0  0  0
   13.0320   15.5870   21.7140 H   0  0  0  0  0  0  0  0  0  0  0  0
   11.6430   14.8390   20.9040 H   0  0  0  0  0  0  0  0  0  0  0  0
   11.4740   15.8400   23.5460 H   0  0  0  0  0  0  0  0  0  0  0  0
   10.3140   15.5790   22.4510 H   0  0  0  0  0  0  0  0  0  0  0  0
    7.7880   13.2410   24.7780 H   0  0  0  0  0  0  0  0  0  0  0  0
    5.2480    9.8560   27.3760 H   0  0  0  0  0  0  0  0  0  0  0  0
    5.8700    9.2070   25.8580 H   0  0  0  0  0  0  0  0  0  0  0  0
  1  2  1  0
  2  3  2  0
  3  4  1  0
  4  5  1  0
  5  6  2  0
  5  7  1  0
  7  8  1  0
  8  9  1  0
  3 10  1  0
 10 11  2  0
 11 12  1  0
 12 13  1  0
 12 14  2  0
 11 15  1  0
 15  2  1  0
  1 16  1  0
  1 17  1  0
  1 18  1  0
  4 19  1  0
  7 20  1  0
  7 21  1  0
  8 22  1  0
  8 23  1  0
  9 24  1  0
  9 25  1  0
 10 26  1  0
 13 27  1  0
 13 28  1  0
A    1
 C1 
A    2
 C2 
A    3
 C3 
A    4
 N1 
A    5
 C4 
A    6
 O1 
A    7
 C5 
A    8
 C6 
A    9
 N2 
A   10
 C7 
A   11
 C8 
A   12
 C9 
A   13
 N3 
A   14
 O2 
A   15
 S1 
A   16
 H1 
A   17
 H2 
A   18
 H3 
A   19
 H4 
A   20
 H5 
A   21
 H6 
A   22
 H7 
A   23
 H8 
A   24
 H9 
A   25
 H10
A   26
 H11
A   27
 H12
A   28
 H13
M  END
>  <ref_pdb>  (98) 
x0554_0A

>  <ref_mols>  (98) 
x0310_0A,x0556_0A

>  <original SMILES>  (98) 
Cc1sc(C(N)=O)cc1NC(=O)CCN

>  <rationale>  (98) 
info cluster #3 (rank 10); hbond:S87+S105+S125; hydroph_interaction:Y89+A110; 

>  <cluster_rank>  (98) 
10

>  <N_interactions>  (98) 
6

>  <N_interactions_lost>  (98) 
3

>  <∆∆G>  (98) 
-8.706733

>  <comRMSD>  (98) 
0.647915

>  <N_rotatable_bonds>  (98) 
6

>  <N_unconstrained_atoms>  (98) 
0

>  <N_constrained_atoms>  (98) 
16

$$$$
Z1432433546
     RDKit          3D

 37 38  0  0  0  0  0  0  0  0999 V2000
   11.5970   14.6160   19.4340 C   0  0  0  0  0  0  0  0  0  0  0  0
   11.8650   14.5840   20.9110 C   0  0  0  0  0  0  0  0  0  0  0  0
   12.8030   15.6680   21.3100 C   0  0  0  0  0  0  0  0  0  0  0  0
   10.6370   14.8240   21.7380 C   0  0  0  0  0  0  0  0  0  0  0  0
    9.6060   15.5810   20.9130 C   0  0  0  0  0  0  0  0  0  0  0  0
   10.0350   13.9060   22.2360 O   0  0  0  0  0  0  0  0  0  0  0  0
   10.4840   13.4510   23.4360 C   0  0  0  0  0  0  0  0  0  0  0  0
   11.2940   14.0190   24.1610 O   0  0  0  0  0  0  0  0  0  0  0  0
    9.8120   12.1300   23.7510 C   0  0  0  0  0  0  0  0  0  0  0  0
   10.1310   10.7550   23.2180 C   0  0  0  0  0  0  0  0  0  0  0  0
    9.2170    9.8930   23.8060 N   0  0  0  0  0  0  0  0  0  0  0  0
    9.1880    8.4770   23.5400 C   0  0  0  0  0  0  0  0  0  0  0  0
    8.3270   10.5420   24.6860 C   0  0  0  0  0  0  0  0  0  0  0  0
    7.1750    9.9720   25.5500 C   0  0  0  0  0  0  0  0  0  0  0  0
    6.4390   11.0920   26.3790 C   0  0  0  0  0  0  0  0  0  0  0  0
    7.0280   12.5220   26.1570 C   0  0  0  0  0  0  0  0  0  0  0  0
    8.0870   12.8540   25.3340 C   0  0  0  0  0  0  0  0  0  0  0  0
    8.6600   11.8460   24.6600 C   0  0  0  0  0  0  0  0  0  0  0  0
   12.4940   14.3490   18.8700 H   0  0  0  0  0  0  0  0  0  0  0  0
   11.3020   15.6270   19.1390 H   0  0  0  0  0  0  0  0  0  0  0  0
   10.8000   13.9110   19.1930 H   0  0  0  0  0  0  0  0  0  0  0  0
   12.2960   13.6190   21.2020 H   0  0  0  0  0  0  0  0  0  0  0  0
   12.2330   16.5580   21.5840 H   0  0  0  0  0  0  0  0  0  0  0  0
   13.4790   15.9210   20.5110 H   0  0  0  0  0  0  0  0  0  0  0  0
   13.3910   15.3580   22.1620 H   0  0  0  0  0  0  0  0  0  0  0  0
   10.9540   15.4860   22.5540 H   0  0  0  0  0  0  0  0  0  0  0  0
    9.9400   16.6200   20.7790 H   0  0  0  0  0  0  0  0  0  0  0  0
    8.6380   15.5950   21.4210 H   0  0  0  0  0  0  0  0  0  0  0  0
    9.4740   15.1440   19.9200 H   0  0  0  0  0  0  0  0  0  0  0  0
   10.8850   10.4150   22.5200 H   0  0  0  0  0  0  0  0  0  0  0  0
    8.4590    8.2770   22.7560 H   0  0  0  0  0  0  0  0  0  0  0  0
   10.1780    8.1450   23.2160 H   0  0  0  0  0  0  0  0  0  0  0  0
    8.9070    7.9630   24.4620 H   0  0  0  0  0  0  0  0  0  0  0  0
    6.8940    8.9400   25.5950 H   0  0  0  0  0  0  0  0  0  0  0  0
    5.6020   10.8870   27.0440 H   0  0  0  0  0  0  0  0  0  0  0  0
    6.5640   13.3380   26.7030 H   0  0  0  0  0  0  0  0  0  0  0  0
    8.4330   13.8800   25.2400 H   0  0  0  0  0  0  0  0  0  0  0  0
  1  2  1  0
  2  3  1  0
  2  4  1  0
  4  5  1  0
  4  6  1  0
  6  7  1  0
  7  8  2  0
  7  9  1  0
  9 10  2  0
 10 11  1  0
 11 12  1  0
 11 13  1  0
 13 14  2  0
 14 15  1  0
 15 16  2  0
 16 17  1  0
 17 18  2  0
 18  9  1  0
 18 13  1  0
  1 19  1  0
  1 20  1  0
  1 21  1  0
  2 22  1  0
  3 23  1  0
  3 24  1  0
  3 25  1  0
  4 26  1  0
  5 27  1  0
  5 28  1  0
  5 29  1  0
 10 30  1  0
 12 31  1  0
 12 32  1  0
 12 33  1  0
 14 34  1  0
 15 35  1  0
 16 36  1  0
 17 37  1  0
A    1
 C1 
A    2
 C2 
A    3
 C3 
A    4
 C4 
A    5
 C5 
A    6
 O1 
A    7
 C6 
A    8
 O2 
A    9
 C7 
A   10
 C8 
A   11
 N1 
A   12
 C9 
A   13
 C10
A   14
 C11
A   15
 C12
A   16
 C13
A   17
 C14
A   18
 C15
A   19
 H1 
A   20
 H2 
A   21
 H3 
A   22
 H4 
A   23
 H5 
A   24
 H6 
A   25
 H7 
A   26
 H8 
A   27
 H9 
A   28
 H10
A   29
 H11
A   30
 H12
A   31
 H13
A   32
 H14
A   33
 H15
A   34
 H16
A   35
 H17
A   36
 H18
A   37
 H19
M  END
>  <ref_pdb>  (99) 
x0554_0A

>  <ref_mols>  (99) 
x0451_0A

>  <original SMILES>  (99) 
CC(C)C(C)OC(=O)c1cn(C)c2ccccc12

>  <rationale>  (99) 
info cluster #4 (rank 10); hydroph_interaction:Y89+Y90; saltbridge:H21; 

>  <cluster_rank>  (99) 
10

>  <N_interactions>  (99) 
3

>  <N_interactions_lost>  (99) 
0

>  <∆∆G>  (99) 
-9.759593

>  <comRMSD>  (99) 
0.942845

>  <N_rotatable_bonds>  (99) 
7

>  <N_unconstrained_atoms>  (99) 
3

>  <N_constrained_atoms>  (99) 
17

$$$$
Z4060550902
     RDKit          3D

 35 35  0  0  0  0  0  0  0  0999 V2000
   10.1740    9.0020   22.9420 C   0  0  0  0  0  0  0  0  0  0  0  0
    9.3320   10.0230   23.6850 C   0  0  0  0  0  0  0  0  0  0  0  0
    8.2850    9.4530   24.5300 N   0  0  0  0  0  0  0  0  0  0  0  0
    7.7260   10.5650   25.0380 N   0  0  0  0  0  0  0  0  0  0  0  0
    6.6190   10.4330   25.9550 C   0  0  0  0  0  0  0  0  0  0  0  0
    8.3110   11.7710   24.6020 C   0  0  0  0  0  0  0  0  0  0  0  0
    7.8290   12.9610   25.0490 N   0  0  0  0  0  0  0  0  0  0  0  0
    8.5730   14.2080   24.8680 C   0  0  0  0  0  0  0  0  0  0  0  0
    8.0960   14.8540   23.7330 C   0  0  0  0  0  0  0  0  0  0  0  0
    8.8330   14.4380   22.5650 N   0  0  0  0  0  0  0  0  0  0  0  0
   10.0010   15.0640   22.2180 C   0  0  0  0  0  0  0  0  0  0  0  0
   10.9080   15.3180   23.0080 O   0  0  0  0  0  0  0  0  0  0  0  0
   10.0660   15.4550   20.7540 C   0  0  2  0  0  0  0  0  0  0  0  0
   11.2140   14.8300   20.0180 C   0  0  0  0  0  0  0  0  0  0  0  0
   10.1420   16.9290   20.6480 N   0  0  0  0  0  0  0  0  0  0  0  0
    9.3390   11.4260   23.7360 C   0  0  0  0  0  0  0  0  0  0  0  0
   10.7430    9.4700   22.1340 H   0  0  0  0  0  0  0  0  0  0  0  0
    9.5190    8.2480   22.4960 H   0  0  0  0  0  0  0  0  0  0  0  0
   10.8810    8.5100   23.6150 H   0  0  0  0  0  0  0  0  0  0  0  0
    6.3570   11.4120   26.3580 H   0  0  0  0  0  0  0  0  0  0  0  0
    5.7600   10.0210   25.4280 H   0  0  0  0  0  0  0  0  0  0  0  0
    6.9230    9.7670   26.7630 H   0  0  0  0  0  0  0  0  0  0  0  0
    6.8580   13.0120   25.3530 H   0  0  0  0  0  0  0  0  0  0  0  0
    9.6430   14.0240   24.9080 H   0  0  0  0  0  0  0  0  0  0  0  0
    8.3550   14.8320   25.7410 H   0  0  0  0  0  0  0  0  0  0  0  0
    7.0300   14.6260   23.5970 H   0  0  0  0  0  0  0  0  0  0  0  0
    8.2330   15.9360   23.8360 H   0  0  0  0  0  0  0  0  0  0  0  0
    8.2540   14.0240   21.8270 H   0  0  0  0  0  0  0  0  0  0  0  0
    9.1420   15.1560   20.2600 H   0  0  0  0  0  0  0  0  0  0  0  0
   11.7520   14.1820   20.7230 H   0  0  0  0  0  0  0  0  0  0  0  0
   11.8860   15.5860   19.6040 H   0  0  0  0  0  0  0  0  0  0  0  0
   10.8620   14.1980   19.1950 H   0  0  0  0  0  0  0  0  0  0  0  0
    9.1910   17.2700   20.4680 H   0  0  0  0  0  0  0  0  0  0  0  0
   10.3670   17.3400   21.5660 H   0  0  0  0  0  0  0  0  0  0  0  0
   10.0170   12.1020   23.2000 H   0  0  0  0  0  0  0  0  0  0  0  0
  1  2  1  0
  2  3  2  0
  3  4  1  0
  4  5  1  0
  4  6  1  0
  6  7  1  0
  7  8  1  0
  8  9  1  0
  9 10  1  0
 10 11  1  0
 11 12  2  0
 11 13  1  0
 13 14  1  0
 13 15  1  0
  6 16  2  0
 16  2  1  0
  1 17  1  0
  1 18  1  0
  1 19  1  0
  5 20  1  0
  5 21  1  0
  5 22  1  0
  7 23  1  0
  8 24  1  0
  8 25  1  0
  9 26  1  0
  9 27  1  0
 10 28  1  0
 13 29  1  6
 14 30  1  0
 14 31  1  0
 14 32  1  0
 15 33  1  0
 15 34  1  0
 16 35  1  0
A    1
 C1 
A    2
 C2 
A    3
 N1 
A    4
 N2 
A    5
 C3 
A    6
 C4 
A    7
 N3 
A    8
 C5 
A    9
 C6 
A   10
 N4 
A   11
 C7 
A   12
 O1 
A   13
 C8 
A   14
 C9 
A   15
 N5 
A   16
 C10
A   17
 H1 
A   18
 H2 
A   19
 H3 
A   20
 H4 
A   21
 H5 
A   22
 H6 
A   23
 H7 
A   24
 H8 
A   25
 H9 
A   26
 H10
A   27
 H11
A   28
 H12
A   29
 H13
A   30
 H14
A   31
 H15
A   32
 H16
A   33
 H17
A   34
 H18
A   35
 H19
M  END
>  <ref_pdb>  (100) 
x0554_0A

>  <ref_mols>  (100) 
x0310_0A

>  <original SMILES>  (100) 
Cc1cc(NCCNC(=O)[C@H](C)N)n(C)n1

>  <rationale>  (100) 
info cluster #9 (rank 10); hbond:S87+G127+T126; hydroph_interaction:V124; 

>  <cluster_rank>  (100) 
10

>  <N_interactions>  (100) 
5

>  <N_interactions_lost>  (100) 
1

>  <∆∆G>  (100) 
-9.433151

>  <comRMSD>  (100) 
0.441141

>  <N_rotatable_bonds>  (100) 
9

>  <N_unconstrained_atoms>  (100) 
3

>  <N_constrained_atoms>  (100) 
13

$$$$
Z56827897
     RDKit          3D

 22 22  0  0  0  0  0  0  0  0999 V2000
   11.8970   14.4030   22.3310 C   0  0  0  0  0  0  0  0  0  0  0  0
   11.2320   13.5740   23.4340 C   0  0  0  0  0  0  0  0  0  0  0  0
   11.2290   13.9640   24.5940 O   0  0  0  0  0  0  0  0  0  0  0  0
   10.6840   12.4030   22.9560 N   0  0  0  0  0  0  0  0  0  0  0  0
    9.7820   11.4950   23.5780 C   0  0  0  0  0  0  0  0  0  0  0  0
    9.7650   10.1110   23.2470 C   0  0  0  0  0  0  0  0  0  0  0  0
    8.9180    9.2420   23.8100 C   0  0  0  0  0  0  0  0  0  0  0  0
    8.8930    7.8060   23.4380 C   0  0  0  0  0  0  0  0  0  0  0  0
    8.0170    9.7010   24.7790 C   0  0  0  0  0  0  0  0  0  0  0  0
    7.9820   11.0300   25.1410 C   0  0  0  0  0  0  0  0  0  0  0  0
    8.8510   11.9310   24.5450 C   0  0  0  0  0  0  0  0  0  0  0  0
    8.6950   13.7350   25.1030 Br  0  0  0  0  0  0  0  0  0  0  0  0
   11.9080   13.8500   21.3880 H   0  0  0  0  0  0  0  0  0  0  0  0
   12.9180   14.6490   22.6210 H   0  0  0  0  0  0  0  0  0  0  0  0
   11.3430   15.3320   22.1860 H   0  0  0  0  0  0  0  0  0  0  0  0
   10.9580   12.1170   22.0110 H   0  0  0  0  0  0  0  0  0  0  0  0
   10.4530    9.7190   22.5040 H   0  0  0  0  0  0  0  0  0  0  0  0
    8.1590    7.6300   22.6440 H   0  0  0  0  0  0  0  0  0  0  0  0
    9.8770    7.5290   23.0650 H   0  0  0  0  0  0  0  0  0  0  0  0
    8.6350    7.1940   24.3060 H   0  0  0  0  0  0  0  0  0  0  0  0
    7.3280    9.0230   25.2590 H   0  0  0  0  0  0  0  0  0  0  0  0
    7.2660   11.3550   25.8920 H   0  0  0  0  0  0  0  0  0  0  0  0
  1  2  1  0
  2  3  2  0
  2  4  1  0
  4  5  1  0
  5  6  2  0
  6  7  1  0
  7  8  1  0
  7  9  2  0
  9 10  1  0
 10 11  2  0
 11 12  1  0
 11  5  1  0
  1 13  1  0
  1 14  1  0
  1 15  1  0
  4 16  1  0
  6 17  1  0
  8 18  1  0
  8 19  1  0
  8 20  1  0
  9 21  1  0
 10 22  1  0
A    1
 C1 
A    2
 C2 
A    3
 O1 
A    4
 N1 
A    5
 C3 
A    6
 C4 
A    7
 C5 
A    8
 C6 
A    9
 C7 
A   10
 C8 
A   11
 C9 
A   12
BR1 
A   13
 H1 
A   14
 H2 
A   15
 H3 
A   16
 H4 
A   17
 H5 
A   18
 H6 
A   19
 H7 
A   20
 H8 
A   21
 H9 
A   22
 H10
M  END
>  <ref_pdb>  (101) 
x0554_0A

>  <ref_mols>  (101) 
x0554_0A,x0310_0A

>  <original SMILES>  (101) 
CC(=O)Nc1cc(C)ccc1Br

>  <rationale>  (101) 
info cluster #8 (rank 11); hbond:S125; hydroph_interaction:Y89+D109+V124; 

>  <cluster_rank>  (101) 
11

>  <N_interactions>  (101) 
4

>  <N_interactions_lost>  (101) 
2

>  <∆∆G>  (101) 
-8.147094

>  <comRMSD>  (101) 
0.616398

>  <N_rotatable_bonds>  (101) 
3

>  <N_unconstrained_atoms>  (101) 
1

>  <N_constrained_atoms>  (101) 
13

$$$$
Z1310947600
     RDKit          3D

 22 22  0  0  0  0  0  0  0  0999 V2000
   11.8520   14.1970   22.4230 C   0  0  0  0  0  0  0  0  0  0  0  0
   11.1050   13.4070   23.4730 C   0  0  0  0  0  0  0  0  0  0  0  0
   10.9620   13.8320   24.6120 O   0  0  0  0  0  0  0  0  0  0  0  0
   10.6110   12.1940   23.0370 N   0  0  0  0  0  0  0  0  0  0  0  0
    9.5600   11.4290   23.7530 C   0  0  0  0  0  0  0  0  0  0  0  0
    9.6380    9.9120   23.7240 C   0  0  0  0  0  0  0  0  0  0  0  0
   10.7540    9.2380   22.9950 C   0  0  0  0  0  0  0  0  0  0  0  0
    8.6810    9.1450   24.3780 C   0  0  0  0  0  0  0  0  0  0  0  0
    7.5610    9.8600   25.1220 C   0  0  0  0  0  0  0  0  0  0  0  0
    7.5190   11.2650   25.1280 C   0  0  0  0  0  0  0  0  0  0  0  0
    8.4910   12.0300   24.4590 C   0  0  0  0  0  0  0  0  0  0  0  0
    8.3010   13.7450   24.5500 Cl  0  0  0  0  0  0  0  0  0  0  0  0
   11.9700   13.5860   21.5260 H   0  0  0  0  0  0  0  0  0  0  0  0
   12.8420   14.5000   22.7740 H   0  0  0  0  0  0  0  0  0  0  0  0
   11.2900   15.1020   22.1810 H   0  0  0  0  0  0  0  0  0  0  0  0
   10.8630   11.9020   22.0890 H   0  0  0  0  0  0  0  0  0  0  0  0
   10.8320    9.5630   21.9590 H   0  0  0  0  0  0  0  0  0  0  0  0
   11.6730    9.4240   23.5420 H   0  0  0  0  0  0  0  0  0  0  0  0
   10.5910    8.1570   22.9630 H   0  0  0  0  0  0  0  0  0  0  0  0
    8.7230    8.0560   24.3660 H   0  0  0  0  0  0  0  0  0  0  0  0
    6.7970    9.2940   25.6450 H   0  0  0  0  0  0  0  0  0  0  0  0
    6.7120   11.7590   25.6610 H   0  0  0  0  0  0  0  0  0  0  0  0
  1  2  1  0
  2  3  2  0
  2  4  1  0
  4  5  1  0
  5  6  2  0
  6  7  1  0
  6  8  1  0
  8  9  2  0
  9 10  1  0
 10 11  2  0
 11 12  1  0
 11  5  1  0
  1 13  1  0
  1 14  1  0
  1 15  1  0
  4 16  1  0
  7 17  1  0
  7 18  1  0
  7 19  1  0
  8 20  1  0
  9 21  1  0
 10 22  1  0
A    1
 C1 
A    2
 C2 
A    3
 O1 
A    4
 N1 
A    5
 C3 
A    6
 C4 
A    7
 C5 
A    8
 C6 
A    9
 C7 
A   10
 C8 
A   11
 C9 
A   12
CL1 
A   13
 H1 
A   14
 H2 
A   15
 H3 
A   16
 H4 
A   17
 H5 
A   18
 H6 
A   19
 H7 
A   20
 H8 
A   21
 H9 
A   22
 H10
M  END
>  <ref_pdb>  (102) 
x0554_0A

>  <ref_mols>  (102) 
x0554_0A,x0310_0A

>  <original SMILES>  (102) 
CC(=O)Nc1c(C)cccc1Cl

>  <rationale>  (102) 
info cluster #5 (rank 11); hbond:S125; hydroph_interaction:Y89+A110+V124; 

>  <cluster_rank>  (102) 
11

>  <N_interactions>  (102) 
4

>  <N_interactions_lost>  (102) 
2

>  <∆∆G>  (102) 
-8.119739

>  <comRMSD>  (102) 
0.706487

>  <N_rotatable_bonds>  (102) 
3

>  <N_unconstrained_atoms>  (102) 
1

>  <N_constrained_atoms>  (102) 
13

$$$$
Z4231723121
     RDKit          3D

 36 37  0  0  0  0  0  0  0  0999 V2000
    9.4310   15.5290   20.3930 C   0  0  0  0  0  0  0  0  0  0  0  0
   10.6820   14.6940   20.3660 C   0  0  0  0  0  0  0  0  0  0  0  0
   11.3480   14.7830   21.6930 C   0  0  2  0  0  0  0  0  0  0  0  0
   12.6640   15.4580   21.4360 C   0  0  0  0  0  0  0  0  0  0  0  0
   11.4590   13.5710   22.3330 N   0  0  0  0  0  0  0  0  0  0  0  0
   10.6690   13.5640   23.5430 C   0  0  0  0  0  0  0  0  0  0  0  0
    9.9140   12.2690   23.8350 C   0  0  0  0  0  0  0  0  0  0  0  0
   10.2690   10.9230   23.2510 C   0  0  0  0  0  0  0  0  0  0  0  0
    9.3880    9.9970   23.7360 N   0  0  0  0  0  0  0  0  0  0  0  0
    9.3630    8.5870   23.4360 C   0  0  0  0  0  0  0  0  0  0  0  0
    8.5190   10.6610   24.5800 C   0  0  0  0  0  0  0  0  0  0  0  0
    7.4420   10.0400   25.3060 C   0  0  0  0  0  0  0  0  0  0  0  0
    6.5770   10.7060   26.1380 C   0  0  0  0  0  0  0  0  0  0  0  0
    6.7300   12.0790   26.3110 C   0  0  0  0  0  0  0  0  0  0  0  0
    7.8590   12.8400   25.5810 C   0  0  0  0  0  0  0  0  0  0  0  0
    8.7870   12.0210   24.6670 C   0  0  0  0  0  0  0  0  0  0  0  0
    9.6540   16.5960   20.2710 H   0  0  0  0  0  0  0  0  0  0  0  0
    8.7940   15.2160   19.5790 H   0  0  0  0  0  0  0  0  0  0  0  0
    8.8840   15.3990   21.3310 H   0  0  0  0  0  0  0  0  0  0  0  0
   11.3680   15.0600   19.5930 H   0  0  0  0  0  0  0  0  0  0  0  0
   10.4400   13.6600   20.1580 H   0  0  0  0  0  0  0  0  0  0  0  0
   10.7700   15.4490   22.3450 H   0  0  0  0  0  0  0  0  0  0  0  0
   12.5030   16.5220   21.4810 H   0  0  0  0  0  0  0  0  0  0  0  0
   13.0420   15.2220   20.4400 H   0  0  0  0  0  0  0  0  0  0  0  0
   13.4040   15.1840   22.1750 H   0  0  0  0  0  0  0  0  0  0  0  0
   11.1910   12.7960   21.7100 H   0  0  0  0  0  0  0  0  0  0  0  0
   11.3230   13.7660   24.4010 H   0  0  0  0  0  0  0  0  0  0  0  0
    9.9340   14.3740   23.5130 H   0  0  0  0  0  0  0  0  0  0  0  0
   11.1060   10.7950   22.5640 H   0  0  0  0  0  0  0  0  0  0  0  0
   10.3420    8.2420   23.0910 H   0  0  0  0  0  0  0  0  0  0  0  0
    9.1040    8.0620   24.3620 H   0  0  0  0  0  0  0  0  0  0  0  0
    8.6130    8.3940   22.6740 H   0  0  0  0  0  0  0  0  0  0  0  0
    7.3260    8.9760   25.1790 H   0  0  0  0  0  0  0  0  0  0  0  0
    5.7860   10.1380   26.6450 H   0  0  0  0  0  0  0  0  0  0  0  0
    6.0530   12.6320   26.9660 H   0  0  0  0  0  0  0  0  0  0  0  0
    7.9930   13.9110   25.7090 H   0  0  0  0  0  0  0  0  0  0  0  0
  1  2  1  0
  2  3  1  0
  3  4  1  0
  3  5  1  0
  5  6  1  0
  6  7  1  0
  7  8  2  0
  8  9  1  0
  9 10  1  0
  9 11  1  0
 11 12  2  0
 12 13  1  0
 13 14  2  0
 14 15  1  0
 15 16  2  0
 16  7  1  0
 16 11  1  0
  1 17  1  0
  1 18  1  0
  1 19  1  0
  2 20  1  0
  2 21  1  0
  3 22  1  1
  4 23  1  0
  4 24  1  0
  4 25  1  0
  5 26  1  0
  6 27  1  0
  6 28  1  0
  8 29  1  0
 10 30  1  0
 10 31  1  0
 10 32  1  0
 12 33  1  0
 13 34  1  0
 14 35  1  0
 15 36  1  0
A    1
 C1 
A    2
 C2 
A    3
 C3 
A    4
 C4 
A    5
 N1 
A    6
 C5 
A    7
 C6 
A    8
 C7 
A    9
 N2 
A   10
 C8 
A   11
 C9 
A   12
 C10
A   13
 C11
A   14
 C12
A   15
 C13
A   16
 C14
A   17
 H1 
A   18
 H2 
A   19
 H3 
A   20
 H4 
A   21
 H5 
A   22
 H6 
A   23
 H7 
A   24
 H8 
A   25
 H9 
A   26
 H10
A   27
 H11
A   28
 H12
A   29
 H13
A   30
 H14
A   31
 H15
A   32
 H16
A   33
 H17
A   34
 H18
A   35
 H19
A   36
 H20
M  END
>  <ref_pdb>  (103) 
x0554_0A

>  <ref_mols>  (103) 
x0451_0A

>  <original SMILES>  (103) 
CC[C@H](C)NCc1cn(C)c2ccccc12

>  <rationale>  (103) 
info cluster #2 (rank 11); hbond:H21; hydroph_interaction:Y89+Y90+V84; 

>  <cluster_rank>  (103) 
11

>  <N_interactions>  (103) 
4

>  <N_interactions_lost>  (103) 
0

>  <∆∆G>  (103) 
-8.110846

>  <comRMSD>  (103) 
0.753948

>  <N_rotatable_bonds>  (103) 
7

>  <N_unconstrained_atoms>  (103) 
1

>  <N_constrained_atoms>  (103) 
19

$$$$
PV_002885158418
     RDKit          3D

 22 22  0  0  0  0  0  0  0  0999 V2000
   12.0580   14.8620   21.9420 C   0  0  0  0  0  0  0  0  0  0  0  0
   11.0760   13.8290   22.1840 N   0  0  0  0  0  0  0  0  0  0  0  0
   10.5340   13.6720   23.4470 C   0  0  0  0  0  0  0  0  0  0  0  0
   10.4710   14.5710   24.2750 O   0  0  0  0  0  0  0  0  0  0  0  0
   10.0020   12.2520   23.7380 C   0  0  0  0  0  0  0  0  0  0  0  0
    8.8390   12.3600   24.6900 C   0  0  0  0  0  0  0  0  0  0  0  0
    8.5430   10.8270   24.7580 C   0  0  0  0  0  0  0  0  0  0  0  0
    7.4210   10.4990   25.6340 C   0  0  0  0  0  0  0  0  0  0  0  0
    9.4050   10.0060   23.9610 C   0  0  0  0  0  0  0  0  0  0  0  0
    9.5150    8.5300   23.6830 C   0  0  0  0  0  0  0  0  0  0  0  0
    8.6870    7.6480   23.8340 O   0  0  0  0  0  0  0  0  0  0  0  0
   10.7300    8.2280   23.1940 O   0  0  0  0  0  0  0  0  0  0  0  0
   10.6140   10.8460   23.1000 S   0  0  0  0  0  0  0  0  0  0  0  0
   11.6250   15.8420   22.1690 H   0  0  0  0  0  0  0  0  0  0  0  0
   12.9250   14.6920   22.5800 H   0  0  0  0  0  0  0  0  0  0  0  0
   12.3910   14.8540   20.8990 H   0  0  0  0  0  0  0  0  0  0  0  0
   11.1080   13.0120   21.5730 H   0  0  0  0  0  0  0  0  0  0  0  0
    8.3610   13.2170   25.1670 H   0  0  0  0  0  0  0  0  0  0  0  0
    6.4730   10.5650   25.1020 H   0  0  0  0  0  0  0  0  0  0  0  0
    7.5310    9.4910   26.0420 H   0  0  0  0  0  0  0  0  0  0  0  0
    7.3710   11.1880   26.4850 H   0  0  0  0  0  0  0  0  0  0  0  0
   10.6230    7.2750   23.0020 H   0  0  0  0  0  0  0  0  0  0  0  0
  1  2  1  0
  2  3  1  0
  3  4  2  0
  3  5  1  0
  5  6  2  0
  6  7  1  0
  7  8  1  0
  7  9  2  0
  9 10  1  0
 10 11  2  0
 10 12  1  0
  9 13  1  0
 13  5  1  0
  1 14  1  0
  1 15  1  0
  1 16  1  0
  2 17  1  0
  6 18  1  0
  8 19  1  0
  8 20  1  0
  8 21  1  0
 12 22  1  0
A    1
 C1 
A    2
 N1 
A    3
 C2 
A    4
 O1 
A    5
 C3 
A    6
 C4 
A    7
 C5 
A    8
 C6 
A    9
 C7 
A   10
 C8 
A   11
 O2 
A   12
 O3 
A   13
 S1 
A   14
 H1 
A   15
 H2 
A   16
 H3 
A   17
 H4 
A   18
 H5 
A   19
 H6 
A   20
 H7 
A   21
 H8 
A   22
 H9 
M  END
>  <ref_pdb>  (104) 
x0554_0A

>  <ref_mols>  (104) 
x0451_0A,x0556_0A

>  <original SMILES>  (104) 
CNC(=O)c1cc(C)c(C(=O)O)s1

>  <rationale>  (104) 
info cluster #0 (rank 11); hbond:S105+S125+D109+E106; 

>  <cluster_rank>  (104) 
11

>  <N_interactions>  (104) 
4

>  <N_interactions_lost>  (104) 
1

>  <∆∆G>  (104) 
-5.414938

>  <comRMSD>  (104) 
0.747749

>  <N_rotatable_bonds>  (104) 
4

>  <N_unconstrained_atoms>  (104) 
2

>  <N_constrained_atoms>  (104) 
13

$$$$
PV_007056404006
     RDKit          3D

 27 28  0  0  0  0  0  0  0  0999 V2000
   12.1720   14.8400   21.5660 C   0  0  0  0  0  0  0  0  0  0  0  0
   11.5960   13.6560   22.1950 N   0  0  0  0  0  0  0  0  0  0  0  0
   10.1870   13.9010   23.0800 S   0  0  0  0  0  6  0  0  0  0  0  0
   10.5150   14.6440   24.2730 O   0  0  0  0  0  0  0  0  0  0  0  0
    9.1520   14.3070   22.1440 O   0  0  0  0  0  0  0  0  0  0  0  0
    9.5650   12.4060   23.6640 C   0  0  0  0  0  0  0  0  0  0  0  0
    9.9240   11.0340   23.3580 C   0  0  0  0  0  0  0  0  0  0  0  0
    9.2440   10.0820   23.9530 N   0  0  0  0  0  0  0  0  0  0  0  0
    9.4580    8.7480   23.7490 C   0  0  0  0  0  0  0  0  0  0  0  0
    8.3230   10.8560   24.7730 C   0  0  0  0  0  0  0  0  0  0  0  0
    7.3680   10.3150   25.6180 C   0  0  0  0  0  0  0  0  0  0  0  0
    6.5330   11.1620   26.3370 C   0  0  0  0  0  0  0  0  0  0  0  0
    5.1890   10.5040   27.4900 Br  0  0  0  0  0  0  0  0  0  0  0  0
    6.6870   12.5390   26.2000 C   0  0  0  0  0  0  0  0  0  0  0  0
    7.6630   13.0900   25.3460 C   0  0  0  0  0  0  0  0  0  0  0  0
    8.5060   12.2310   24.6050 C   0  0  0  0  0  0  0  0  0  0  0  0
   13.0950   15.1020   22.0910 H   0  0  0  0  0  0  0  0  0  0  0  0
   12.4180   14.6420   20.5190 H   0  0  0  0  0  0  0  0  0  0  0  0
   11.4820   15.6890   21.5960 H   0  0  0  0  0  0  0  0  0  0  0  0
   11.4900   12.9110   21.5060 H   0  0  0  0  0  0  0  0  0  0  0  0
   10.7220   10.7850   22.6530 H   0  0  0  0  0  0  0  0  0  0  0  0
   10.5340    8.5700   23.7030 H   0  0  0  0  0  0  0  0  0  0  0  0
    8.9840    8.4470   22.8110 H   0  0  0  0  0  0  0  0  0  0  0  0
    9.0270    8.1950   24.5900 H   0  0  0  0  0  0  0  0  0  0  0  0
    7.2610    9.2450   25.7240 H   0  0  0  0  0  0  0  0  0  0  0  0
    6.0370   13.2060   26.7630 H   0  0  0  0  0  0  0  0  0  0  0  0
    7.7520   14.1700   25.2650 H   0  0  0  0  0  0  0  0  0  0  0  0
  1  2  1  0
  2  3  1  0
  3  4  2  0
  3  5  2  0
  3  6  1  0
  6  7  2  0
  7  8  1  0
  8  9  1  0
  8 10  1  0
 10 11  2  0
 11 12  1  0
 12 13  1  0
 12 14  2  0
 14 15  1  0
 15 16  2  0
 16  6  1  0
 16 10  1  0
  1 17  1  0
  1 18  1  0
  1 19  1  0
  2 20  1  0
  7 21  1  0
  9 22  1  0
  9 23  1  0
  9 24  1  0
 11 25  1  0
 14 26  1  0
 15 27  1  0
A    1
 C1 
A    2
 N1 
A    3
 S1 
A    4
 O1 
A    5
 O2 
A    6
 C2 
A    7
 C3 
A    8
 N2 
A    9
 C4 
A   10
 C5 
A   11
 C6 
A   12
 C7 
A   13
BR1 
A   14
 C8 
A   15
 C9 
A   16
 C10
A   17
 H1 
A   18
 H2 
A   19
 H3 
A   20
 H4 
A   21
 H5 
A   22
 H6 
A   23
 H7 
A   24
 H8 
A   25
 H9 
A   26
 H10
A   27
 H11
M  END
>  <ref_pdb>  (105) 
x0554_0A

>  <ref_mols>  (105) 
x0451_0A,x0566_0A

>  <original SMILES>  (105) 
CNS(=O)(=O)c1cn(C)c2cc(Br)ccc12

>  <rationale>  (105) 
info cluster #6 (rank 11); hbond:H21; 

>  <cluster_rank>  (105) 
11

>  <N_interactions>  (105) 
1

>  <N_interactions_lost>  (105) 
0

>  <∆∆G>  (105) 
-9.218897

>  <comRMSD>  (105) 
0.566661

>  <N_rotatable_bonds>  (105) 
4

>  <N_unconstrained_atoms>  (105) 
1

>  <N_constrained_atoms>  (105) 
15

$$$$
Z1556059446
     RDKit          3D

 24 24  0  0  0  0  0  0  0  0999 V2000
   11.9470   14.7330   21.6240 C   0  0  0  0  0  0  0  0  0  0  0  0
   10.8880   13.8430   22.0550 N   0  0  0  0  0  0  0  0  0  0  0  0
   10.5570   13.8540   23.7280 S   0  0  0  0  0  6  0  0  0  0  0  0
    9.8210   15.0420   24.0370 O   0  0  0  0  0  0  0  0  0  0  0  0
   11.8680   13.6170   24.3080 O   0  0  0  0  0  0  0  0  0  0  0  0
    9.5670   12.4590   24.1410 C   0  0  0  0  0  0  0  0  0  0  0  0
    9.9800   11.2280   23.7270 C   0  0  0  0  0  0  0  0  0  0  0  0
    9.2700   10.0330   24.0290 C   0  0  0  0  0  0  0  0  0  0  0  0
    9.7530    8.7120   23.5500 C   0  0  0  0  0  0  0  0  0  0  0  0
    8.1270   10.2230   24.7900 C   0  0  0  0  0  0  0  0  0  0  0  0
    7.6750   11.4220   25.2080 N   0  0  0  0  0  0  0  0  0  0  0  0
    8.3730   12.5320   24.8890 C   0  0  0  0  0  0  0  0  0  0  0  0
    7.7790   13.6840   25.3860 N   0  0  0  0  0  0  0  0  0  0  0  0
   11.5570   15.7550   21.6090 H   0  0  0  0  0  0  0  0  0  0  0  0
   12.7860   14.6660   22.3180 H   0  0  0  0  0  0  0  0  0  0  0  0
   12.2660   14.4280   20.6220 H   0  0  0  0  0  0  0  0  0  0  0  0
   10.9580   12.8830   21.6820 H   0  0  0  0  0  0  0  0  0  0  0  0
   10.8900   11.1460   23.1410 H   0  0  0  0  0  0  0  0  0  0  0  0
   10.7830    8.5540   23.8760 H   0  0  0  0  0  0  0  0  0  0  0  0
    9.7170    8.6610   22.4550 H   0  0  0  0  0  0  0  0  0  0  0  0
    9.1260    7.9030   23.9330 H   0  0  0  0  0  0  0  0  0  0  0  0
    7.5080    9.4130   25.1060 H   0  0  0  0  0  0  0  0  0  0  0  0
    7.5230   13.5190   26.3540 H   0  0  0  0  0  0  0  0  0  0  0  0
    6.9900   13.9910   24.8150 H   0  0  0  0  0  0  0  0  0  0  0  0
  1  2  1  0
  2  3  1  0
  3  4  2  0
  3  5  2  0
  3  6  1  0
  6  7  2  0
  7  8  1  0
  8  9  1  0
  8 10  2  0
 10 11  1  0
 11 12  2  0
 12 13  1  0
 12  6  1  0
  1 14  1  0
  1 15  1  0
  1 16  1  0
  2 17  1  0
  7 18  1  0
  9 19  1  0
  9 20  1  0
  9 21  1  0
 10 22  1  0
 13 23  1  0
 13 24  1  0
A    1
 C1 
A    2
 N1 
A    3
 S1 
A    4
 O1 
A    5
 O2 
A    6
 C2 
A    7
 C3 
A    8
 C4 
A    9
 C5 
A   10
 C6 
A   11
 N2 
A   12
 C7 
A   13
 N3 
A   14
 H1 
A   15
 H2 
A   16
 H3 
A   17
 H4 
A   18
 H5 
A   19
 H6 
A   20
 H7 
A   21
 H8 
A   22
 H9 
A   23
 H10
A   24
 H11
M  END
>  <ref_pdb>  (106) 
x0554_0A

>  <ref_mols>  (106) 
x0416_0A,x0451_0A

>  <original SMILES>  (106) 
CNS(=O)(=O)c1cc(C)cnc1N

>  <rationale>  (106) 
info cluster #7 (rank 11); hbond:S87+S125; hydroph_interaction:D109+V124; 

>  <cluster_rank>  (106) 
11

>  <N_interactions>  (106) 
4

>  <N_interactions_lost>  (106) 
1

>  <∆∆G>  (106) 
-7.497834

>  <comRMSD>  (106) 
0.74656

>  <N_rotatable_bonds>  (106) 
5

>  <N_unconstrained_atoms>  (106) 
1

>  <N_constrained_atoms>  (106) 
14

$$$$
PV_006066664280
     RDKit          3D

 24 25  0  0  0  0  0  0  0  0999 V2000
   10.7450   14.4220   20.3410 N   0  0  0  0  0  0  0  0  0  0  0  0
    9.8920   14.8860   21.1880 C   0  0  0  0  0  0  0  0  0  0  0  0
    9.5740   16.1940   21.1270 N   0  0  0  0  0  0  0  0  0  0  0  0
    9.3210   14.0460   22.1230 N   0  0  0  0  0  0  0  0  0  0  0  0
   10.0890   13.2980   23.0270 C   0  0  0  0  0  0  0  0  0  0  0  0
   11.2390   13.6020   23.3210 O   0  0  0  0  0  0  0  0  0  0  0  0
    9.5150   12.0710   23.6680 C   0  0  0  0  0  0  0  0  0  0  0  0
   10.0550   10.8080   23.3390 C   0  0  0  0  0  0  0  0  0  0  0  0
    9.5690    9.6460   23.9220 C   0  0  0  0  0  0  0  0  0  0  0  0
    8.5340    9.7050   24.8500 C   0  0  0  0  0  0  0  0  0  0  0  0
    7.9710   10.9360   25.1940 C   0  0  0  0  0  0  0  0  0  0  0  0
    8.4620   12.0970   24.6050 C   0  0  0  0  0  0  0  0  0  0  0  0
    7.7140   13.1110   25.1500 N   0  0  0  0  0  0  0  0  0  0  0  0
    6.7850   12.6960   26.0330 N   0  0  0  0  0  0  0  0  0  0  0  0
    6.9440   11.3720   26.0590 C   0  0  0  0  0  0  0  0  0  0  0  0
   10.9350   13.4120   20.4470 H   0  0  0  0  0  0  0  0  0  0  0  0
   10.3670   16.8150   21.2140 H   0  0  0  0  0  0  0  0  0  0  0  0
    8.7320   16.4720   21.6320 H   0  0  0  0  0  0  0  0  0  0  0  0
    8.4470   13.6370   21.8060 H   0  0  0  0  0  0  0  0  0  0  0  0
   10.8670   10.7410   22.6210 H   0  0  0  0  0  0  0  0  0  0  0  0
   10.0020    8.6820   23.6570 H   0  0  0  0  0  0  0  0  0  0  0  0
    8.1750    8.7970   25.3020 H   0  0  0  0  0  0  0  0  0  0  0  0
    7.7830   14.1050   24.9620 H   0  0  0  0  0  0  0  0  0  0  0  0
    6.3130   10.7720   26.7010 H   0  0  0  0  0  0  0  0  0  0  0  0
  1  2  2  3
  2  3  1  0
  2  4  1  0
  4  5  1  0
  5  6  2  0
  5  7  1  0
  7  8  2  0
  8  9  1  0
  9 10  2  0
 10 11  1  0
 11 12  2  0
 12 13  1  0
 13 14  1  0
 14 15  2  0
 12  7  1  0
 15 11  1  0
  1 16  1  0
  3 17  1  0
  3 18  1  0
  4 19  1  0
  8 20  1  0
  9 21  1  0
 10 22  1  0
 13 23  1  0
 15 24  1  0
A    1
 N1 
A    2
 C1 
A    3
 N2 
A    4
 N3 
A    5
 C2 
A    6
 O1 
A    7
 C3 
A    8
 C4 
A    9
 C5 
A   10
 C6 
A   11
 C7 
A   12
 C8 
A   13
 N4 
A   14
 N5 
A   15
 C9 
A   16
 H1 
A   17
 H2 
A   18
 H3 
A   19
 H4 
A   20
 H5 
A   21
 H6 
A   22
 H7 
A   23
 H8 
A   24
 H9 
M  END
>  <ref_pdb>  (107) 
x0554_0A

>  <ref_mols>  (107) 
x0566_0A

>  <original SMILES>  (107) 
N=C(N)NC(=O)c1cccc2cn[nH]c12

>  <rationale>  (107) 
info cluster #3 (rank 11); hbond:S87+S125; 

>  <cluster_rank>  (107) 
11

>  <N_interactions>  (107) 
2

>  <N_interactions_lost>  (107) 
1

>  <∆∆G>  (107) 
-4.300701

>  <comRMSD>  (107) 
0.503111

>  <N_rotatable_bonds>  (107) 
1

>  <N_unconstrained_atoms>  (107) 
0

>  <N_constrained_atoms>  (107) 
15

$$$$
Z3510522343
     RDKit          3D

 32 33  0  0  0  0  0  0  0  0999 V2000
    9.1430   16.1700   20.5910 C   0  0  0  0  0  0  0  0  0  0  0  0
   10.1410   15.4330   21.4370 C   0  0  2  0  0  0  0  0  0  0  0  0
   11.3220   14.9430   20.5880 C   0  0  0  0  0  0  0  0  0  0  0  0
   10.9800   14.2100   19.3860 N   0  0  0  0  0  0  0  0  0  0  0  0
    9.4590   14.3070   22.1080 N   0  0  0  0  0  0  0  0  0  0  0  0
   10.3620   13.5040   23.2640 S   0  0  0  0  0  6  0  0  0  0  0  0
   10.3330   14.3690   24.4190 O   0  0  0  0  0  0  0  0  0  0  0  0
   11.5960   13.0640   22.6760 O   0  0  0  0  0  0  0  0  0  0  0  0
    9.6130   12.0710   23.8310 C   0  0  0  0  0  0  0  0  0  0  0  0
    9.9210   10.6380   23.4940 C   0  0  0  0  0  0  0  0  0  0  0  0
    9.0820    9.8400   24.1910 N   0  0  0  0  0  0  0  0  0  0  0  0
    8.2380   10.6410   24.9660 C   0  0  0  0  0  0  0  0  0  0  0  0
    7.1770   10.2590   25.8850 C   0  0  0  0  0  0  0  0  0  0  0  0
    6.4440   11.1800   26.5560 C   0  0  0  0  0  0  0  0  0  0  0  0
    6.7910   12.6450   26.3080 C   0  0  0  0  0  0  0  0  0  0  0  0
    7.8210   13.0120   25.4260 C   0  0  0  0  0  0  0  0  0  0  0  0
    8.5460   12.0140   24.7530 C   0  0  0  0  0  0  0  0  0  0  0  0
    9.1360   17.2430   20.8170 H   0  0  0  0  0  0  0  0  0  0  0  0
    9.3920   16.0400   19.5350 H   0  0  0  0  0  0  0  0  0  0  0  0
    8.1370   15.7780   20.7600 H   0  0  0  0  0  0  0  0  0  0  0  0
   10.5410   16.1140   22.1950 H   0  0  0  0  0  0  0  0  0  0  0  0
   11.9740   14.3040   21.1970 H   0  0  0  0  0  0  0  0  0  0  0  0
   11.9110   15.8160   20.2930 H   0  0  0  0  0  0  0  0  0  0  0  0
   11.6640   14.4070   18.6540 H   0  0  0  0  0  0  0  0  0  0  0  0
   11.0960   13.2250   19.6020 H   0  0  0  0  0  0  0  0  0  0  0  0
    8.6980   13.8010   21.6380 H   0  0  0  0  0  0  0  0  0  0  0  0
   10.7230   10.3980   22.7840 H   0  0  0  0  0  0  0  0  0  0  0  0
    9.0680    8.8270   24.1580 H   0  0  0  0  0  0  0  0  0  0  0  0
    6.9450    9.2260   26.0620 H   0  0  0  0  0  0  0  0  0  0  0  0
    5.6510   10.8870   27.2390 H   0  0  0  0  0  0  0  0  0  0  0  0
    6.1770   13.3580   26.8690 H   0  0  0  0  0  0  0  0  0  0  0  0
    8.0430   14.0630   25.2730 H   0  0  0  0  0  0  0  0  0  0  0  0
  1  2  1  0
  2  3  1  0
  3  4  1  0
  2  5  1  0
  5  6  1  0
  6  7  2  0
  6  8  2  0
  6  9  1  0
  9 10  2  0
 10 11  1  0
 11 12  1  0
 12 13  2  0
 13 14  1  0
 14 15  2  0
 15 16  1  0
 16 17  2  0
 17  9  1  0
 17 12  1  0
  1 18  1  0
  1 19  1  0
  1 20  1  0
  2 21  1  1
  3 22  1  0
  3 23  1  0
  4 24  1  0
  4 25  1  0
  5 26  1  0
 10 27  1  0
 11 28  1  0
 13 29  1  0
 14 30  1  0
 15 31  1  0
 16 32  1  0
A    1
 C1 
A    2
 C2 
A    3
 C3 
A    4
 N1 
A    5
 N2 
A    6
 S1 
A    7
 O1 
A    8
 O2 
A    9
 C4 
A   10
 C5 
A   11
 N3 
A   12
 C6 
A   13
 C7 
A   14
 C8 
A   15
 C9 
A   16
 C10
A   17
 C11
A   18
 H1 
A   19
 H2 
A   20
 H3 
A   21
 H4 
A   22
 H5 
A   23
 H6 
A   24
 H7 
A   25
 H8 
A   26
 H9 
A   27
 H10
A   28
 H11
A   29
 H12
A   30
 H13
A   31
 H14
A   32
 H15
M  END
>  <ref_pdb>  (108) 
x0554_0A

>  <ref_mols>  (108) 
x0451_0A,x0566_0A

>  <original SMILES>  (108) 
C[C@H](CN)NS(=O)(=O)c1c[nH]c2ccccc12

>  <rationale>  (108) 
info cluster #1 (rank 11); hbond:T126+D39; hydroph_interaction:V84; 

>  <cluster_rank>  (108) 
11

>  <N_interactions>  (108) 
3

>  <N_interactions_lost>  (108) 
0

>  <∆∆G>  (108) 
-7.141599

>  <comRMSD>  (108) 
0.83369

>  <N_rotatable_bonds>  (108) 
6

>  <N_unconstrained_atoms>  (108) 
2

>  <N_constrained_atoms>  (108) 
17

$$$$
Z4489457264
     RDKit          3D

 41 42  0  0  0  0  0  0  0  0999 V2000
   12.2660   15.5820   21.2380 C   0  0  0  0  0  0  0  0  0  0  0  0
   12.0450   14.3190   22.0430 C   0  0  0  0  0  0  0  0  0  0  0  0
   10.6870   14.2150   22.4940 O   0  0  0  0  0  0  0  0  0  0  0  0
   10.5500   13.7590   23.7700 C   0  0  0  0  0  0  0  0  0  0  0  0
   10.8720   14.3980   24.7630 O   0  0  0  0  0  0  0  0  0  0  0  0
    9.9760   12.4210   23.8610 C   0  0  0  0  0  0  0  0  0  0  0  0
   10.4870   11.1410   23.3040 C   0  0  0  0  0  0  0  0  0  0  0  0
    9.6580   10.1250   23.6120 N   0  0  0  0  0  0  0  0  0  0  0  0
    9.8160    8.7440   23.2460 C   0  0  0  0  0  0  0  0  0  0  0  0
    8.6120   10.6360   24.3470 C   0  0  0  0  0  0  0  0  0  0  0  0
    8.7700   12.0140   24.5120 C   0  0  0  0  0  0  0  0  0  0  0  0
    7.9090   12.8460   25.1890 N   0  0  0  0  0  0  0  0  0  0  0  0
    6.7890   12.3840   25.8360 C   0  0  0  0  0  0  0  0  0  0  0  0
    6.5190   11.2260   26.1020 O   0  0  0  0  0  0  0  0  0  0  0  0
    5.8070   13.4890   26.2560 C   0  0  0  0  0  0  0  0  0  0  0  0
    5.5970   14.4560   25.5360 O   0  0  0  0  0  0  0  0  0  0  0  0
    5.1530   13.2890   27.5990 C   0  0  0  0  0  0  0  0  0  0  0  0
    6.0310   12.4410   28.4910 C   0  0  0  0  0  0  0  0  0  0  0  0
    5.0910   12.1140   29.6390 C   0  0  0  0  0  0  0  0  0  0  0  0
    3.7040   12.0220   28.9970 C   0  0  0  0  0  0  0  0  0  0  0  0
    3.8760   12.4660   27.5500 C   0  0  0  0  0  0  0  0  0  0  0  0
   12.0190   15.4180   20.1860 H   0  0  0  0  0  0  0  0  0  0  0  0
   13.3180   15.8690   21.3070 H   0  0  0  0  0  0  0  0  0  0  0  0
   11.6390   16.3890   21.6270 H   0  0  0  0  0  0  0  0  0  0  0  0
   12.7460   14.2810   22.8650 H   0  0  0  0  0  0  0  0  0  0  0  0
   12.2540   13.4360   21.4410 H   0  0  0  0  0  0  0  0  0  0  0  0
   11.4230   11.1590   22.7380 H   0  0  0  0  0  0  0  0  0  0  0  0
    9.7530    8.6520   22.1620 H   0  0  0  0  0  0  0  0  0  0  0  0
   10.7960    8.4160   23.5930 H   0  0  0  0  0  0  0  0  0  0  0  0
    9.0240    8.1620   23.7180 H   0  0  0  0  0  0  0  0  0  0  0  0
    7.8300    9.9790   24.6950 H   0  0  0  0  0  0  0  0  0  0  0  0
    7.8890   13.8240   24.8940 H   0  0  0  0  0  0  0  0  0  0  0  0
    4.9470   14.2760   28.0310 H   0  0  0  0  0  0  0  0  0  0  0  0
    6.9330   12.9430   28.8400 H   0  0  0  0  0  0  0  0  0  0  0  0
    6.3160   11.5240   27.9680 H   0  0  0  0  0  0  0  0  0  0  0  0
    5.1080   12.9210   30.3790 H   0  0  0  0  0  0  0  0  0  0  0  0
    5.3730   11.1870   30.1460 H   0  0  0  0  0  0  0  0  0  0  0  0
    2.9710   12.6320   29.5270 H   0  0  0  0  0  0  0  0  0  0  0  0
    3.3500   10.9830   29.0210 H   0  0  0  0  0  0  0  0  0  0  0  0
    3.0030   13.0170   27.1850 H   0  0  0  0  0  0  0  0  0  0  0  0
    4.0060   11.5890   26.9020 H   0  0  0  0  0  0  0  0  0  0  0  0
  1  2  1  0
  2  3  1  0
  3  4  1  0
  4  5  2  0
  4  6  1  0
  6  7  2  0
  7  8  1  0
  8  9  1  0
  8 10  1  0
 10 11  2  0
 11 12  1  0
 12 13  1  0
 13 14  2  0
 13 15  1  0
 15 16  2  0
 15 17  1  0
 17 18  1  0
 18 19  1  0
 19 20  1  0
 20 21  1  0
 11  6  1  0
 21 17  1  0
  1 22  1  0
  1 23  1  0
  1 24  1  0
  2 25  1  0
  2 26  1  0
  7 27  1  0
  9 28  1  0
  9 29  1  0
  9 30  1  0
 10 31  1  0
 12 32  1  0
 17 33  1  0
 18 34  1  0
 18 35  1  0
 19 36  1  0
 19 37  1  0
 20 38  1  0
 20 39  1  0
 21 40  1  0
 21 41  1  0
A    1
 C1 
A    2
 C2 
A    3
 O1 
A    4
 C3 
A    5
 O2 
A    6
 C4 
A    7
 C5 
A    8
 N1 
A    9
 C6 
A   10
 C7 
A   11
 C8 
A   12
 N2 
A   13
 C9 
A   14
 O3 
A   15
 C10
A   16
 O4 
A   17
 C11
A   18
 C12
A   19
 C13
A   20
 C14
A   21
 C15
A   22
 H1 
A   23
 H2 
A   24
 H3 
A   25
 H4 
A   26
 H5 
A   27
 H6 
A   28
 H7 
A   29
 H8 
A   30
 H9 
A   31
 H10
A   32
 H11
A   33
 H12
A   34
 H13
A   35
 H14
A   36
 H15
A   37
 H16
A   38
 H17
A   39
 H18
A   40
 H19
A   41
 H20
M  END
>  <ref_pdb>  (109) 
x0554_0A

>  <ref_mols>  (109) 
x0451_0A,x0416_0A,x0554_0A

>  <original SMILES>  (109) 
CCOC(=O)c1cn(C)cc1NC(=O)C(=O)C1CCCC1

>  <rationale>  (109) 
info cluster #4 (rank 11); hydroph_interaction:Y89+P107+Y90; saltbridge:H21; 

>  <cluster_rank>  (109) 
11

>  <N_interactions>  (109) 
4

>  <N_interactions_lost>  (109) 
1

>  <∆∆G>  (109) 
-7.265428

>  <comRMSD>  (109) 
0.732127

>  <N_rotatable_bonds>  (109) 
7

>  <N_unconstrained_atoms>  (109) 
2

>  <N_constrained_atoms>  (109) 
21

$$$$
Z2448163075
     RDKit          3D

 33 33  0  0  0  0  0  0  0  0999 V2000
   10.2370    9.0540   22.9630 C   0  0  0  0  0  0  0  0  0  0  0  0
    9.4440   10.1000   23.7370 C   0  0  0  0  0  0  0  0  0  0  0  0
    8.3670    9.6010   24.4450 N   0  0  0  0  0  0  0  0  0  0  0  0
    7.8570   10.6980   25.0200 N   0  0  0  0  0  0  0  0  0  0  0  0
    6.7630   10.5280   25.8210 C   0  0  0  0  0  0  0  0  0  0  0  0
    8.5510   11.8930   24.7080 C   0  0  0  0  0  0  0  0  0  0  0  0
    8.1470   13.2620   25.2370 C   0  0  0  0  0  0  0  0  0  0  0  0
    9.5980   11.5130   23.8800 C   0  0  0  0  0  0  0  0  0  0  0  0
   10.6420   12.5120   23.3100 C   0  0  0  0  0  0  0  0  0  0  0  0
    9.9190   13.6120   22.6790 N   0  0  0  0  0  0  0  0  0  0  0  0
   10.4130   14.8750   22.4010 C   0  0  0  0  0  0  0  0  0  0  0  0
   11.0000   15.5980   23.2120 O   0  0  0  0  0  0  0  0  0  0  0  0
   10.1180   15.3070   20.9680 C   0  0  2  0  0  0  0  0  0  0  0  0
   11.1300   14.8140   19.8820 C   0  0  0  0  0  0  0  0  0  0  0  0
    9.9890   16.7810   20.8760 N   0  0  0  0  0  0  0  0  0  0  0  0
   10.9170    8.5240   23.6280 H   0  0  0  0  0  0  0  0  0  0  0  0
    9.5700    8.3190   22.5010 H   0  0  0  0  0  0  0  0  0  0  0  0
   10.8250    9.5170   22.1660 H   0  0  0  0  0  0  0  0  0  0  0  0
    7.0280    9.9170   26.6900 H   0  0  0  0  0  0  0  0  0  0  0  0
    6.4060   11.5100   26.1450 H   0  0  0  0  0  0  0  0  0  0  0  0
    5.9590   10.0500   25.2710 H   0  0  0  0  0  0  0  0  0  0  0  0
    8.1860   14.0260   24.4520 H   0  0  0  0  0  0  0  0  0  0  0  0
    8.8410   13.5820   26.0260 H   0  0  0  0  0  0  0  0  0  0  0  0
    7.1290   13.2340   25.6390 H   0  0  0  0  0  0  0  0  0  0  0  0
   11.1650   12.9480   24.1640 H   0  0  0  0  0  0  0  0  0  0  0  0
   11.4320   12.2870   22.6070 H   0  0  0  0  0  0  0  0  0  0  0  0
    8.9530   13.4310   22.4380 H   0  0  0  0  0  0  0  0  0  0  0  0
    9.1330   14.8990   20.7270 H   0  0  0  0  0  0  0  0  0  0  0  0
   12.1160   14.6790   20.3410 H   0  0  0  0  0  0  0  0  0  0  0  0
   10.9310   13.8910   19.3490 H   0  0  0  0  0  0  0  0  0  0  0  0
   11.2450   15.5980   19.1220 H   0  0  0  0  0  0  0  0  0  0  0  0
    8.9900   17.0090   20.9100 H   0  0  0  0  0  0  0  0  0  0  0  0
   10.3600   17.2380   21.7210 H   0  0  0  0  0  0  0  0  0  0  0  0
  1  2  1  0
  2  3  2  0
  3  4  1  0
  4  5  1  0
  4  6  1  0
  6  7  1  0
  6  8  2  0
  8  9  1  0
  9 10  1  0
 10 11  1  0
 11 12  2  0
 11 13  1  0
 13 14  1  0
 13 15  1  0
  8  2  1  0
  1 16  1  0
  1 17  1  0
  1 18  1  0
  5 19  1  0
  5 20  1  0
  5 21  1  0
  7 22  1  0
  7 23  1  0
  7 24  1  0
  9 25  1  0
  9 26  1  0
 10 27  1  0
 13 28  1  6
 14 29  1  0
 14 30  1  0
 14 31  1  0
 15 32  1  0
 15 33  1  0
A    1
 C1 
A    2
 C2 
A    3
 N1 
A    4
 N2 
A    5
 C3 
A    6
 C4 
A    7
 C5 
A    8
 C6 
A    9
 C7 
A   10
 N3 
A   11
 C8 
A   12
 O1 
A   13
 C9 
A   14
 C10
A   15
 N4 
A   16
 H1 
A   17
 H2 
A   18
 H3 
A   19
 H4 
A   20
 H5 
A   21
 H6 
A   22
 H7 
A   23
 H8 
A   24
 H9 
A   25
 H10
A   26
 H11
A   27
 H12
A   28
 H13
A   29
 H14
A   30
 H15
A   31
 H16
A   32
 H17
A   33
 H18
M  END
>  <ref_pdb>  (110) 
x0554_0A

>  <ref_mols>  (110) 
x0310_0A

>  <original SMILES>  (110) 
Cc1nn(C)c(C)c1CNC(=O)[C@H](C)N

>  <rationale>  (110) 
info cluster #9 (rank 11); hbond:S87+T126; hydroph_interaction:V124; 

>  <cluster_rank>  (110) 
11

>  <N_interactions>  (110) 
4

>  <N_interactions_lost>  (110) 
1

>  <∆∆G>  (110) 
-9.205564

>  <comRMSD>  (110) 
0.725247

>  <N_rotatable_bonds>  (110) 
8

>  <N_unconstrained_atoms>  (110) 
1

>  <N_constrained_atoms>  (110) 
15

$$$$
Z276567178
     RDKit          3D

 22 22  0  0  0  0  0  0  0  0999 V2000
   11.9010   14.4090   22.3350 C   0  0  0  0  0  0  0  0  0  0  0  0
   11.2280   13.5850   23.4290 C   0  0  0  0  0  0  0  0  0  0  0  0
   11.1890   13.9870   24.5870 O   0  0  0  0  0  0  0  0  0  0  0  0
   10.7060   12.4000   22.9560 N   0  0  0  0  0  0  0  0  0  0  0  0
    9.8030   11.4890   23.5620 C   0  0  0  0  0  0  0  0  0  0  0  0
    9.7970   10.1390   23.2210 C   0  0  0  0  0  0  0  0  0  0  0  0
    8.8000    9.2190   23.8860 C   0  0  0  0  0  0  0  0  0  0  0  0
    8.8560    7.7730   23.4280 C   0  0  0  0  0  0  0  0  0  0  0  0
    7.9180    9.7200   24.8350 C   0  0  0  0  0  0  0  0  0  0  0  0
    7.9470   11.0640   25.1520 C   0  0  0  0  0  0  0  0  0  0  0  0
    8.8610   11.9290   24.5290 C   0  0  0  0  0  0  0  0  0  0  0  0
    8.7550   13.5840   25.0170 Cl  0  0  0  0  0  0  0  0  0  0  0  0
   11.3500   15.3370   22.1520 H   0  0  0  0  0  0  0  0  0  0  0  0
   12.9250   14.6790   22.5970 H   0  0  0  0  0  0  0  0  0  0  0  0
   11.9420   13.8520   21.3920 H   0  0  0  0  0  0  0  0  0  0  0  0
   10.9880   12.1200   22.0080 H   0  0  0  0  0  0  0  0  0  0  0  0
   10.4830    9.7260   22.4850 H   0  0  0  0  0  0  0  0  0  0  0  0
    8.1430    7.6000   22.6190 H   0  0  0  0  0  0  0  0  0  0  0  0
    8.6180    7.0940   24.2490 H   0  0  0  0  0  0  0  0  0  0  0  0
    9.8550    7.5300   23.0720 H   0  0  0  0  0  0  0  0  0  0  0  0
    7.2000    9.0830   25.3350 H   0  0  0  0  0  0  0  0  0  0  0  0
    7.2510   11.4490   25.8880 H   0  0  0  0  0  0  0  0  0  0  0  0
  1  2  1  0
  2  3  2  0
  2  4  1  0
  4  5  1  0
  5  6  2  0
  6  7  1  0
  7  8  1  0
  7  9  2  0
  9 10  1  0
 10 11  2  0
 11 12  1  0
 11  5  1  0
  1 13  1  0
  1 14  1  0
  1 15  1  0
  4 16  1  0
  6 17  1  0
  8 18  1  0
  8 19  1  0
  8 20  1  0
  9 21  1  0
 10 22  1  0
A    1
 C1 
A    2
 C2 
A    3
 O1 
A    4
 N1 
A    5
 C3 
A    6
 C4 
A    7
 C5 
A    8
 C6 
A    9
 C7 
A   10
 C8 
A   11
 C9 
A   12
CL1 
A   13
 H1 
A   14
 H2 
A   15
 H3 
A   16
 H4 
A   17
 H5 
A   18
 H6 
A   19
 H7 
A   20
 H8 
A   21
 H9 
A   22
 H10
M  END
>  <ref_pdb>  (111) 
x0554_0A

>  <ref_mols>  (111) 
x0554_0A,x0310_0A

>  <original SMILES>  (111) 
CC(=O)Nc1cc(C)ccc1Cl

>  <rationale>  (111) 
info cluster #8 (rank 12); hbond:S125; hydroph_interaction:Y89+D109+V124; 

>  <cluster_rank>  (111) 
12

>  <N_interactions>  (111) 
4

>  <N_interactions_lost>  (111) 
2

>  <∆∆G>  (111) 
-8.112541

>  <comRMSD>  (111) 
0.630855

>  <N_rotatable_bonds>  (111) 
3

>  <N_unconstrained_atoms>  (111) 
1

>  <N_constrained_atoms>  (111) 
13

$$$$
Z68591156
     RDKit          3D

 25 26  0  0  0  0  0  0  0  0999 V2000
   12.2580   15.6220   21.5000 C   0  0  0  0  0  0  0  0  0  0  0  0
   11.1500   14.7070   22.0220 C   0  0  0  0  0  0  0  0  0  0  0  0
   11.3700   13.5440   22.9710 C   0  0  0  0  0  0  0  0  0  0  0  0
   12.4740   12.9600   23.6460 C   0  0  0  0  0  0  0  0  0  0  0  0
   12.4620   11.6230   23.9680 N   0  0  0  0  0  0  0  0  0  0  0  0
   13.4480   13.5980   23.9970 O   0  0  0  0  0  0  0  0  0  0  0  0
    9.9180   13.0630   23.0500 C   0  0  0  0  0  0  0  0  0  0  0  0
    9.4230   11.9690   23.7450 C   0  0  0  0  0  0  0  0  0  0  0  0
    9.9480   10.7010   23.4830 C   0  0  0  0  0  0  0  0  0  0  0  0
    9.4520    9.5940   24.1410 C   0  0  0  0  0  0  0  0  0  0  0  0
    8.4270    9.7710   25.0670 C   0  0  0  0  0  0  0  0  0  0  0  0
    7.8980   11.0180   25.3390 C   0  0  0  0  0  0  0  0  0  0  0  0
    8.3960   12.1260   24.6770 C   0  0  0  0  0  0  0  0  0  0  0  0
    9.1680   13.8810   22.3080 N   0  0  0  0  0  0  0  0  0  0  0  0
    9.9690   14.8500   21.7060 O   0  0  0  0  0  0  0  0  0  0  0  0
   12.3870   15.5040   20.4180 H   0  0  0  0  0  0  0  0  0  0  0  0
   11.9830   16.6610   21.6820 H   0  0  0  0  0  0  0  0  0  0  0  0
   13.2260   15.4370   21.9660 H   0  0  0  0  0  0  0  0  0  0  0  0
   13.2860   11.2780   24.4390 H   0  0  0  0  0  0  0  0  0  0  0  0
   11.8360   10.9570   23.5370 H   0  0  0  0  0  0  0  0  0  0  0  0
   10.7480   10.5720   22.7530 H   0  0  0  0  0  0  0  0  0  0  0  0
    9.8550    8.6050   23.9400 H   0  0  0  0  0  0  0  0  0  0  0  0
    8.0310    8.9160   25.5900 H   0  0  0  0  0  0  0  0  0  0  0  0
    7.0970   11.1240   26.0670 H   0  0  0  0  0  0  0  0  0  0  0  0
    7.9760   13.1080   24.8890 H   0  0  0  0  0  0  0  0  0  0  0  0
  1  2  1  0
  2  3  2  0
  3  4  1  0
  4  5  1  0
  4  6  2  0
  3  7  1  0
  7  8  1  0
  8  9  2  0
  9 10  1  0
 10 11  2  0
 11 12  1  0
 12 13  2  0
  7 14  2  0
 14 15  1  0
 15  2  1  0
 13  8  1  0
  1 16  1  0
  1 17  1  0
  1 18  1  0
  5 19  1  0
  5 20  1  0
  9 21  1  0
 10 22  1  0
 11 23  1  0
 12 24  1  0
 13 25  1  0
A    1
 C1 
A    2
 C2 
A    3
 C3 
A    4
 C4 
A    5
 N1 
A    6
 O1 
A    7
 C5 
A    8
 C6 
A    9
 C7 
A   10
 C8 
A   11
 C9 
A   12
 C10
A   13
 C11
A   14
 N2 
A   15
 O2 
A   16
 H1 
A   17
 H2 
A   18
 H3 
A   19
 H4 
A   20
 H5 
A   21
 H6 
A   22
 H7 
A   23
 H8 
A   24
 H9 
A   25
 H10
M  END
>  <ref_pdb>  (112) 
x0554_0A

>  <ref_mols>  (112) 
x0566_0A

>  <original SMILES>  (112) 
Cc1onc(-c2ccccc2)c1C(N)=O

>  <rationale>  (112) 
info cluster #5 (rank 12); hbond:S125; hydroph_interaction:Y89+Y90; 

>  <cluster_rank>  (112) 
12

>  <N_interactions>  (112) 
3

>  <N_interactions_lost>  (112) 
0

>  <∆∆G>  (112) 
-5.890646

>  <comRMSD>  (112) 
0.973404

>  <N_rotatable_bonds>  (112) 
3

>  <N_unconstrained_atoms>  (112) 
2

>  <N_constrained_atoms>  (112) 
15

$$$$
Z4285305685
     RDKit          3D

 36 36  0  0  0  0  0  0  0  0999 V2000
    9.4760   14.7770   17.3040 C   0  0  0  0  0  0  0  0  0  0  0  0
   10.2010   15.6240   18.3610 C   0  0  0  0  0  0  0  0  0  0  0  0
   11.3750   16.1640   17.6040 C   0  0  0  0  0  0  0  0  0  0  0  0
   10.6890   14.9250   19.6630 C   0  0  0  0  0  0  0  0  0  0  0  0
    9.9630   14.3070   20.4630 O   0  0  0  0  0  0  0  0  0  0  0  0
    9.4150   15.0140   21.6020 C   0  0  0  0  0  0  0  0  0  0  0  0
    9.6270   14.3920   23.0260 C   0  0  0  0  0  0  0  0  0  0  0  0
   10.6980   14.6110   23.5800 O   0  0  0  0  0  0  0  0  0  0  0  0
    8.5350   13.6400   23.6170 N   0  0  0  0  0  0  0  0  0  0  0  0
    8.5440   12.2600   24.0090 C   0  0  0  0  0  0  0  0  0  0  0  0
    9.4170   11.3360   23.5400 C   0  0  0  0  0  0  0  0  0  0  0  0
    9.2080   10.1160   24.0480 N   0  0  0  0  0  0  0  0  0  0  0  0
    9.8280    8.9100   23.8470 C   0  0  0  0  0  0  0  0  0  0  0  0
    8.2030   10.0610   24.9140 N   0  0  0  0  0  0  0  0  0  0  0  0
    7.7670   11.3630   24.9220 C   0  0  0  0  0  0  0  0  0  0  0  0
    6.5760   11.4510   25.9090 C   0  0  0  0  0  0  0  0  0  0  0  0
    6.1770   10.2220   26.3850 N   0  0  0  0  0  0  0  0  0  0  0  0
    6.0150   12.4810   26.2680 O   0  0  0  0  0  0  0  0  0  0  0  0
    8.4110   14.6820   17.5110 H   0  0  0  0  0  0  0  0  0  0  0  0
    9.8990   13.7730   17.2380 H   0  0  0  0  0  0  0  0  0  0  0  0
    9.5640   15.2410   16.3160 H   0  0  0  0  0  0  0  0  0  0  0  0
    9.5740   16.4740   18.6500 H   0  0  0  0  0  0  0  0  0  0  0  0
   12.3210   15.7940   18.0120 H   0  0  0  0  0  0  0  0  0  0  0  0
   11.3660   17.2490   17.6380 H   0  0  0  0  0  0  0  0  0  0  0  0
   11.3260   15.8630   16.5540 H   0  0  0  0  0  0  0  0  0  0  0  0
   11.2170   15.6960   20.2310 H   0  0  0  0  0  0  0  0  0  0  0  0
   11.4630   14.2190   19.3530 H   0  0  0  0  0  0  0  0  0  0  0  0
    9.7890   16.0460   21.6010 H   0  0  0  0  0  0  0  0  0  0  0  0
    8.3340   15.0570   21.4520 H   0  0  0  0  0  0  0  0  0  0  0  0
    7.6690   14.1520   23.7980 H   0  0  0  0  0  0  0  0  0  0  0  0
   10.2110   11.5450   22.8190 H   0  0  0  0  0  0  0  0  0  0  0  0
   10.0410    8.7990   22.7740 H   0  0  0  0  0  0  0  0  0  0  0  0
    9.1660    8.1060   24.1770 H   0  0  0  0  0  0  0  0  0  0  0  0
   10.7530    8.8940   24.4280 H   0  0  0  0  0  0  0  0  0  0  0  0
    6.2130    9.4220   25.7320 H   0  0  0  0  0  0  0  0  0  0  0  0
    5.2600   10.1130   26.8260 H   0  0  0  0  0  0  0  0  0  0  0  0
  1  2  1  0
  2  3  1  0
  2  4  1  0
  4  5  1  0
  5  6  1  0
  6  7  1  0
  7  8  2  0
  7  9  1  0
  9 10  1  0
 10 11  2  0
 11 12  1  0
 12 13  1  0
 12 14  1  0
 14 15  2  0
 15 16  1  0
 16 17  1  0
 16 18  2  0
 15 10  1  0
  1 19  1  0
  1 20  1  0
  1 21  1  0
  2 22  1  0
  3 23  1  0
  3 24  1  0
  3 25  1  0
  4 26  1  0
  4 27  1  0
  6 28  1  0
  6 29  1  0
  9 30  1  0
 11 31  1  0
 13 32  1  0
 13 33  1  0
 13 34  1  0
 17 35  1  0
 17 36  1  0
A    1
 C1 
A    2
 C2 
A    3
 C3 
A    4
 C4 
A    5
 O1 
A    6
 C5 
A    7
 C6 
A    8
 O2 
A    9
 N1 
A   10
 C7 
A   11
 C8 
A   12
 N2 
A   13
 C9 
A   14
 N3 
A   15
 C10
A   16
 C11
A   17
 N4 
A   18
 O3 
A   19
 H1 
A   20
 H2 
A   21
 H3 
A   22
 H4 
A   23
 H5 
A   24
 H6 
A   25
 H7 
A   26
 H8 
A   27
 H9 
A   28
 H10
A   29
 H11
A   30
 H12
A   31
 H13
A   32
 H14
A   33
 H15
A   34
 H16
A   35
 H17
A   36
 H18
M  END
>  <ref_pdb>  (113) 
x0554_0A

>  <ref_mols>  (113) 
x0556_0A

>  <original SMILES>  (113) 
CC(C)COCC(=O)Nc1cn(C)nc1C(N)=O

>  <rationale>  (113) 
info cluster #2 (rank 12); hbond:S105+G127; hydroph_interaction:Y90+D39+T126; 

>  <cluster_rank>  (113) 
12

>  <N_interactions>  (113) 
5

>  <N_interactions_lost>  (113) 
1

>  <∆∆G>  (113) 
-8.995397

>  <comRMSD>  (113) 
0.803079

>  <N_rotatable_bonds>  (113) 
9

>  <N_unconstrained_atoms>  (113) 
5

>  <N_constrained_atoms>  (113) 
14

$$$$
PV_006969111141
     RDKit          3D

 28 28  0  0  0  0  0  0  0  0999 V2000
   12.0220   14.8330   21.9140 C   0  0  0  0  0  0  0  0  0  0  0  0
   10.9750   13.8700   22.1790 N   0  0  0  0  0  0  0  0  0  0  0  0
   10.3790   13.8210   23.4350 C   0  0  0  0  0  0  0  0  0  0  0  0
   10.3600   14.7580   24.2200 O   0  0  0  0  0  0  0  0  0  0  0  0
    9.7570   12.5250   23.7900 C   0  0  0  0  0  0  0  0  0  0  0  0
    8.6230   12.3480   24.6210 C   0  0  0  0  0  0  0  0  0  0  0  0
    8.1350   11.0470   24.8740 C   0  0  0  0  0  0  0  0  0  0  0  0
    6.9320   10.8090   25.7580 C   0  0  0  0  0  0  0  0  0  0  0  0
    8.8110    9.9860   24.2710 C   0  0  0  0  0  0  0  0  0  0  0  0
    8.4470    8.6030   24.4300 C   0  0  0  0  0  0  0  0  0  0  0  0
    9.8900   10.1710   23.4730 C   0  0  0  0  0  0  0  0  0  0  0  0
   10.5260    8.9870   22.8700 C   0  0  0  0  0  0  0  0  0  0  0  0
   10.3730   11.4300   23.2360 C   0  0  0  0  0  0  0  0  0  0  0  0
   12.8760   14.5890   22.5470 H   0  0  0  0  0  0  0  0  0  0  0  0
   11.6760   15.8500   22.1260 H   0  0  0  0  0  0  0  0  0  0  0  0
   12.3110   14.7570   20.8600 H   0  0  0  0  0  0  0  0  0  0  0  0
   11.0070   13.0090   21.6230 H   0  0  0  0  0  0  0  0  0  0  0  0
    8.1270   13.2070   25.0670 H   0  0  0  0  0  0  0  0  0  0  0  0
    7.2430   10.5970   26.7800 H   0  0  0  0  0  0  0  0  0  0  0  0
    6.3520    9.9450   25.4210 H   0  0  0  0  0  0  0  0  0  0  0  0
    6.2710   11.6770   25.7480 H   0  0  0  0  0  0  0  0  0  0  0  0
    8.0320    8.2060   23.5030 H   0  0  0  0  0  0  0  0  0  0  0  0
    7.7600    8.5320   25.2670 H   0  0  0  0  0  0  0  0  0  0  0  0
    9.3120    7.9930   24.6200 H   0  0  0  0  0  0  0  0  0  0  0  0
    9.7640    8.3250   22.4510 H   0  0  0  0  0  0  0  0  0  0  0  0
   11.1870    9.2640   22.0540 H   0  0  0  0  0  0  0  0  0  0  0  0
   11.0920    8.4570   23.6270 H   0  0  0  0  0  0  0  0  0  0  0  0
   11.2450   11.5710   22.6020 H   0  0  0  0  0  0  0  0  0  0  0  0
  1  2  1  0
  2  3  1  0
  3  4  2  0
  3  5  1  0
  5  6  2  0
  6  7  1  0
  7  8  1  0
  7  9  2  0
  9 10  1  0
  9 11  1  0
 11 12  1  0
 11 13  2  0
 13  5  1  0
  1 14  1  0
  1 15  1  0
  1 16  1  0
  2 17  1  0
  6 18  1  0
  8 19  1  0
  8 20  1  0
  8 21  1  0
 10 22  1  0
 10 23  1  0
 10 24  1  0
 12 25  1  0
 12 26  1  0
 12 27  1  0
 13 28  1  0
A    1
 C1 
A    2
 N1 
A    3
 C2 
A    4
 O1 
A    5
 C3 
A    6
 C4 
A    7
 C5 
A    8
 C6 
A    9
 C7 
A   10
 C8 
A   11
 C9 
A   12
 C10
A   13
 C11
A   14
 H1 
A   15
 H2 
A   16
 H3 
A   17
 H4 
A   18
 H5 
A   19
 H6 
A   20
 H7 
A   21
 H8 
A   22
 H9 
A   23
 H10
A   24
 H11
A   25
 H12
A   26
 H13
A   27
 H14
A   28
 H15
M  END
>  <ref_pdb>  (114) 
x0554_0A

>  <ref_mols>  (114) 
x0451_0A,x0310_0A

>  <original SMILES>  (114) 
CNC(=O)c1cc(C)c(C)c(C)c1

>  <rationale>  (114) 
info cluster #0 (rank 12); hbond:S125; hydroph_interaction:A110+V124; 

>  <cluster_rank>  (114) 
12

>  <N_interactions>  (114) 
3

>  <N_interactions_lost>  (114) 
1

>  <∆∆G>  (114) 
-10.011151

>  <comRMSD>  (114) 
0.804035

>  <N_rotatable_bonds>  (114) 
5

>  <N_unconstrained_atoms>  (114) 
1

>  <N_constrained_atoms>  (114) 
14

$$$$
PV_002314132056
     RDKit          3D

 19 19  0  0  0  0  0  0  0  0999 V2000
    9.9870    8.9650   23.8140 C   0  0  0  0  0  0  0  0  0  0  0  0
    9.1050   10.1130   24.2720 C   0  0  0  0  0  0  0  0  0  0  0  0
    9.4120   11.4620   23.6690 C   0  0  0  0  0  0  0  0  0  0  0  0
    8.6760   12.5270   24.0060 C   0  0  0  0  0  0  0  0  0  0  0  0
    8.9940   13.6850   23.4410 F   0  0  0  0  0  0  0  0  0  0  0  0
    7.6150   12.4320   24.9110 C   0  0  0  0  0  0  0  0  0  0  0  0
    7.2870   11.1920   25.5080 C   0  0  0  0  0  0  0  0  0  0  0  0
    6.2320   11.0710   26.4010 C   0  0  0  0  0  0  0  0  0  0  0  0
    5.7680    9.8460   26.7010 N   0  0  0  0  0  0  0  0  0  0  0  0
    5.7000   12.0530   26.9130 O   0  0  0  0  0  0  0  0  0  0  0  0
    8.0450   10.0430   25.1830 C   0  0  0  0  0  0  0  0  0  0  0  0
   10.4020    9.1630   22.8180 H   0  0  0  0  0  0  0  0  0  0  0  0
    9.4380    8.0220   23.7380 H   0  0  0  0  0  0  0  0  0  0  0  0
   10.8270    8.8360   24.5050 H   0  0  0  0  0  0  0  0  0  0  0  0
   10.2500   11.4960   22.9610 H   0  0  0  0  0  0  0  0  0  0  0  0
    7.0900   13.3720   25.0960 H   0  0  0  0  0  0  0  0  0  0  0  0
    5.9130    9.1610   25.9580 H   0  0  0  0  0  0  0  0  0  0  0  0
    5.0110    9.6860   27.3490 H   0  0  0  0  0  0  0  0  0  0  0  0
    7.8040    9.0920   25.6390 H   0  0  0  0  0  0  0  0  0  0  0  0
  1  2  1  0
  2  3  2  0
  3  4  1  0
  4  5  1  0
  4  6  2  0
  6  7  1  0
  7  8  1  0
  8  9  1  0
  8 10  2  0
  7 11  2  0
 11  2  1  0
  1 12  1  0
  1 13  1  0
  1 14  1  0
  3 15  1  0
  6 16  1  0
  9 17  1  0
  9 18  1  0
 11 19  1  0
A    1
 C1 
A    2
 C2 
A    3
 C3 
A    4
 C4 
A    5
 F1 
A    6
 C5 
A    7
 C6 
A    8
 C7 
A    9
 N1 
A   10
 O1 
A   11
 C8 
A   12
 H1 
A   13
 H2 
A   14
 H3 
A   15
 H4 
A   16
 H5 
A   17
 H6 
A   18
 H7 
A   19
 H8 
M  END
>  <ref_pdb>  (115) 
x0554_0A

>  <ref_mols>  (115) 
x0416_0A,x0556_0A

>  <original SMILES>  (115) 
Cc1cc(F)cc(C(N)=O)c1

>  <rationale>  (115) 
info cluster #6 (rank 12); hbond:S105; hydroph_interaction:D109; 

>  <cluster_rank>  (115) 
12

>  <N_interactions>  (115) 
2

>  <N_interactions_lost>  (115) 
1

>  <∆∆G>  (115) 
-6.441678

>  <comRMSD>  (115) 
0.920765

>  <N_rotatable_bonds>  (115) 
2

>  <N_unconstrained_atoms>  (115) 
1

>  <N_constrained_atoms>  (115) 
11

$$$$
Z2991797042
     RDKit          3D

 33 34  0  0  0  0  0  0  0  0999 V2000
   12.6370   15.5540   21.4500 C   0  0  0  0  0  0  0  0  0  0  0  0
   12.0830   14.4270   22.2650 C   0  0  0  0  0  0  0  0  0  0  0  0
   10.6980   14.1510   22.0000 C   0  0  0  0  0  0  0  0  0  0  0  0
    9.9900   13.9520   23.2920 N   0  0  0  0  0  0  0  0  0  0  0  0
    9.6560   12.5320   23.6240 C   0  0  0  0  0  0  0  0  0  0  0  0
   10.2460   11.3780   23.1230 N   0  0  0  0  0  0  0  0  0  0  0  0
    9.5690   10.3820   23.7210 N   0  0  0  0  0  0  0  0  0  0  0  0
    9.9320    9.1000   23.3870 C   0  0  0  0  0  0  0  0  0  0  0  0
    8.6020   10.7990   24.5870 C   0  0  0  0  0  0  0  0  0  0  0  0
    7.6900   10.1680   25.4170 C   0  0  0  0  0  0  0  0  0  0  0  0
    6.7050   10.9150   26.2780 C   0  0  0  0  0  0  0  0  0  0  0  0
    6.7660   12.3030   26.1990 C   0  0  0  0  0  0  0  0  0  0  0  0
    7.7180   12.9070   25.3450 C   0  0  0  0  0  0  0  0  0  0  0  0
    8.6230   12.1930   24.5490 C   0  0  0  0  0  0  0  0  0  0  0  0
   10.0150   15.0160   21.1090 C   0  0  0  0  0  0  0  0  0  0  0  0
    9.4060   16.1190   21.6450 N   0  0  0  0  0  0  0  0  0  0  0  0
    9.9960   14.8510   19.8990 O   0  0  0  0  0  0  0  0  0  0  0  0
   13.6570   15.7830   21.7380 H   0  0  0  0  0  0  0  0  0  0  0  0
   12.6360   15.2730   20.3940 H   0  0  0  0  0  0  0  0  0  0  0  0
   12.0100   16.4410   21.5670 H   0  0  0  0  0  0  0  0  0  0  0  0
   12.6370   13.5060   22.0670 H   0  0  0  0  0  0  0  0  0  0  0  0
   12.2200   14.6450   23.3280 H   0  0  0  0  0  0  0  0  0  0  0  0
   10.6850   13.2050   21.5070 H   0  0  0  0  0  0  0  0  0  0  0  0
    9.2570   14.6270   23.4600 H   0  0  0  0  0  0  0  0  0  0  0  0
   10.5400    8.6930   24.1970 H   0  0  0  0  0  0  0  0  0  0  0  0
    9.0410    8.4750   23.2750 H   0  0  0  0  0  0  0  0  0  0  0  0
   10.4920    9.1210   22.4430 H   0  0  0  0  0  0  0  0  0  0  0  0
    7.6830    9.0840   25.4560 H   0  0  0  0  0  0  0  0  0  0  0  0
    5.9850   10.4080   26.9290 H   0  0  0  0  0  0  0  0  0  0  0  0
    6.1190   12.9870   26.7620 H   0  0  0  0  0  0  0  0  0  0  0  0
    7.7380   14.0020   25.3110 H   0  0  0  0  0  0  0  0  0  0  0  0
    9.3230   16.9280   21.0240 H   0  0  0  0  0  0  0  0  0  0  0  0
    8.6470   15.9460   22.2880 H   0  0  0  0  0  0  0  0  0  0  0  0
  1  2  1  0
  2  3  1  0
  3  4  1  0
  4  5  1  0
  5  6  2  0
  6  7  1  0
  7  8  1  0
  7  9  1  0
  9 10  2  0
 10 11  1  0
 11 12  2  0
 12 13  1  0
 13 14  2  0
  3 15  1  0
 15 16  1  0
 15 17  2  0
 14  5  1  0
 14  9  1  0
  1 18  1  0
  1 19  1  0
  1 20  1  0
  2 21  1  0
  2 22  1  0
  3 23  1  0
  4 24  1  0
  8 25  1  0
  8 26  1  0
  8 27  1  0
 10 28  1  0
 11 29  1  0
 12 30  1  0
 13 31  1  0
 16 32  1  0
 16 33  1  0
A    1
 C1 
A    2
 C2 
A    3
 C3 
A    4
 N1 
A    5
 C4 
A    6
 N2 
A    7
 N3 
A    8
 C5 
A    9
 C6 
A   10
 C7 
A   11
 C8 
A   12
 C9 
A   13
 C10
A   14
 C11
A   15
 C12
A   16
 N4 
A   17
 O1 
A   18
 H1 
A   19
 H2 
A   20
 H3 
A   21
 H4 
A   22
 H5 
A   23
 H6 
A   24
 H7 
A   25
 H8 
A   26
 H9 
A   27
 H10
A   28
 H11
A   29
 H12
A   30
 H13
A   31
 H14
A   32
 H15
A   33
 H16
M  END
>  <ref_pdb>  (116) 
x0554_0A

>  <ref_mols>  (116) 
x0451_0A

>  <original SMILES>  (116) 
CCC(Nc1nn(C)c2ccccc12)C(N)=O

>  <rationale>  (116) 
info cluster #3 (rank 12); hbond:S87; hydroph_interaction:Y89+Y90; 

>  <cluster_rank>  (116) 
12

>  <N_interactions>  (116) 
4

>  <N_interactions_lost>  (116) 
1

>  <∆∆G>  (116) 
-7.834236

>  <comRMSD>  (116) 
0.68913

>  <N_rotatable_bonds>  (116) 
6

>  <N_unconstrained_atoms>  (116) 
1

>  <N_constrained_atoms>  (116) 
17

$$$$
Z4107039666
     RDKit          3D

 33 34  0  0  0  0  0  0  0  0999 V2000
    8.9930    7.9050   23.4050 C   0  0  0  0  0  0  0  0  0  0  0  0
    8.8390    9.2930   23.8820 C   0  0  0  0  0  0  0  0  0  0  0  0
    7.8940    9.6910   24.8300 C   0  0  0  0  0  0  0  0  0  0  0  0
    7.9500   11.0780   25.0810 C   0  0  0  0  0  0  0  0  0  0  0  0
    8.8860   12.0220   24.4480 C   0  0  0  0  0  0  0  0  0  0  0  0
    8.5810   13.2310   24.9730 N   0  0  0  0  0  0  0  0  0  0  0  0
    7.5140   13.1250   25.9030 C   0  0  0  0  0  0  0  0  0  0  0  0
    7.1100   11.7730   25.9830 N   0  0  0  0  0  0  0  0  0  0  0  0
    9.8130   11.5700   23.5270 C   0  0  0  0  0  0  0  0  0  0  0  0
   10.7250   12.4440   22.9030 N   0  0  0  0  0  0  0  0  0  0  0  0
   11.0310   13.7630   23.1680 C   0  0  0  0  0  0  0  0  0  0  0  0
   10.7770   14.3800   24.1960 O   0  0  0  0  0  0  0  0  0  0  0  0
   11.7970   14.4310   21.9880 C   0  0  0  0  0  0  0  0  0  0  0  0
   11.1340   15.4230   20.9980 C   0  0  1  0  0  0  0  0  0  0  0  0
   10.7640   14.7650   19.8190 C   0  0  0  0  0  0  0  0  0  0  0  0
    9.9870   16.1930   21.5460 N   0  0  0  0  0  0  0  0  0  0  0  0
    9.7510   10.1930   23.2740 C   0  0  0  0  0  0  0  0  0  0  0  0
   10.0310    7.7160   23.1250 H   0  0  0  0  0  0  0  0  0  0  0  0
    8.6880    7.1980   24.1840 H   0  0  0  0  0  0  0  0  0  0  0  0
    8.3680    7.7190   22.5290 H   0  0  0  0  0  0  0  0  0  0  0  0
    7.2020    9.0320   25.3110 H   0  0  0  0  0  0  0  0  0  0  0  0
    9.0500   14.1010   24.7390 H   0  0  0  0  0  0  0  0  0  0  0  0
    7.1940   14.0570   26.3830 H   0  0  0  0  0  0  0  0  0  0  0  0
   11.0710   12.1340   21.9840 H   0  0  0  0  0  0  0  0  0  0  0  0
   12.2450   13.6090   21.4170 H   0  0  0  0  0  0  0  0  0  0  0  0
   12.6430   14.9460   22.4500 H   0  0  0  0  0  0  0  0  0  0  0  0
   11.8960   16.1540   20.7270 H   0  0  0  0  0  0  0  0  0  0  0  0
   10.4600   13.7480   20.0600 H   0  0  0  0  0  0  0  0  0  0  0  0
   11.4990   14.6780   19.0170 H   0  0  0  0  0  0  0  0  0  0  0  0
    9.8940   15.2600   19.3750 H   0  0  0  0  0  0  0  0  0  0  0  0
    9.4450   16.5700   20.7580 H   0  0  0  0  0  0  0  0  0  0  0  0
   10.3570   17.0340   22.0170 H   0  0  0  0  0  0  0  0  0  0  0  0
   10.4420    9.7710   22.5560 H   0  0  0  0  0  0  0  0  0  0  0  0
  1  2  1  0
  2  3  2  0
  3  4  1  0
  4  5  2  0
  5  6  1  0
  6  7  1  0
  7  8  2  0
  5  9  1  0
  9 10  1  0
 10 11  1  0
 11 12  2  0
 11 13  1  0
 13 14  1  0
 14 15  1  0
 14 16  1  0
  9 17  2  0
 17  2  1  0
  8  4  1  0
  1 18  1  0
  1 19  1  0
  1 20  1  0
  3 21  1  0
  6 22  1  0
  7 23  1  0
 10 24  1  0
 13 25  1  0
 13 26  1  0
 14 27  1  6
 15 28  1  0
 15 29  1  0
 15 30  1  0
 16 31  1  0
 16 32  1  0
 17 33  1  0
A    1
 C1 
A    2
 C2 
A    3
 C3 
A    4
 C4 
A    5
 C5 
A    6
 N1 
A    7
 C6 
A    8
 N2 
A    9
 C7 
A   10
 N3 
A   11
 C8 
A   12
 O1 
A   13
 C9 
A   14
 C10
A   15
 C11
A   16
 N4 
A   17
 C12
A   18
 H1 
A   19
 H2 
A   20
 H3 
A   21
 H4 
A   22
 H5 
A   23
 H6 
A   24
 H7 
A   25
 H8 
A   26
 H9 
A   27
 H10
A   28
 H11
A   29
 H12
A   30
 H13
A   31
 H14
A   32
 H15
A   33
 H16
M  END
>  <ref_pdb>  (117) 
x0554_0A

>  <ref_mols>  (117) 
x0554_0A

>  <original SMILES>  (117) 
Cc1cc(NC(=O)C[C@@H](C)N)c2[nH]cnc2c1

>  <rationale>  (117) 
info cluster #7 (rank 12); hbond:S87+S125; hydroph_interaction:D109+V124; 

>  <cluster_rank>  (117) 
12

>  <N_interactions>  (117) 
5

>  <N_interactions_lost>  (117) 
3

>  <∆∆G>  (117) 
-9.546061

>  <comRMSD>  (117) 
0.752896

>  <N_rotatable_bonds>  (117) 
6

>  <N_unconstrained_atoms>  (117) 
1

>  <N_constrained_atoms>  (117) 
17

$$$$
Z2440841519
     RDKit          3D

 27 27  0  0  0  0  0  0  0  0999 V2000
    9.3280   16.4270   21.2190 C   0  0  0  0  0  0  0  0  0  0  0  0
   10.1970   15.2100   21.4850 C   0  0  2  0  0  0  0  0  0  0  0  0
   10.7680   14.7130   20.1380 C   0  0  0  0  0  0  0  0  0  0  0  0
   12.2190   14.8770   20.0380 N   0  0  0  0  0  0  0  0  0  0  0  0
    9.4700   14.1560   22.2420 N   0  0  0  0  0  0  0  0  0  0  0  0
   10.2130   13.1980   22.9260 C   0  0  0  0  0  0  0  0  0  0  0  0
   11.4290   13.2680   22.9660 O   0  0  0  0  0  0  0  0  0  0  0  0
    9.5410   12.0540   23.6450 C   0  0  0  0  0  0  0  0  0  0  0  0
   10.0170   10.7490   23.3950 C   0  0  0  0  0  0  0  0  0  0  0  0
    9.4500    9.6530   24.0410 C   0  0  0  0  0  0  0  0  0  0  0  0
    8.4080    9.8540   24.9410 C   0  0  0  0  0  0  0  0  0  0  0  0
    7.9210   11.1270   25.1920 C   0  0  0  0  0  0  0  0  0  0  0  0
    8.4820   12.2310   24.5480 C   0  0  0  0  0  0  0  0  0  0  0  0
    8.5920   16.5750   22.0130 H   0  0  0  0  0  0  0  0  0  0  0  0
    9.9420   17.3290   21.1410 H   0  0  0  0  0  0  0  0  0  0  0  0
    8.7950   16.3280   20.2750 H   0  0  0  0  0  0  0  0  0  0  0  0
   11.0480   15.5280   22.1030 H   0  0  0  0  0  0  0  0  0  0  0  0
   10.3030   15.2610   19.3120 H   0  0  0  0  0  0  0  0  0  0  0  0
   10.5240   13.6660   19.9990 H   0  0  0  0  0  0  0  0  0  0  0  0
   12.6480   14.4390   20.8530 H   0  0  0  0  0  0  0  0  0  0  0  0
   12.5320   14.3240   19.2380 H   0  0  0  0  0  0  0  0  0  0  0  0
    8.5360   14.3800   22.5490 H   0  0  0  0  0  0  0  0  0  0  0  0
   10.8370   10.5920   22.6950 H   0  0  0  0  0  0  0  0  0  0  0  0
    9.8200    8.6500   23.8460 H   0  0  0  0  0  0  0  0  0  0  0  0
    7.9720    9.0150   25.4540 H   0  0  0  0  0  0  0  0  0  0  0  0
    7.1030   11.2620   25.8950 H   0  0  0  0  0  0  0  0  0  0  0  0
    8.0820   13.2150   24.7680 H   0  0  0  0  0  0  0  0  0  0  0  0
  1  2  1  0
  2  3  1  0
  3  4  1  0
  2  5  1  0
  5  6  1  0
  6  7  2  0
  6  8  1  0
  8  9  2  0
  9 10  1  0
 10 11  2  0
 11 12  1  0
 12 13  2  0
 13  8  1  0
  1 14  1  0
  1 15  1  0
  1 16  1  0
  2 17  1  1
  3 18  1  0
  3 19  1  0
  4 20  1  0
  4 21  1  0
  5 22  1  0
  9 23  1  0
 10 24  1  0
 11 25  1  0
 12 26  1  0
 13 27  1  0
A    1
 C1 
A    2
 C2 
A    3
 C3 
A    4
 N1 
A    5
 N2 
A    6
 C4 
A    7
 O1 
A    8
 C5 
A    9
 C6 
A   10
 C7 
A   11
 C8 
A   12
 C9 
A   13
 C10
A   14
 H1 
A   15
 H2 
A   16
 H3 
A   17
 H4 
A   18
 H5 
A   19
 H6 
A   20
 H7 
A   21
 H8 
A   22
 H9 
A   23
 H10
A   24
 H11
A   25
 H12
A   26
 H13
A   27
 H14
M  END
>  <ref_pdb>  (118) 
x0554_0A

>  <ref_mols>  (118) 
x0566_0A

>  <original SMILES>  (118) 
C[C@H](CN)NC(=O)c1ccccc1

>  <rationale>  (118) 
info cluster #1 (rank 12); hbond:T126+D39; hydroph_interaction:V84; 

>  <cluster_rank>  (118) 
12

>  <N_interactions>  (118) 
3

>  <N_interactions_lost>  (118) 
0

>  <∆∆G>  (118) 
-5.116759

>  <comRMSD>  (118) 
0.612162

>  <N_rotatable_bonds>  (118) 
5

>  <N_unconstrained_atoms>  (118) 
1

>  <N_constrained_atoms>  (118) 
13

$$$$
PV_002879968147
     RDKit          3D

 30 30  0  0  0  0  0  0  0  0999 V2000
   11.1000   14.8440   19.7140 C   0  0  0  0  0  0  0  0  0  0  0  0
   10.1180   15.3440   20.7650 C   0  0  0  0  0  0  0  0  0  0  0  0
    9.8090   16.8470   20.6060 C   0  0  0  0  0  0  0  0  0  0  0  0
   10.6150   15.0370   22.1700 C   0  0  0  0  0  0  0  0  0  0  0  0
   10.8920   15.9110   23.0110 O   0  0  0  0  0  0  0  0  0  0  0  0
   10.7110   13.7080   22.3820 O   0  0  0  0  0  0  0  0  0  0  0  0
   10.6670   13.3660   23.7660 C   0  0  0  0  0  0  0  0  0  0  0  0
   10.7530   11.8540   23.8890 C   0  0  0  0  0  0  0  0  0  0  0  0
    9.4410   11.2190   24.3390 C   0  0  0  0  0  0  0  0  0  0  0  0
    8.4460   12.0080   25.0440 C   0  0  0  0  0  0  0  0  0  0  0  0
    7.3380   11.0450   25.3250 C   0  0  0  0  0  0  0  0  0  0  0  0
    7.7020    9.8140   24.8050 N   0  0  0  0  0  0  0  0  0  0  0  0
    8.9600    9.9000   24.2040 N   0  0  0  0  0  0  0  0  0  0  0  0
    9.6070    8.7760   23.5700 C   0  0  0  0  0  0  0  0  0  0  0  0
   11.1290   15.5100   18.8440 H   0  0  0  0  0  0  0  0  0  0  0  0
   12.1130   14.7720   20.1320 H   0  0  0  0  0  0  0  0  0  0  0  0
   10.8300   13.8430   19.3650 H   0  0  0  0  0  0  0  0  0  0  0  0
    9.1670   14.8140   20.6550 H   0  0  0  0  0  0  0  0  0  0  0  0
   10.5670   17.4750   21.0780 H   0  0  0  0  0  0  0  0  0  0  0  0
    8.8310   17.1130   21.0250 H   0  0  0  0  0  0  0  0  0  0  0  0
    9.7920   17.0660   19.5270 H   0  0  0  0  0  0  0  0  0  0  0  0
    9.7650   13.7940   24.2180 H   0  0  0  0  0  0  0  0  0  0  0  0
   11.5660   13.8020   24.2250 H   0  0  0  0  0  0  0  0  0  0  0  0
   11.1380   11.4100   22.9650 H   0  0  0  0  0  0  0  0  0  0  0  0
   11.4930   11.6250   24.6690 H   0  0  0  0  0  0  0  0  0  0  0  0
    8.5220   13.0700   25.3030 H   0  0  0  0  0  0  0  0  0  0  0  0
    6.3800   11.1830   25.8360 H   0  0  0  0  0  0  0  0  0  0  0  0
   10.5990    8.6400   23.9840 H   0  0  0  0  0  0  0  0  0  0  0  0
    9.0250    7.8670   23.7630 H   0  0  0  0  0  0  0  0  0  0  0  0
    9.6740    8.9450   22.4870 H   0  0  0  0  0  0  0  0  0  0  0  0
  1  2  1  0
  2  3  1  0
  2  4  1  0
  4  5  2  0
  4  6  1  0
  6  7  1  0
  7  8  1  0
  8  9  1  0
  9 10  2  0
 10 11  1  0
 11 12  2  0
 12 13  1  0
 13 14  1  0
 13  9  1  0
  1 15  1  0
  1 16  1  0
  1 17  1  0
  2 18  1  0
  3 19  1  0
  3 20  1  0
  3 21  1  0
  7 22  1  0
  7 23  1  0
  8 24  1  0
  8 25  1  0
 10 26  1  0
 11 27  1  0
 14 28  1  0
 14 29  1  0
 14 30  1  0
A    1
 C1 
A    2
 C2 
A    3
 C3 
A    4
 C4 
A    5
 O1 
A    6
 O2 
A    7
 C5 
A    8
 C6 
A    9
 C7 
A   10
 C8 
A   11
 C9 
A   12
 N1 
A   13
 N2 
A   14
 C10
A   15
 H1 
A   16
 H2 
A   17
 H3 
A   18
 H4 
A   19
 H5 
A   20
 H6 
A   21
 H7 
A   22
 H8 
A   23
 H9 
A   24
 H10
A   25
 H11
A   26
 H12
A   27
 H13
A   28
 H14
A   29
 H15
A   30
 H16
M  END
>  <ref_pdb>  (119) 
x0554_0A

>  <ref_mols>  (119) 
x0556_0A

>  <original SMILES>  (119) 
CC(C)C(=O)OCCc1ccnn1C

>  <rationale>  (119) 
info cluster #4 (rank 12); hbond:S87; hydroph_interaction:Y90+V84; saltbridge:H21; 

>  <cluster_rank>  (119) 
12

>  <N_interactions>  (119) 
4

>  <N_interactions_lost>  (119) 
1

>  <∆∆G>  (119) 
-7.994214

>  <comRMSD>  (119) 
0.693673

>  <N_rotatable_bonds>  (119) 
7

>  <N_unconstrained_atoms>  (119) 
2

>  <N_constrained_atoms>  (119) 
13

$$$$
Z1574513953
     RDKit          3D

 26 26  0  0  0  0  0  0  0  0999 V2000
   10.8500   14.7740   20.0660 C   0  0  0  0  0  0  0  0  0  0  0  0
   10.0200   15.2180   21.2730 C   0  0  0  0  0  0  0  0  0  0  0  0
    9.8630   16.4220   21.5050 O   0  0  0  0  0  0  0  0  0  0  0  0
    9.4730   14.1840   22.0400 N   0  0  0  0  0  0  0  0  0  0  0  0
   10.2650   13.5030   23.0920 C   0  0  0  0  0  0  0  0  0  0  0  0
   11.6860   13.1820   22.6150 C   0  0  0  0  0  0  0  0  0  0  0  0
   12.6870   13.8050   23.4220 O   0  0  0  0  0  0  0  0  0  0  0  0
    9.5940   12.2560   23.7210 C   0  0  0  0  0  0  0  0  0  0  0  0
   10.0930   10.9060   23.4050 C   0  0  0  0  0  0  0  0  0  0  0  0
    9.5660    9.6020   23.9560 C   0  0  0  0  0  0  0  0  0  0  0  0
    8.5150    9.7870   24.8400 C   0  0  0  0  0  0  0  0  0  0  0  0
    8.0640   11.1160   25.1030 C   0  0  0  0  0  0  0  0  0  0  0  0
    8.4890   12.3530   24.6360 C   0  0  0  0  0  0  0  0  0  0  0  0
   10.6420   15.4010   19.1950 H   0  0  0  0  0  0  0  0  0  0  0  0
   10.6520   13.7410   19.7990 H   0  0  0  0  0  0  0  0  0  0  0  0
   11.9200   14.8570   20.2950 H   0  0  0  0  0  0  0  0  0  0  0  0
    8.6360   13.7290   21.6880 H   0  0  0  0  0  0  0  0  0  0  0  0
   10.3940   14.2450   23.8900 H   0  0  0  0  0  0  0  0  0  0  0  0
   11.8100   13.5600   21.5970 H   0  0  0  0  0  0  0  0  0  0  0  0
   11.8750   12.1070   22.6590 H   0  0  0  0  0  0  0  0  0  0  0  0
   13.5540   13.6710   22.9630 H   0  0  0  0  0  0  0  0  0  0  0  0
   10.9300   10.9100   22.6990 H   0  0  0  0  0  0  0  0  0  0  0  0
   10.0320    8.6610   23.6410 H   0  0  0  0  0  0  0  0  0  0  0  0
    8.0450    8.9430   25.3270 H   0  0  0  0  0  0  0  0  0  0  0  0
    7.2280   11.2770   25.7980 H   0  0  0  0  0  0  0  0  0  0  0  0
    8.0230   13.2820   24.9510 H   0  0  0  0  0  0  0  0  0  0  0  0
  1  2  1  0
  2  3  2  0
  2  4  1  0
  4  5  1  0
  5  6  1  0
  6  7  1  0
  5  8  1  0
  8  9  2  0
  9 10  1  0
 10 11  2  0
 11 12  1  0
 12 13  2  0
 13  8  1  0
  1 14  1  0
  1 15  1  0
  1 16  1  0
  4 17  1  0
  5 18  1  0
  6 19  1  0
  6 20  1  0
  7 21  1  0
  9 22  1  0
 10 23  1  0
 11 24  1  0
 12 25  1  0
 13 26  1  0
A    1
 C1 
A    2
 C2 
A    3
 O1 
A    4
 N1 
A    5
 C3 
A    6
 C4 
A    7
 O2 
A    8
 C5 
A    9
 C6 
A   10
 C7 
A   11
 C8 
A   12
 C9 
A   13
 C10
A   14
 H1 
A   15
 H2 
A   16
 H3 
A   17
 H4 
A   18
 H5 
A   19
 H6 
A   20
 H7 
A   21
 H8 
A   22
 H9 
A   23
 H10
A   24
 H11
A   25
 H12
A   26
 H13
M  END
>  <ref_pdb>  (120) 
x0554_0A

>  <ref_mols>  (120) 
x0566_0A

>  <original SMILES>  (120) 
CC(=O)NC(CO)c1ccccc1

>  <rationale>  (120) 
info cluster #9 (rank 12); hbond:H21+S87+T126; 

>  <cluster_rank>  (120) 
12

>  <N_interactions>  (120) 
3

>  <N_interactions_lost>  (120) 
1

>  <∆∆G>  (120) 
-6.507474

>  <comRMSD>  (120) 
0.581208

>  <N_rotatable_bonds>  (120) 
5

>  <N_unconstrained_atoms>  (120) 
1

>  <N_constrained_atoms>  (120) 
12

$$$$
PV_007176233695
     RDKit          3D

 22 22  0  0  0  0  0  0  0  0999 V2000
   11.8800   14.3950   22.3090 C   0  0  0  0  0  0  0  0  0  0  0  0
   11.2630   13.5650   23.4230 C   0  0  0  0  0  0  0  0  0  0  0  0
   11.3080   13.9510   24.5840 O   0  0  0  0  0  0  0  0  0  0  0  0
   10.6910   12.4020   22.9520 N   0  0  0  0  0  0  0  0  0  0  0  0
    9.7730   11.5190   23.5880 C   0  0  0  0  0  0  0  0  0  0  0  0
    9.7820   10.1460   23.2230 C   0  0  0  0  0  0  0  0  0  0  0  0
    8.8040    9.1950   23.8790 C   0  0  0  0  0  0  0  0  0  0  0  0
    8.8760    7.7440   23.3940 C   0  0  0  0  0  0  0  0  0  0  0  0
    7.9220    9.6610   24.8410 C   0  0  0  0  0  0  0  0  0  0  0  0
    7.9470   11.1370   25.1960 C   0  0  0  0  0  0  0  0  0  0  0  0
    8.8470   11.9790   24.5620 C   0  0  0  0  0  0  0  0  0  0  0  0
    8.7090   13.9830   25.1590 I   0  0  0  0  0  0  0  0  0  0  0  0
   11.9250   13.8220   21.3770 H   0  0  0  0  0  0  0  0  0  0  0  0
   11.2900   15.2960   22.1280 H   0  0  0  0  0  0  0  0  0  0  0  0
   12.8990   14.6990   22.5600 H   0  0  0  0  0  0  0  0  0  0  0  0
   10.9690   12.1300   22.0090 H   0  0  0  0  0  0  0  0  0  0  0  0
   10.4690    9.7550   22.4750 H   0  0  0  0  0  0  0  0  0  0  0  0
    9.8920    7.5280   23.0600 H   0  0  0  0  0  0  0  0  0  0  0  0
    8.6220    7.0750   24.2190 H   0  0  0  0  0  0  0  0  0  0  0  0
    8.2190    7.5030   22.5540 H   0  0  0  0  0  0  0  0  0  0  0  0
    7.2120    9.0130   25.3490 H   0  0  0  0  0  0  0  0  0  0  0  0
    7.2540   11.5080   25.9420 H   0  0  0  0  0  0  0  0  0  0  0  0
  1  2  1  0
  2  3  2  0
  2  4  1  0
  4  5  1  0
  5  6  2  0
  6  7  1  0
  7  8  1  0
  7  9  2  0
  9 10  1  0
 10 11  2  0
 11 12  1  0
 11  5  1  0
  1 13  1  0
  1 14  1  0
  1 15  1  0
  4 16  1  0
  6 17  1  0
  8 18  1  0
  8 19  1  0
  8 20  1  0
  9 21  1  0
 10 22  1  0
A    1
 C1 
A    2
 C2 
A    3
 O1 
A    4
 N1 
A    5
 C3 
A    6
 C4 
A    7
 C5 
A    8
 C6 
A    9
 C7 
A   10
 C8 
A   11
 C9 
A   12
 I1 
A   13
 H1 
A   14
 H2 
A   15
 H3 
A   16
 H4 
A   17
 H5 
A   18
 H6 
A   19
 H7 
A   20
 H8 
A   21
 H9 
A   22
 H10
M  END
>  <ref_pdb>  (121) 
x0554_0A

>  <ref_mols>  (121) 
x0554_0A,x0310_0A

>  <original SMILES>  (121) 
CC(=O)Nc1cc(C)ccc1I

>  <rationale>  (121) 
info cluster #8 (rank 13); hbond:S125; hydroph_interaction:Y89+D109+V124; 

>  <cluster_rank>  (121) 
13

>  <N_interactions>  (121) 
4

>  <N_interactions_lost>  (121) 
2

>  <∆∆G>  (121) 
-8.10175

>  <comRMSD>  (121) 
0.680876

>  <N_rotatable_bonds>  (121) 
3

>  <N_unconstrained_atoms>  (121) 
1

>  <N_constrained_atoms>  (121) 
13

$$$$
Z3245077170
     RDKit          3D

 31 31  0  0  0  0  0  0  0  0999 V2000
   11.8340   14.2480   22.4930 C   0  0  0  0  0  0  0  0  0  0  0  0
   11.0730   13.4810   23.5700 C   0  0  0  0  0  0  0  0  0  0  0  0
   11.0250   13.8990   24.7190 O   0  0  0  0  0  0  0  0  0  0  0  0
   10.5000   12.3270   23.0780 N   0  0  0  0  0  0  0  0  0  0  0  0
    9.5600   11.4340   23.7030 C   0  0  0  0  0  0  0  0  0  0  0  0
    9.6020   10.0640   23.4080 C   0  0  0  0  0  0  0  0  0  0  0  0
   10.5790    9.4660   22.4920 C   0  0  0  0  0  0  0  0  0  0  0  0
    8.7140    9.1790   23.9620 C   0  0  0  0  0  0  0  0  0  0  0  0
    8.8000    7.7420   23.5720 C   0  0  0  0  0  0  0  0  0  0  0  0
    7.7660    9.6340   24.8560 C   0  0  0  0  0  0  0  0  0  0  0  0
    7.6630   10.9640   25.2000 C   0  0  0  0  0  0  0  0  0  0  0  0
    6.7150   11.3310   26.0680 C   0  0  0  0  0  0  0  0  0  0  0  0
    8.5640   11.8990   24.6160 C   0  0  0  0  0  0  0  0  0  0  0  0
    8.4610   13.2300   24.9360 C   0  0  0  0  0  0  0  0  0  0  0  0
   12.8640   14.4260   22.8180 H   0  0  0  0  0  0  0  0  0  0  0  0
   11.8720   13.6850   21.5550 H   0  0  0  0  0  0  0  0  0  0  0  0
   11.3780   15.2230   22.2910 H   0  0  0  0  0  0  0  0  0  0  0  0
   10.8080   12.0680   22.1340 H   0  0  0  0  0  0  0  0  0  0  0  0
   11.1710    8.6950   22.9730 H   0  0  0  0  0  0  0  0  0  0  0  0
   11.2700   10.2270   22.1980 H   0  0  0  0  0  0  0  0  0  0  0  0
   10.0830    9.0680   21.6090 H   0  0  0  0  0  0  0  0  0  0  0  0
    8.5690    7.0990   24.4240 H   0  0  0  0  0  0  0  0  0  0  0  0
    8.1030    7.5040   22.7590 H   0  0  0  0  0  0  0  0  0  0  0  0
    9.7930    7.5160   23.1830 H   0  0  0  0  0  0  0  0  0  0  0  0
    7.0720    8.9450   25.3090 H   0  0  0  0  0  0  0  0  0  0  0  0
    6.1480   12.1980   25.7080 H   0  0  0  0  0  0  0  0  0  0  0  0
    7.1580   11.6120   27.0260 H   0  0  0  0  0  0  0  0  0  0  0  0
    6.0000   10.5080   26.2110 H   0  0  0  0  0  0  0  0  0  0  0  0
    8.7400   13.3790   25.9800 H   0  0  0  0  0  0  0  0  0  0  0  0
    7.3920   13.4630   24.8960 H   0  0  0  0  0  0  0  0  0  0  0  0
    8.9610   14.0530   24.4410 H   0  0  0  0  0  0  0  0  0  0  0  0
  1  2  1  0
  2  3  2  0
  2  4  1  0
  4  5  1  0
  5  6  2  0
  6  7  1  0
  6  8  1  0
  8  9  1  0
  8 10  2  0
 10 11  1  0
 11 12  1  0
 11 13  2  0
 13 14  1  0
 13  5  1  0
  1 15  1  0
  1 16  1  0
  1 17  1  0
  4 18  1  0
  7 19  1  0
  7 20  1  0
  7 21  1  0
  9 22  1  0
  9 23  1  0
  9 24  1  0
 10 25  1  0
 12 26  1  0
 12 27  1  0
 12 28  1  0
 14 29  1  0
 14 30  1  0
 14 31  1  0
A    1
 C1 
A    2
 C2 
A    3
 O1 
A    4
 N1 
A    5
 C3 
A    6
 C4 
A    7
 C5 
A    8
 C6 
A    9
 C7 
A   10
 C8 
A   11
 C9 
A   12
 C10
A   13
 C11
A   14
 C12
A   15
 H1 
A   16
 H2 
A   17
 H3 
A   18
 H4 
A   19
 H5 
A   20
 H6 
A   21
 H7 
A   22
 H8 
A   23
 H9 
A   24
 H10
A   25
 H11
A   26
 H12
A   27
 H13
A   28
 H14
A   29
 H15
A   30
 H16
A   31
 H17
M  END
>  <ref_pdb>  (122) 
x0554_0A

>  <ref_mols>  (122) 
x0554_0A,x0310_0A

>  <original SMILES>  (122) 
CC(=O)Nc1c(C)c(C)cc(C)c1C

>  <rationale>  (122) 
info cluster #5 (rank 13); hbond:S125; hydroph_interaction:Y89+A110+D109; 

>  <cluster_rank>  (122) 
13

>  <N_interactions>  (122) 
4

>  <N_interactions_lost>  (122) 
1

>  <∆∆G>  (122) 
-10.932728

>  <comRMSD>  (122) 
0.546014

>  <N_rotatable_bonds>  (122) 
6

>  <N_unconstrained_atoms>  (122) 
1

>  <N_constrained_atoms>  (122) 
13

$$$$
Z2066182998
     RDKit          3D

 34 35  0  0  0  0  0  0  0  0999 V2000
   12.0330   15.0210   20.6720 C   0  0  0  0  0  0  0  0  0  0  0  0
   11.0250   15.3630   21.7070 C   0  0  0  0  0  0  0  0  0  0  0  0
    9.5890   15.0070   21.7290 C   0  0  0  0  0  0  0  0  0  0  0  0
    9.2600   14.0700   22.7070 C   0  0  0  0  0  0  0  0  0  0  0  0
   10.1860   13.0610   22.9980 C   0  0  0  0  0  0  0  0  0  0  0  0
    9.6550   11.9240   23.6440 C   0  0  0  0  0  0  0  0  0  0  0  0
   10.1640   10.6430   23.4000 C   0  0  0  0  0  0  0  0  0  0  0  0
    9.6160    9.5350   24.0350 C   0  0  0  0  0  0  0  0  0  0  0  0
    8.5560    9.6960   24.9280 C   0  0  0  0  0  0  0  0  0  0  0  0
    8.0350   10.9630   25.1830 C   0  0  0  0  0  0  0  0  0  0  0  0
    8.5810   12.0780   24.5430 C   0  0  0  0  0  0  0  0  0  0  0  0
   11.3990   13.6570   23.5780 N   0  0  0  0  0  0  0  0  0  0  0  0
   12.5370   12.9790   24.0150 C   0  0  0  0  0  0  0  0  0  0  0  0
   12.5320   11.6330   24.1030 N   0  0  0  0  0  0  0  0  0  0  0  0
   13.5650   13.5450   24.3340 O   0  0  0  0  0  0  0  0  0  0  0  0
   11.6690   15.0010   23.0620 C   0  0  0  0  0  0  0  0  0  0  0  0
   12.1940   13.9400   20.6630 H   0  0  0  0  0  0  0  0  0  0  0  0
   11.6890   15.3380   19.6850 H   0  0  0  0  0  0  0  0  0  0  0  0
   12.9820   15.5170   20.8980 H   0  0  0  0  0  0  0  0  0  0  0  0
   11.0330   16.4620   21.6860 H   0  0  0  0  0  0  0  0  0  0  0  0
    8.9600   15.8970   21.8530 H   0  0  0  0  0  0  0  0  0  0  0  0
    9.3290   14.5930   20.7510 H   0  0  0  0  0  0  0  0  0  0  0  0
    9.0720   14.6120   23.6430 H   0  0  0  0  0  0  0  0  0  0  0  0
    8.2970   13.6140   22.4510 H   0  0  0  0  0  0  0  0  0  0  0  0
   10.6190   12.6880   22.0870 H   0  0  0  0  0  0  0  0  0  0  0  0
   10.9880   10.5000   22.7070 H   0  0  0  0  0  0  0  0  0  0  0  0
   10.0170    8.5430   23.8370 H   0  0  0  0  0  0  0  0  0  0  0  0
    8.1380    8.8370   25.4240 H   0  0  0  0  0  0  0  0  0  0  0  0
    7.2050   11.0790   25.8780 H   0  0  0  0  0  0  0  0  0  0  0  0
    8.1660   13.0620   24.7500 H   0  0  0  0  0  0  0  0  0  0  0  0
   13.3790   11.2820   24.5240 H   0  0  0  0  0  0  0  0  0  0  0  0
   11.6900   11.2170   24.4740 H   0  0  0  0  0  0  0  0  0  0  0  0
   11.3510   15.7110   23.8350 H   0  0  0  0  0  0  0  0  0  0  0  0
   12.7490   15.1210   22.9500 H   0  0  0  0  0  0  0  0  0  0  0  0
  1  2  1  0
  2  3  1  0
  3  4  1  0
  4  5  1  0
  5  6  1  0
  6  7  2  0
  7  8  1  0
  8  9  2  0
  9 10  1  0
 10 11  2  0
  5 12  1  0
 12 13  1  0
 13 14  1  0
 13 15  2  0
 12 16  1  0
 16  2  1  0
 11  6  1  0
  1 17  1  0
  1 18  1  0
  1 19  1  0
  2 20  1  0
  3 21  1  0
  3 22  1  0
  4 23  1  0
  4 24  1  0
  5 25  1  0
  7 26  1  0
  8 27  1  0
  9 28  1  0
 10 29  1  0
 11 30  1  0
 14 31  1  0
 14 32  1  0
 16 33  1  0
 16 34  1  0
A    1
 C1 
A    2
 C2 
A    3
 C3 
A    4
 C4 
A    5
 C5 
A    6
 C6 
A    7
 C7 
A    8
 C8 
A    9
 C9 
A   10
 C10
A   11
 C11
A   12
 N1 
A   13
 C12
A   14
 N2 
A   15
 O1 
A   16
 C13
A   17
 H1 
A   18
 H2 
A   19
 H3 
A   20
 H4 
A   21
 H5 
A   22
 H6 
A   23
 H7 
A   24
 H8 
A   25
 H9 
A   26
 H10
A   27
 H11
A   28
 H12
A   29
 H13
A   30
 H14
A   31
 H15
A   32
 H16
A   33
 H17
A   34
 H18
M  END
>  <ref_pdb>  (123) 
x0554_0A

>  <ref_mols>  (123) 
x0566_0A

>  <original SMILES>  (123) 
CC1CCC(c2ccccc2)N(C(N)=O)C1

>  <rationale>  (123) 
info cluster #2 (rank 13); hbond:S125; hydroph_interaction:Y90; 

>  <cluster_rank>  (123) 
13

>  <N_interactions>  (123) 
2

>  <N_interactions_lost>  (123) 
0

>  <∆∆G>  (123) 
-5.637617

>  <comRMSD>  (123) 
0.658066

>  <N_rotatable_bonds>  (123) 
2

>  <N_unconstrained_atoms>  (123) 
3

>  <N_constrained_atoms>  (123) 
15

$$$$
PV_002318985932
     RDKit          3D

 25 25  0  0  0  0  0  0  0  0999 V2000
   11.8480   14.1940   22.3500 C   0  0  0  0  0  0  0  0  0  0  0  0
   11.1300   13.3770   23.4190 C   0  0  0  0  0  0  0  0  0  0  0  0
   11.0580   14.0430   24.6790 O   0  0  0  0  0  0  0  0  0  0  0  0
   10.6490   12.1330   23.0470 N   0  0  0  0  0  0  0  0  0  0  0  0
    9.6470   11.3640   23.7210 C   0  0  0  0  0  0  0  0  0  0  0  0
    9.7470    9.9300   23.6660 C   0  0  0  0  0  0  0  0  0  0  0  0
   10.7060    9.2740   23.0300 C   0  0  0  0  0  0  0  0  0  0  0  0
    8.8010    9.1360   24.3130 C   0  0  0  0  0  0  0  0  0  0  0  0
    7.6700    9.7940   25.0770 C   0  0  0  0  0  0  0  0  0  0  0  0
    7.6100   11.1650   25.0980 C   0  0  0  0  0  0  0  0  0  0  0  0
    8.5710   11.9470   24.4350 C   0  0  0  0  0  0  0  0  0  0  0  0
    8.2900   13.4320   24.5920 C   0  0  0  0  0  0  0  0  0  0  0  0
   12.8150   14.5330   22.7300 H   0  0  0  0  0  0  0  0  0  0  0  0
   12.0220   13.5790   21.4680 H   0  0  0  0  0  0  0  0  0  0  0  0
   11.2440   15.0570   22.0590 H   0  0  0  0  0  0  0  0  0  0  0  0
   10.8610   11.8740   22.0800 H   0  0  0  0  0  0  0  0  0  0  0  0
   10.9370    9.5580   22.0110 H   0  0  0  0  0  0  0  0  0  0  0  0
   10.4690    8.2070   23.0440 H   0  0  0  0  0  0  0  0  0  0  0  0
   11.6240    9.3820   23.5990 H   0  0  0  0  0  0  0  0  0  0  0  0
    8.8570    8.0520   24.2860 H   0  0  0  0  0  0  0  0  0  0  0  0
    6.9200    9.2050   25.5970 H   0  0  0  0  0  0  0  0  0  0  0  0
    6.7970   11.6470   25.6400 H   0  0  0  0  0  0  0  0  0  0  0  0
    8.6470   13.7890   25.5670 H   0  0  0  0  0  0  0  0  0  0  0  0
    7.2070   13.6120   24.5620 H   0  0  0  0  0  0  0  0  0  0  0  0
    8.8060   14.0330   23.8370 H   0  0  0  0  0  0  0  0  0  0  0  0
  1  2  1  0
  2  3  2  0
  2  4  1  0
  4  5  1  0
  5  6  2  0
  6  7  1  0
  6  8  1  0
  8  9  2  0
  9 10  1  0
 10 11  2  0
 11 12  1  0
 11  5  1  0
  1 13  1  0
  1 14  1  0
  1 15  1  0
  4 16  1  0
  7 17  1  0
  7 18  1  0
  7 19  1  0
  8 20  1  0
  9 21  1  0
 10 22  1  0
 12 23  1  0
 12 24  1  0
 12 25  1  0
A    1
 C1 
A    2
 C2 
A    3
 O1 
A    4
 N1 
A    5
 C3 
A    6
 C4 
A    7
 C5 
A    8
 C6 
A    9
 C7 
A   10
 C8 
A   11
 C9 
A   12
 C10
A   13
 H1 
A   14
 H2 
A   15
 H3 
A   16
 H4 
A   17
 H5 
A   18
 H6 
A   19
 H7 
A   20
 H8 
A   21
 H9 
A   22
 H10
A   23
 H11
A   24
 H12
A   25
 H13
M  END
>  <ref_pdb>  (124) 
x0554_0A

>  <ref_mols>  (124) 
x0554_0A,x0310_0A

>  <original SMILES>  (124) 
CC(=O)Nc1c(C)cccc1C

>  <rationale>  (124) 
info cluster #0 (rank 13); hbond:S125; hydroph_interaction:A110+V124; 

>  <cluster_rank>  (124) 
13

>  <N_interactions>  (124) 
3

>  <N_interactions_lost>  (124) 
1

>  <∆∆G>  (124) 
-9.085435

>  <comRMSD>  (124) 
0.642955

>  <N_rotatable_bonds>  (124) 
4

>  <N_unconstrained_atoms>  (124) 
1

>  <N_constrained_atoms>  (124) 
13

$$$$
PV_002999033004
     RDKit          3D

 23 24  0  0  0  0  0  0  0  0999 V2000
   10.4120   13.8910   22.7010 C   0  0  0  0  0  0  0  0  0  0  0  0
   10.8600   12.5700   23.2500 C   0  0  0  0  0  0  0  0  0  0  0  0
   12.3540   12.3990   23.3300 C   0  0  0  0  0  0  0  0  0  0  0  0
    9.9570   11.5060   23.7070 C   0  0  0  0  0  0  0  0  0  0  0  0
   10.1350   10.1630   23.3550 C   0  0  0  0  0  0  0  0  0  0  0  0
    9.2690    9.1970   23.8300 C   0  0  0  0  0  0  0  0  0  0  0  0
    8.1220    9.5980   24.7360 C   0  0  0  0  0  0  0  0  0  0  0  0
    7.9680   10.9390   25.0510 C   0  0  0  0  0  0  0  0  0  0  0  0
    8.8740   11.8620   24.5410 C   0  0  0  0  0  0  0  0  0  0  0  0
    8.4790   13.0940   25.0160 N   0  0  0  0  0  0  0  0  0  0  0  0
    7.3610   12.9690   25.8020 C   0  0  0  0  0  0  0  0  0  0  0  0
    7.0240   11.6390   25.8400 C   0  0  0  0  0  0  0  0  0  0  0  0
   11.1370   14.6470   22.3850 H   0  0  0  0  0  0  0  0  0  0  0  0
    9.3440   14.1140   22.6110 H   0  0  0  0  0  0  0  0  0  0  0  0
   12.8040   12.2740   22.3410 H   0  0  0  0  0  0  0  0  0  0  0  0
   12.8050   13.2810   23.8050 H   0  0  0  0  0  0  0  0  0  0  0  0
   12.5740   11.5210   23.9480 H   0  0  0  0  0  0  0  0  0  0  0  0
   10.9620    9.8830   22.7090 H   0  0  0  0  0  0  0  0  0  0  0  0
    9.4270    8.1570   23.5490 H   0  0  0  0  0  0  0  0  0  0  0  0
    7.4400    8.8790   25.1330 H   0  0  0  0  0  0  0  0  0  0  0  0
    8.9570   13.9640   24.8060 H   0  0  0  0  0  0  0  0  0  0  0  0
    6.9060   13.8360   26.2630 H   0  0  0  0  0  0  0  0  0  0  0  0
    6.1870   11.2100   26.3760 H   0  0  0  0  0  0  0  0  0  0  0  0
  1  2  2  0
  2  3  1  0
  2  4  1  0
  4  5  2  0
  5  6  1  0
  6  7  2  0
  7  8  1  0
  8  9  2  0
  9 10  1  0
 10 11  1  0
 11 12  2  0
  9  4  1  0
 12  8  1  0
  1 13  1  0
  1 14  1  0
  3 15  1  0
  3 16  1  0
  3 17  1  0
  5 18  1  0
  6 19  1  0
  7 20  1  0
 10 21  1  0
 11 22  1  0
 12 23  1  0
A    1
 C1 
A    2
 C2 
A    3
 C3 
A    4
 C4 
A    5
 C5 
A    6
 C6 
A    7
 C7 
A    8
 C8 
A    9
 C9 
A   10
 N1 
A   11
 C10
A   12
 C11
A   13
 H1 
A   14
 H2 
A   15
 H3 
A   16
 H4 
A   17
 H5 
A   18
 H6 
A   19
 H7 
A   20
 H8 
A   21
 H9 
A   22
 H10
A   23
 H11
M  END
>  <ref_pdb>  (125) 
x0554_0A

>  <ref_mols>  (125) 
x0554_0A,x0554_0A

>  <original SMILES>  (125) 
C=C(C)c1cccc2cc[nH]c12

>  <rationale>  (125) 
info cluster #6 (rank 13); hydroph_interaction:A110; 

>  <cluster_rank>  (125) 
13

>  <N_interactions>  (125) 
1

>  <N_interactions_lost>  (125) 
0

>  <∆∆G>  (125) 
-6.27583

>  <comRMSD>  (125) 
0.839907

>  <N_rotatable_bonds>  (125) 
2

>  <N_unconstrained_atoms>  (125) 
1

>  <N_constrained_atoms>  (125) 
13

$$$$
Z4221679624
     RDKit          3D

 43 44  0  0  0  0  0  0  0  0999 V2000
    9.8570    8.6070   23.0470 C   0  0  0  0  0  0  0  0  0  0  0  0
    9.2480    9.7010   23.8240 C   0  0  0  0  0  0  0  0  0  0  0  0
    8.0650    9.5070   24.3920 N   0  0  0  0  0  0  0  0  0  0  0  0
    7.7850   10.6510   25.0160 N   0  0  0  0  0  0  0  0  0  0  0  0
    6.5580   10.7820   25.7720 C   0  0  0  0  0  0  0  0  0  0  0  0
    8.7510   11.5940   24.8510 C   0  0  0  0  0  0  0  0  0  0  0  0
    8.6390   12.9500   25.4410 C   0  0  0  0  0  0  0  0  0  0  0  0
    9.7530   10.9950   24.0820 C   0  0  0  0  0  0  0  0  0  0  0  0
   11.0620   11.5640   23.6390 C   0  0  0  0  0  0  0  0  0  0  0  0
   12.2580   11.2180   24.5190 C   0  0  0  0  0  0  0  0  0  0  0  0
   13.2850   12.3190   24.2350 C   0  0  0  0  0  0  0  0  0  0  0  0
   12.5610   13.2080   23.2550 C   0  0  0  0  0  0  0  0  0  0  0  0
   11.1470   13.0350   23.5720 N   0  0  0  0  0  0  0  0  0  0  0  0
   10.3910   13.6500   22.4760 C   0  0  0  0  0  0  0  0  0  0  0  0
   10.6550   15.1460   22.4010 C   0  0  0  0  0  0  0  0  0  0  0  0
   10.7990   15.8600   23.3900 O   0  0  0  0  0  0  0  0  0  0  0  0
   10.7550   15.7570   20.9940 C   0  0  1  0  0  0  0  0  0  0  0  0
   10.8610   14.7110   19.8920 C   0  0  0  0  0  0  0  0  0  0  0  0
    9.5970   16.6350   20.7480 N   0  0  0  0  0  0  0  0  0  0  0  0
    9.1750    7.7480   22.9780 H   0  0  0  0  0  0  0  0  0  0  0  0
   10.0790    8.9390   22.0270 H   0  0  0  0  0  0  0  0  0  0  0  0
   10.7980    8.2980   23.4980 H   0  0  0  0  0  0  0  0  0  0  0  0
    6.1460   11.7830   25.6120 H   0  0  0  0  0  0  0  0  0  0  0  0
    6.7690   10.6390   26.8330 H   0  0  0  0  0  0  0  0  0  0  0  0
    5.8520   10.0130   25.4470 H   0  0  0  0  0  0  0  0  0  0  0  0
    9.3400   13.0850   26.2730 H   0  0  0  0  0  0  0  0  0  0  0  0
    8.8520   13.7080   24.6840 H   0  0  0  0  0  0  0  0  0  0  0  0
    7.6320   13.1260   25.8410 H   0  0  0  0  0  0  0  0  0  0  0  0
   11.2480   11.1630   22.6370 H   0  0  0  0  0  0  0  0  0  0  0  0
   12.0020   11.2430   25.5630 H   0  0  0  0  0  0  0  0  0  0  0  0
   12.6760   10.2350   24.3070 H   0  0  0  0  0  0  0  0  0  0  0  0
   13.5470   12.8480   25.1570 H   0  0  0  0  0  0  0  0  0  0  0  0
   14.2030   11.9130   23.8010 H   0  0  0  0  0  0  0  0  0  0  0  0
   12.7870   12.9470   22.2160 H   0  0  0  0  0  0  0  0  0  0  0  0
   12.8440   14.2540   23.4010 H   0  0  0  0  0  0  0  0  0  0  0  0
    9.3120   13.4790   22.5590 H   0  0  0  0  0  0  0  0  0  0  0  0
   10.7330   13.2870   21.5130 H   0  0  0  0  0  0  0  0  0  0  0  0
   11.6480   16.3780   20.9810 H   0  0  0  0  0  0  0  0  0  0  0  0
   11.9070   14.4790   19.6700 H   0  0  0  0  0  0  0  0  0  0  0  0
   10.3820   15.0490   18.9650 H   0  0  0  0  0  0  0  0  0  0  0  0
   10.3670   13.7830   20.1870 H   0  0  0  0  0  0  0  0  0  0  0  0
    9.5330   16.8210   19.7410 H   0  0  0  0  0  0  0  0  0  0  0  0
    9.8180   17.5530   21.1480 H   0  0  0  0  0  0  0  0  0  0  0  0
  1  2  1  0
  2  3  2  0
  3  4  1  0
  4  5  1  0
  4  6  1  0
  6  7  1  0
  6  8  2  0
  8  9  1  0
  9 10  1  0
 10 11  1  0
 11 12  1  0
 12 13  1  0
 13 14  1  0
 14 15  1  0
 15 16  2  0
 15 17  1  0
 17 18  1  0
 17 19  1  0
  8  2  1  0
 13  9  1  0
  1 20  1  0
  1 21  1  0
  1 22  1  0
  5 23  1  0
  5 24  1  0
  5 25  1  0
  7 26  1  0
  7 27  1  0
  7 28  1  0
  9 29  1  0
 10 30  1  0
 10 31  1  0
 11 32  1  0
 11 33  1  0
 12 34  1  0
 12 35  1  0
 14 36  1  0
 14 37  1  0
 17 38  1  1
 18 39  1  0
 18 40  1  0
 18 41  1  0
 19 42  1  0
 19 43  1  0
A    1
 C1 
A    2
 C2 
A    3
 N1 
A    4
 N2 
A    5
 C3 
A    6
 C4 
A    7
 C5 
A    8
 C6 
A    9
 C7 
A   10
 C8 
A   11
 C9 
A   12
 C10
A   13
 N3 
A   14
 C11
A   15
 C12
A   16
 O1 
A   17
 C13
A   18
 C14
A   19
 N4 
A   20
 H1 
A   21
 H2 
A   22
 H3 
A   23
 H4 
A   24
 H5 
A   25
 H6 
A   26
 H7 
A   27
 H8 
A   28
 H9 
A   29
 H10
A   30
 H11
A   31
 H12
A   32
 H13
A   33
 H14
A   34
 H15
A   35
 H16
A   36
 H17
A   37
 H18
A   38
 H19
A   39
 H20
A   40
 H21
A   41
 H22
A   42
 H23
A   43
 H24
M  END
>  <ref_pdb>  (126) 
x0554_0A

>  <ref_mols>  (126) 
x0310_0A

>  <original SMILES>  (126) 
Cc1nn(C)c(C)c1C1CCCN1CC(=O)[C@@H](C)N

>  <rationale>  (126) 
info cluster #7 (rank 13); hbond:S87; hydroph_interaction:Y89+A110+D109+V124; 

>  <cluster_rank>  (126) 
13

>  <N_interactions>  (126) 
6

>  <N_interactions_lost>  (126) 
2

>  <∆∆G>  (126) 
-9.226351

>  <comRMSD>  (126) 
0.897779

>  <N_rotatable_bonds>  (126) 
9

>  <N_unconstrained_atoms>  (126) 
0

>  <N_constrained_atoms>  (126) 
20

$$$$
Z4079941991
     RDKit          3D

 38 39  0  0  0  0  0  0  0  0999 V2000
   11.2110   14.7700   19.9020 C   0  0  0  0  0  0  0  0  0  0  0  0
   10.2600   15.3300   20.9520 C   0  0  2  0  0  0  0  0  0  0  0  0
   10.0840   16.6960   20.7460 N   0  0  0  0  0  0  0  0  0  0  0  0
   10.6990   14.8840   22.3230 C   0  0  0  0  0  0  0  0  0  0  0  0
   11.0060   15.6700   23.2050 O   0  0  0  0  0  0  0  0  0  0  0  0
   10.7020   13.4930   22.4740 N   0  0  0  0  0  0  0  0  0  0  0  0
   11.0240   12.8470   23.6490 C   0  0  0  0  0  0  0  0  0  0  0  0
   10.0620   11.7350   23.9870 C   0  0  0  0  0  0  0  0  0  0  0  0
   10.3820   10.4140   23.6450 C   0  0  0  0  0  0  0  0  0  0  0  0
    9.5200    9.3800   23.9700 C   0  0  0  0  0  0  0  0  0  0  0  0
    8.3240    9.5940   24.6330 C   0  0  0  0  0  0  0  0  0  0  0  0
    7.9980   10.9050   24.9650 C   0  0  0  0  0  0  0  0  0  0  0  0
    8.8490   11.9600   24.6490 C   0  0  0  0  0  0  0  0  0  0  0  0
   12.5070   12.4030   23.5470 C   0  0  0  0  0  0  0  0  0  0  0  0
   13.2770   13.0460   24.4960 C   0  0  0  0  0  0  0  0  0  0  0  0
   12.8940   12.8130   25.8140 C   0  0  0  0  0  0  0  0  0  0  0  0
   11.5480   13.2520   26.0400 O   0  0  0  0  0  0  0  0  0  0  0  0
   10.9580   13.8410   24.8670 C   0  0  0  0  0  0  0  0  0  0  0  0
   11.9680   14.1360   20.3720 H   0  0  0  0  0  0  0  0  0  0  0  0
   10.6750   14.1660   19.1620 H   0  0  0  0  0  0  0  0  0  0  0  0
   11.7270   15.5730   19.3660 H   0  0  0  0  0  0  0  0  0  0  0  0
    9.2850   14.8680   20.7840 H   0  0  0  0  0  0  0  0  0  0  0  0
    9.0870   16.8770   20.6160 H   0  0  0  0  0  0  0  0  0  0  0  0
   10.3550   17.2520   21.5680 H   0  0  0  0  0  0  0  0  0  0  0  0
   10.8730   12.9280   21.6350 H   0  0  0  0  0  0  0  0  0  0  0  0
   11.3070   10.1920   23.1280 H   0  0  0  0  0  0  0  0  0  0  0  0
    9.8430    8.3790   23.6730 H   0  0  0  0  0  0  0  0  0  0  0  0
    7.6750    8.7860   24.8860 H   0  0  0  0  0  0  0  0  0  0  0  0
    7.0640   11.1080   25.4840 H   0  0  0  0  0  0  0  0  0  0  0  0
    8.5520   12.9670   24.9330 H   0  0  0  0  0  0  0  0  0  0  0  0
   12.6090   11.3250   23.6630 H   0  0  0  0  0  0  0  0  0  0  0  0
   12.9090   12.6410   22.5550 H   0  0  0  0  0  0  0  0  0  0  0  0
   14.3210   12.7350   24.3770 H   0  0  0  0  0  0  0  0  0  0  0  0
   13.2640   14.1180   24.2940 H   0  0  0  0  0  0  0  0  0  0  0  0
   13.5510   13.3640   26.4890 H   0  0  0  0  0  0  0  0  0  0  0  0
   12.9130   11.7950   26.1780 H   0  0  0  0  0  0  0  0  0  0  0  0
   11.5220   14.7430   24.6630 H   0  0  0  0  0  0  0  0  0  0  0  0
    9.9340   14.1570   25.1040 H   0  0  0  0  0  0  0  0  0  0  0  0
  1  2  1  0
  2  3  1  0
  2  4  1  0
  4  5  2  0
  4  6  1  0
  6  7  1  0
  7  8  1  0
  8  9  2  0
  9 10  1  0
 10 11  2  0
 11 12  1  0
 12 13  2  0
  7 14  1  0
 14 15  1  0
 15 16  1  0
 16 17  1  0
 17 18  1  0
 18  7  1  0
 13  8  1  0
  1 19  1  0
  1 20  1  0
  1 21  1  0
  2 22  1  6
  3 23  1  0
  3 24  1  0
  6 25  1  0
  9 26  1  0
 10 27  1  0
 11 28  1  0
 12 29  1  0
 13 30  1  0
 14 31  1  0
 14 32  1  0
 15 33  1  0
 15 34  1  0
 16 35  1  0
 16 36  1  0
 18 37  1  0
 18 38  1  0
A    1
 C1 
A    2
 C2 
A    3
 N1 
A    4
 C3 
A    5
 O1 
A    6
 N2 
A    7
 C4 
A    8
 C5 
A    9
 C6 
A   10
 C7 
A   11
 C8 
A   12
 C9 
A   13
 C10
A   14
 C11
A   15
 C12
A   16
 C13
A   17
 O2 
A   18
 C14
A   19
 H1 
A   20
 H2 
A   21
 H3 
A   22
 H4 
A   23
 H5 
A   24
 H6 
A   25
 H7 
A   26
 H8 
A   27
 H9 
A   28
 H10
A   29
 H11
A   30
 H12
A   31
 H13
A   32
 H14
A   33
 H15
A   34
 H16
A   35
 H17
A   36
 H18
A   37
 H19
A   38
 H20
M  END
>  <ref_pdb>  (127) 
x0554_0A

>  <ref_mols>  (127) 
x0554_0A

>  <original SMILES>  (127) 
C[C@H](N)C(=O)NC1(c2ccccc2)CCCOC1

>  <rationale>  (127) 
info cluster #3 (rank 13); hbond:S87+S125; hydroph_interaction:Y89+A110; 

>  <cluster_rank>  (127) 
13

>  <N_interactions>  (127) 
5

>  <N_interactions_lost>  (127) 
3

>  <∆∆G>  (127) 
-9.540728

>  <comRMSD>  (127) 
0.917793

>  <N_rotatable_bonds>  (127) 
5

>  <N_unconstrained_atoms>  (127) 
3

>  <N_constrained_atoms>  (127) 
17

$$$$
Z4275810263
     RDKit          3D

 34 36  0  0  0  0  0  0  0  0999 V2000
   12.6620   13.4500   23.7830 C   0  0  0  0  0  0  0  0  0  0  0  0
   11.6200   13.0240   22.7700 C   0  0  0  0  0  0  0  0  0  0  0  0
   10.2140   13.3200   23.2680 C   0  0  0  0  0  0  0  0  0  0  0  0
    9.5190   14.0820   22.2400 N   0  0  0  0  0  0  0  0  0  0  0  0
   10.3890   15.2010   21.7580 C   0  0  0  0  0  0  0  0  0  0  0  0
   10.6070   15.1560   20.3750 C   0  0  0  0  0  0  0  0  0  0  0  0
    9.6280   16.2460   20.7230 C   0  0  0  0  0  0  0  0  0  0  0  0
    9.5720   12.0520   23.8300 C   0  0  0  0  0  0  0  0  0  0  0  0
   10.0720   10.7830   23.4820 C   0  0  0  0  0  0  0  0  0  0  0  0
    9.5670    9.6160   23.9830 C   0  0  0  0  0  0  0  0  0  0  0  0
    8.5250    9.6260   24.8720 C   0  0  0  0  0  0  0  0  0  0  0  0
    7.9640   10.8420   25.2480 C   0  0  0  0  0  0  0  0  0  0  0  0
    8.4840   12.0390   24.7300 C   0  0  0  0  0  0  0  0  0  0  0  0
    7.7490   13.0710   25.2760 N   0  0  0  0  0  0  0  0  0  0  0  0
    6.7840   12.5820   26.1140 C   0  0  0  0  0  0  0  0  0  0  0  0
    6.8920   11.1870   26.1180 C   0  0  0  0  0  0  0  0  0  0  0  0
   13.2750   14.2450   23.3630 H   0  0  0  0  0  0  0  0  0  0  0  0
   12.1970   13.8200   24.7060 H   0  0  0  0  0  0  0  0  0  0  0  0
   13.3190   12.6120   24.0410 H   0  0  0  0  0  0  0  0  0  0  0  0
   11.7390   11.9480   22.6090 H   0  0  0  0  0  0  0  0  0  0  0  0
   11.8110   13.5300   21.8110 H   0  0  0  0  0  0  0  0  0  0  0  0
   10.3220   13.9400   24.1650 H   0  0  0  0  0  0  0  0  0  0  0  0
    8.6370   14.4260   22.6230 H   0  0  0  0  0  0  0  0  0  0  0  0
   11.2540   15.4880   22.3690 H   0  0  0  0  0  0  0  0  0  0  0  0
   11.5800   15.5080   20.0180 H   0  0  0  0  0  0  0  0  0  0  0  0
   10.2110   14.3060   19.8270 H   0  0  0  0  0  0  0  0  0  0  0  0
   10.0210   17.2350   20.4600 H   0  0  0  0  0  0  0  0  0  0  0  0
    8.6330   16.0560   20.3290 H   0  0  0  0  0  0  0  0  0  0  0  0
   10.9130   10.7320   22.7800 H   0  0  0  0  0  0  0  0  0  0  0  0
   10.0120    8.6660   23.6680 H   0  0  0  0  0  0  0  0  0  0  0  0
    8.1530    8.7080   25.2720 H   0  0  0  0  0  0  0  0  0  0  0  0
    7.9320   14.0430   25.0570 H   0  0  0  0  0  0  0  0  0  0  0  0
    6.1040   13.2570   26.6380 H   0  0  0  0  0  0  0  0  0  0  0  0
    6.2720   10.5010   26.6830 H   0  0  0  0  0  0  0  0  0  0  0  0
  1  2  1  0
  2  3  1  0
  3  4  1  0
  4  5  1  0
  5  6  1  0
  6  7  1  0
  3  8  1  0
  8  9  2  0
  9 10  1  0
 10 11  2  0
 11 12  1  0
 12 13  2  0
 13 14  1  0
 14 15  1  0
 15 16  2  0
  7  5  1  0
 13  8  1  0
 16 12  1  0
  1 17  1  0
  1 18  1  0
  1 19  1  0
  2 20  1  0
  2 21  1  0
  3 22  1  0
  4 23  1  0
  5 24  1  0
  6 25  1  0
  6 26  1  0
  7 27  1  0
  7 28  1  0
  9 29  1  0
 10 30  1  0
 11 31  1  0
 14 32  1  0
 15 33  1  0
 16 34  1  0
A    1
 C1 
A    2
 C2 
A    3
 C3 
A    4
 N1 
A    5
 C4 
A    6
 C5 
A    7
 C6 
A    8
 C7 
A    9
 C8 
A   10
 C9 
A   11
 C10
A   12
 C11
A   13
 C12
A   14
 N2 
A   15
 C13
A   16
 C14
A   17
 H1 
A   18
 H2 
A   19
 H3 
A   20
 H4 
A   21
 H5 
A   22
 H6 
A   23
 H7 
A   24
 H8 
A   25
 H9 
A   26
 H10
A   27
 H11
A   28
 H12
A   29
 H13
A   30
 H14
A   31
 H15
A   32
 H16
A   33
 H17
A   34
 H18
M  END
>  <ref_pdb>  (128) 
x0554_0A

>  <ref_mols>  (128) 
x0566_0A

>  <original SMILES>  (128) 
CCC(NC1CC1)c1cccc2cc[nH]c12

>  <rationale>  (128) 
info cluster #1 (rank 13); hbond:T126; hydroph_interaction:Y89+V84; 

>  <cluster_rank>  (128) 
13

>  <N_interactions>  (128) 
3

>  <N_interactions_lost>  (128) 
0

>  <∆∆G>  (128) 
-5.917635

>  <comRMSD>  (128) 
0.876584

>  <N_rotatable_bonds>  (128) 
5

>  <N_unconstrained_atoms>  (128) 
1

>  <N_constrained_atoms>  (128) 
17

$$$$
PV_006027861202
     RDKit          3D

 42 43  0  0  0  0  0  0  0  0999 V2000
   11.1970   14.7000   20.0010 C   0  0  0  0  0  0  0  0  0  0  0  0
   10.2150   15.1500   20.9500 O   0  0  0  0  0  0  0  0  0  0  0  0
   10.6370   15.1230   22.2520 C   0  0  0  0  0  0  0  0  0  0  0  0
   10.9490   16.0840   22.9180 O   0  0  0  0  0  0  0  0  0  0  0  0
   10.6670   13.7150   22.7920 C   0  0  0  0  0  0  0  0  0  0  0  0
    9.4440   13.7520   23.5040 C   0  0  0  0  0  0  0  0  0  0  0  0
    8.8770   12.5100   24.1520 C   0  0  0  0  0  0  0  0  0  0  0  0
    9.5440   11.2500   23.6350 C   0  0  0  0  0  0  0  0  0  0  0  0
    9.1910    9.9990   24.0910 C   0  0  0  0  0  0  0  0  0  0  0  0
    9.8110    8.8520   23.6030 C   0  0  0  0  0  0  0  0  0  0  0  0
    8.1950    9.9940   25.0530 C   0  0  0  0  0  0  0  0  0  0  0  0
    7.5470   11.1830   25.5510 N   0  0  0  0  0  0  0  0  0  0  0  0
    7.8690   12.4090   25.1190 C   0  0  0  0  0  0  0  0  0  0  0  0
    7.2270   13.5570   25.6270 N   0  0  0  0  0  0  0  0  0  0  0  0
    5.7810   13.5550   25.9070 C   0  0  0  0  0  0  0  0  0  0  0  0
    5.3230   12.8850   27.1350 C   0  0  0  0  0  0  0  0  0  0  0  0
    6.0390   12.5830   28.2100 C   0  0  0  0  0  0  0  0  0  0  0  0
    5.3420   12.0010   29.2260 C   0  0  0  0  0  0  0  0  0  0  0  0
    3.9800   12.0620   28.8660 C   0  0  0  0  0  0  0  0  0  0  0  0
    3.9200   12.4220   27.4520 C   0  0  0  0  0  0  0  0  0  0  0  0
   11.7210   15.5680   19.5900 H   0  0  0  0  0  0  0  0  0  0  0  0
   10.7400   14.1550   19.1690 H   0  0  0  0  0  0  0  0  0  0  0  0
   11.9370   14.0450   20.4740 H   0  0  0  0  0  0  0  0  0  0  0  0
   10.9010   12.8900   22.1470 H   0  0  0  0  0  0  0  0  0  0  0  0
   11.5530   13.6650   23.4340 H   0  0  0  0  0  0  0  0  0  0  0  0
    9.5010   14.5160   24.2830 H   0  0  0  0  0  0  0  0  0  0  0  0
    8.6600   14.0860   22.8120 H   0  0  0  0  0  0  0  0  0  0  0  0
   10.3200   11.4160   22.8800 H   0  0  0  0  0  0  0  0  0  0  0  0
    9.1780    7.9980   23.8590 H   0  0  0  0  0  0  0  0  0  0  0  0
   10.7790    8.6140   24.0310 H   0  0  0  0  0  0  0  0  0  0  0  0
    9.9510    8.8090   22.5250 H   0  0  0  0  0  0  0  0  0  0  0  0
    7.8410    9.0810   25.4990 H   0  0  0  0  0  0  0  0  0  0  0  0
    7.8970   14.1650   26.0680 H   0  0  0  0  0  0  0  0  0  0  0  0
    5.3420   13.2390   24.9800 H   0  0  0  0  0  0  0  0  0  0  0  0
    5.4340   14.5930   25.9720 H   0  0  0  0  0  0  0  0  0  0  0  0
    7.1050   12.7970   28.3010 H   0  0  0  0  0  0  0  0  0  0  0  0
    5.4780   12.4540   30.2030 H   0  0  0  0  0  0  0  0  0  0  0  0
    5.6540   10.9540   29.3080 H   0  0  0  0  0  0  0  0  0  0  0  0
    3.4200   12.7650   29.4940 H   0  0  0  0  0  0  0  0  0  0  0  0
    3.5160   11.0800   29.0160 H   0  0  0  0  0  0  0  0  0  0  0  0
    3.6690   11.5530   26.8430 H   0  0  0  0  0  0  0  0  0  0  0  0
    3.1750   13.2040   27.2790 H   0  0  0  0  0  0  0  0  0  0  0  0
  1  2  1  0
  2  3  1  0
  3  4  2  0
  3  5  1  0
  5  6  1  0
  6  7  1  0
  7  8  2  0
  8  9  1  0
  9 10  1  0
  9 11  2  0
 11 12  1  0
 12 13  2  0
 13 14  1  0
 14 15  1  0
 15 16  1  0
 16 17  2  0
 17 18  1  0
 18 19  1  0
 19 20  1  0
 13  7  1  0
 20 16  1  0
  1 21  1  0
  1 22  1  0
  1 23  1  0
  5 24  1  0
  5 25  1  0
  6 26  1  0
  6 27  1  0
  8 28  1  0
 10 29  1  0
 10 30  1  0
 10 31  1  0
 11 32  1  0
 14 33  1  0
 15 34  1  0
 15 35  1  0
 17 36  1  0
 18 37  1  0
 18 38  1  0
 19 39  1  0
 19 40  1  0
 20 41  1  0
 20 42  1  0
A    1
 C1 
A    2
 O1 
A    3
 C2 
A    4
 O2 
A    5
 C3 
A    6
 C4 
A    7
 C5 
A    8
 C6 
A    9
 C7 
A   10
 C8 
A   11
 C9 
A   12
 N1 
A   13
 C10
A   14
 N2 
A   15
 C11
A   16
 C12
A   17
 C13
A   18
 C14
A   19
 C15
A   20
 C16
A   21
 H1 
A   22
 H2 
A   23
 H3 
A   24
 H4 
A   25
 H5 
A   26
 H6 
A   27
 H7 
A   28
 H8 
A   29
 H9 
A   30
 H10
A   31
 H11
A   32
 H12
A   33
 H13
A   34
 H14
A   35
 H15
A   36
 H16
A   37
 H17
A   38
 H18
A   39
 H19
A   40
 H20
A   41
 H21
A   42
 H22
M  END
>  <ref_pdb>  (129) 
x0554_0A

>  <ref_mols>  (129) 
x0416_0A

>  <original SMILES>  (129) 
COC(=O)CCc1cc(C)cnc1NCC1=CCCC1

>  <rationale>  (129) 
info cluster #4 (rank 13); hbond:S87; hydroph_interaction:P107+D109+V124; saltbridge:H21; 

>  <cluster_rank>  (129) 
13

>  <N_interactions>  (129) 
5

>  <N_interactions_lost>  (129) 
1

>  <∆∆G>  (129) 
-7.769244

>  <comRMSD>  (129) 
0.560021

>  <N_rotatable_bonds>  (129) 
8

>  <N_unconstrained_atoms>  (129) 
2

>  <N_constrained_atoms>  (129) 
19

$$$$
Z2434477552
     RDKit          3D

 33 33  0  0  0  0  0  0  0  0999 V2000
   13.3860   12.8930   24.1570 C   0  0  0  0  0  0  0  0  0  0  0  0
   11.9290   13.1470   24.4410 C   0  0  0  0  0  0  0  0  0  0  0  0
   10.9700   12.6270   23.3380 C   0  0  0  0  0  0  0  0  0  0  0  0
   10.1130   13.6780   22.8040 N   0  0  0  0  0  0  0  0  0  0  0  0
   10.5190   14.9290   22.3940 C   0  0  0  0  0  0  0  0  0  0  0  0
   11.0620   15.7490   23.1280 O   0  0  0  0  0  0  0  0  0  0  0  0
   10.1780   15.2430   20.9180 C   0  0  0  0  0  0  0  0  0  0  0  0
   11.2260   14.7370   20.0260 C   0  0  0  0  0  0  0  0  0  0  0  0
   10.0000   16.5790   20.7850 N   0  0  0  0  0  0  0  0  0  0  0  0
   10.0330   11.5770   23.8950 C   0  0  0  0  0  0  0  0  0  0  0  0
   10.2120   10.1930   23.7360 C   0  0  0  0  0  0  0  0  0  0  0  0
    9.2990    9.3140   24.3080 C   0  0  0  0  0  0  0  0  0  0  0  0
    8.1790    9.8480   25.0620 C   0  0  0  0  0  0  0  0  0  0  0  0
    8.0130   11.2010   25.2000 C   0  0  0  0  0  0  0  0  0  0  0  0
    8.9280   12.0590   24.6240 C   0  0  0  0  0  0  0  0  0  0  0  0
   13.5080   12.1000   23.4160 H   0  0  0  0  0  0  0  0  0  0  0  0
   13.8520   13.7980   23.7850 H   0  0  0  0  0  0  0  0  0  0  0  0
   13.9120   12.5960   25.0710 H   0  0  0  0  0  0  0  0  0  0  0  0
   11.7840   14.2240   24.5940 H   0  0  0  0  0  0  0  0  0  0  0  0
   11.6800   12.6550   25.3870 H   0  0  0  0  0  0  0  0  0  0  0  0
   11.5640   12.1760   22.5380 H   0  0  0  0  0  0  0  0  0  0  0  0
    9.1310   13.4470   22.6960 H   0  0  0  0  0  0  0  0  0  0  0  0
    9.2290   14.7620   20.6680 H   0  0  0  0  0  0  0  0  0  0  0  0
   10.8430   13.9600   19.3620 H   0  0  0  0  0  0  0  0  0  0  0  0
   12.0540   14.3060   20.6020 H   0  0  0  0  0  0  0  0  0  0  0  0
   11.6480   15.5350   19.4070 H   0  0  0  0  0  0  0  0  0  0  0  0
    9.0440   16.8000   21.0910 H   0  0  0  0  0  0  0  0  0  0  0  0
   10.0460   16.8490   19.8030 H   0  0  0  0  0  0  0  0  0  0  0  0
   11.0540    9.7870   23.1750 H   0  0  0  0  0  0  0  0  0  0  0  0
    9.4220    8.2430   24.2000 H   0  0  0  0  0  0  0  0  0  0  0  0
    7.4630    9.1940   25.5280 H   0  0  0  0  0  0  0  0  0  0  0  0
    7.1650   11.5980   25.7650 H   0  0  0  0  0  0  0  0  0  0  0  0
    8.7860   13.1260   24.7470 H   0  0  0  0  0  0  0  0  0  0  0  0
  1  2  1  0
  2  3  1  0
  3  4  1  0
  4  5  1  0
  5  6  2  0
  5  7  1  0
  7  8  1  0
  7  9  1  0
  3 10  1  0
 10 11  2  0
 11 12  1  0
 12 13  2  0
 13 14  1  0
 14 15  2  0
 15 10  1  0
  1 16  1  0
  1 17  1  0
  1 18  1  0
  2 19  1  0
  2 20  1  0
  3 21  1  0
  4 22  1  0
  7 23  1  0
  8 24  1  0
  8 25  1  0
  8 26  1  0
  9 27  1  0
  9 28  1  0
 11 29  1  0
 12 30  1  0
 13 31  1  0
 14 32  1  0
 15 33  1  0
A    1
 C1 
A    2
 C2 
A    3
 C3 
A    4
 N1 
A    5
 C4 
A    6
 O1 
A    7
 C5 
A    8
 C6 
A    9
 N2 
A   10
 C7 
A   11
 C8 
A   12
 C9 
A   13
 C10
A   14
 C11
A   15
 C12
A   16
 H1 
A   17
 H2 
A   18
 H3 
A   19
 H4 
A   20
 H5 
A   21
 H6 
A   22
 H7 
A   23
 H8 
A   24
 H9 
A   25
 H10
A   26
 H11
A   27
 H12
A   28
 H13
A   29
 H14
A   30
 H15
A   31
 H16
A   32
 H17
A   33
 H18
M  END
>  <ref_pdb>  (130) 
x0554_0A

>  <ref_mols>  (130) 
x0554_0A

>  <original SMILES>  (130) 
CCC(NC(=O)C(C)N)c1ccccc1

>  <rationale>  (130) 
info cluster #9 (rank 13); hbond:S87+T126; hydroph_interaction:Y89; 

>  <cluster_rank>  (130) 
13

>  <N_interactions>  (130) 
4

>  <N_interactions_lost>  (130) 
1

>  <∆∆G>  (130) 
-6.994946

>  <comRMSD>  (130) 
0.970959

>  <N_rotatable_bonds>  (130) 
7

>  <N_unconstrained_atoms>  (130) 
0

>  <N_constrained_atoms>  (130) 
17

$$$$
Z3524729102
     RDKit          3D

 27 28  0  0  0  0  0  0  0  0999 V2000
   12.0210   14.7460   21.7770 C   0  0  0  0  0  0  0  0  0  0  0  0
   11.0880   13.7150   22.1530 N   0  0  0  0  0  0  0  0  0  0  0  0
   10.5450   13.6830   23.4220 C   0  0  0  0  0  0  0  0  0  0  0  0
   10.5880   14.6410   24.1870 O   0  0  0  0  0  0  0  0  0  0  0  0
    9.8990   12.4230   23.8330 C   0  0  0  0  0  0  0  0  0  0  0  0
   10.3850   11.2120   23.3500 C   0  0  0  0  0  0  0  0  0  0  0  0
    9.8030    9.9990   23.7220 C   0  0  0  0  0  0  0  0  0  0  0  0
   10.3610    8.7510   23.1750 C   0  0  0  0  0  0  0  0  0  0  0  0
    8.7190    9.9660   24.5950 C   0  0  0  0  0  0  0  0  0  0  0  0
    8.2340   11.1600   25.0720 C   0  0  0  0  0  0  0  0  0  0  0  0
    8.8150   12.3620   24.6950 C   0  0  0  0  0  0  0  0  0  0  0  0
    8.2000   13.4480   25.2710 O   0  0  0  0  0  0  0  0  0  0  0  0
    6.9670   12.9120   25.8010 C   0  0  0  0  0  0  0  0  0  0  0  0
    7.1110   11.4070   25.9950 C   0  0  0  0  0  0  0  0  0  0  0  0
   11.5290   15.7160   21.8630 H   0  0  0  0  0  0  0  0  0  0  0  0
   12.3250   14.5770   20.7410 H   0  0  0  0  0  0  0  0  0  0  0  0
   12.9020   14.7180   22.4200 H   0  0  0  0  0  0  0  0  0  0  0  0
   11.0740   12.8300   21.6320 H   0  0  0  0  0  0  0  0  0  0  0  0
   11.2380   11.2100   22.6680 H   0  0  0  0  0  0  0  0  0  0  0  0
    9.5750    8.0230   22.9400 H   0  0  0  0  0  0  0  0  0  0  0  0
   10.9250    8.9900   22.2700 H   0  0  0  0  0  0  0  0  0  0  0  0
   11.0280    8.3020   23.9040 H   0  0  0  0  0  0  0  0  0  0  0  0
    8.2800    9.0310   24.8870 H   0  0  0  0  0  0  0  0  0  0  0  0
    6.7730   13.4140   26.7560 H   0  0  0  0  0  0  0  0  0  0  0  0
    6.1450   13.1560   25.1210 H   0  0  0  0  0  0  0  0  0  0  0  0
    6.2200   10.8690   25.6530 H   0  0  0  0  0  0  0  0  0  0  0  0
    7.3260   11.1520   27.0280 H   0  0  0  0  0  0  0  0  0  0  0  0
  1  2  1  0
  2  3  1  0
  3  4  2  0
  3  5  1  0
  5  6  2  0
  6  7  1  0
  7  8  1  0
  7  9  2  0
  9 10  1  0
 10 11  2  0
 11 12  1  0
 12 13  1  0
 13 14  1  0
 11  5  1  0
 14 10  1  0
  1 15  1  0
  1 16  1  0
  1 17  1  0
  2 18  1  0
  6 19  1  0
  8 20  1  0
  8 21  1  0
  8 22  1  0
  9 23  1  0
 13 24  1  0
 13 25  1  0
 14 26  1  0
 14 27  1  0
A    1
 C1 
A    2
 N1 
A    3
 C2 
A    4
 O1 
A    5
 C3 
A    6
 C4 
A    7
 C5 
A    8
 C6 
A    9
 C7 
A   10
 C8 
A   11
 C9 
A   12
 O2 
A   13
 C10
A   14
 C11
A   15
 H1 
A   16
 H2 
A   17
 H3 
A   18
 H4 
A   19
 H5 
A   20
 H6 
A   21
 H7 
A   22
 H8 
A   23
 H9 
A   24
 H10
A   25
 H11
A   26
 H12
A   27
 H13
M  END
>  <ref_pdb>  (131) 
x0554_0A

>  <ref_mols>  (131) 
x0451_0A,x0554_0A,x0310_0A

>  <original SMILES>  (131) 
CNC(=O)c1cc(C)cc2c1OCC2

>  <rationale>  (131) 
info cluster #8 (rank 14); hbond:S125; hydroph_interaction:D109+V124; 

>  <cluster_rank>  (131) 
14

>  <N_interactions>  (131) 
3

>  <N_interactions_lost>  (131) 
1

>  <∆∆G>  (131) 
-8.376851

>  <comRMSD>  (131) 
0.658976

>  <N_rotatable_bonds>  (131) 
3

>  <N_unconstrained_atoms>  (131) 
0

>  <N_constrained_atoms>  (131) 
14

$$$$
PV_006891187235
     RDKit          3D

 25 26  0  0  0  0  0  0  0  0999 V2000
   11.8730   14.3550   22.5200 C   0  0  0  0  0  0  0  0  0  0  0  0
   11.0800   13.5880   23.5690 C   0  0  0  0  0  0  0  0  0  0  0  0
   11.1040   13.9180   24.7480 O   0  0  0  0  0  0  0  0  0  0  0  0
   10.3890   12.5410   23.0100 N   0  0  0  0  0  0  0  0  0  0  0  0
    9.6760   11.4700   23.6190 C   0  0  0  0  0  0  0  0  0  0  0  0
    8.6170   11.5880   24.5450 C   0  0  0  0  0  0  0  0  0  0  0  0
    8.0010   12.8750   25.1100 C   0  0  0  0  0  0  0  0  0  0  0  0
    6.9570   12.7390   26.0090 N   0  0  0  0  0  0  0  0  0  0  0  0
    6.4760   11.5430   26.3930 C   0  0  0  0  0  0  0  0  0  0  0  0
    6.9770   10.3660   25.9340 C   0  0  0  0  0  0  0  0  0  0  0  0
    8.0180   10.4230   25.0390 C   0  0  0  0  0  0  0  0  0  0  0  0
    8.4480    9.0620   24.6400 C   0  0  0  0  0  0  0  0  0  0  0  0
    9.4640    8.9890   23.7430 C   0  0  0  0  0  0  0  0  0  0  0  0
   10.0410   10.1480   23.2630 C   0  0  0  0  0  0  0  0  0  0  0  0
   11.0500    9.7990   22.3600 O   0  0  0  0  0  0  0  0  0  0  0  0
   11.5180   15.3870   22.4270 H   0  0  0  0  0  0  0  0  0  0  0  0
   11.7820   13.8700   21.5430 H   0  0  0  0  0  0  0  0  0  0  0  0
   12.9310   14.3880   22.7840 H   0  0  0  0  0  0  0  0  0  0  0  0
   10.7060   12.2710   22.0680 H   0  0  0  0  0  0  0  0  0  0  0  0
    8.3790   13.8560   24.8050 H   0  0  0  0  0  0  0  0  0  0  0  0
    5.6460   11.4860   27.1060 H   0  0  0  0  0  0  0  0  0  0  0  0
    6.5690    9.4100   26.2640 H   0  0  0  0  0  0  0  0  0  0  0  0
    8.0060    8.1630   25.0200 H   0  0  0  0  0  0  0  0  0  0  0  0
    9.8270    8.0250   23.4020 H   0  0  0  0  0  0  0  0  0  0  0  0
   11.1880   10.5300   21.7130 H   0  0  0  0  0  0  0  0  0  0  0  0
  1  2  1  0
  2  3  2  0
  2  4  1  0
  4  5  1  0
  5  6  2  0
  6  7  1  0
  7  8  2  0
  8  9  1  0
  9 10  2  0
 10 11  1  0
 11 12  2  0
 12 13  1  0
 13 14  2  0
 14 15  1  0
 14  5  1  0
 11  6  1  0
  1 16  1  0
  1 17  1  0
  1 18  1  0
  4 19  1  0
  7 20  1  0
  9 21  1  0
 10 22  1  0
 12 23  1  0
 13 24  1  0
 15 25  1  0
A    1
 C1 
A    2
 C2 
A    3
 O1 
A    4
 N1 
A    5
 C3 
A    6
 C4 
A    7
 C5 
A    8
 N2 
A    9
 C6 
A   10
 C7 
A   11
 C8 
A   12
 C9 
A   13
 C10
A   14
 C11
A   15
 O2 
A   16
 H1 
A   17
 H2 
A   18
 H3 
A   19
 H4 
A   20
 H5 
A   21
 H6 
A   22
 H7 
A   23
 H8 
A   24
 H9 
A   25
 H10
M  END
>  <ref_pdb>  (132) 
x0554_0A

>  <ref_mols>  (132) 
x0554_0A,x0451_0A

>  <original SMILES>  (132) 
CC(=O)Nc1c(O)ccc2ccncc12

>  <rationale>  (132) 
info cluster #5 (rank 14); hbond:S125; hydroph_interaction:Y89; 

>  <cluster_rank>  (132) 
14

>  <N_interactions>  (132) 
3

>  <N_interactions_lost>  (132) 
1

>  <∆∆G>  (132) 
-7.881276

>  <comRMSD>  (132) 
0.668823

>  <N_rotatable_bonds>  (132) 
3

>  <N_unconstrained_atoms>  (132) 
1

>  <N_constrained_atoms>  (132) 
15

$$$$
PV_002762975815
     RDKit          3D

 33 35  0  0  0  0  0  0  0  0999 V2000
   12.6940   15.2810   21.5510 C   0  0  0  0  0  0  0  0  0  0  0  0
   11.3720   14.7720   21.9950 C   0  0  0  0  0  0  0  0  0  0  0  0
   10.3020   15.8040   21.5720 C   0  0  0  0  0  0  0  0  0  0  0  0
    8.9300   15.3740   21.9610 C   0  0  0  0  0  0  0  0  0  0  0  0
    8.6860   14.0610   22.6880 C   0  0  0  0  0  0  0  0  0  0  0  0
    9.7590   13.1980   23.0200 C   0  0  0  0  0  0  0  0  0  0  0  0
    9.3650   11.9160   23.7140 C   0  0  0  0  0  0  0  0  0  0  0  0
   10.0240   10.7400   23.3290 C   0  0  0  0  0  0  0  0  0  0  0  0
    9.6650    9.5410   23.9180 C   0  0  0  0  0  0  0  0  0  0  0  0
    8.6200    9.5430   24.9140 C   0  0  0  0  0  0  0  0  0  0  0  0
    7.9800   10.7150   25.2870 C   0  0  0  0  0  0  0  0  0  0  0  0
    8.3630   11.9080   24.6800 C   0  0  0  0  0  0  0  0  0  0  0  0
    7.6100   12.9610   25.1850 N   0  0  0  0  0  0  0  0  0  0  0  0
    6.7300   12.5120   26.1180 C   0  0  0  0  0  0  0  0  0  0  0  0
    6.9480   11.0150   26.2110 C   0  0  0  0  0  0  0  0  0  0  0  0
   11.1230   13.5290   22.6900 C   0  0  0  0  0  0  0  0  0  0  0  0
   12.1650   12.6360   23.0280 C   0  0  0  0  0  0  0  0  0  0  0  0
   13.1560   13.1350   23.9200 O   0  0  0  0  0  0  0  0  0  0  0  0
   12.6650   16.3550   21.4080 H   0  0  0  0  0  0  0  0  0  0  0  0
   13.4600   15.0410   22.2690 H   0  0  0  0  0  0  0  0  0  0  0  0
   12.9410   14.8360   20.5870 H   0  0  0  0  0  0  0  0  0  0  0  0
   10.6350   16.7060   21.0520 H   0  0  0  0  0  0  0  0  0  0  0  0
    8.1280   16.0690   21.6880 H   0  0  0  0  0  0  0  0  0  0  0  0
    7.6290   13.8620   22.9130 H   0  0  0  0  0  0  0  0  0  0  0  0
   10.8060   10.7640   22.5720 H   0  0  0  0  0  0  0  0  0  0  0  0
   10.1590    8.6140   23.6370 H   0  0  0  0  0  0  0  0  0  0  0  0
    8.3340    8.6140   25.3740 H   0  0  0  0  0  0  0  0  0  0  0  0
    7.7170   13.9190   24.8860 H   0  0  0  0  0  0  0  0  0  0  0  0
    6.0520   13.1820   26.6300 H   0  0  0  0  0  0  0  0  0  0  0  0
    6.4230   10.3200   26.8520 H   0  0  0  0  0  0  0  0  0  0  0  0
   11.7750   11.7120   23.4510 H   0  0  0  0  0  0  0  0  0  0  0  0
   12.6880   12.3290   22.1210 H   0  0  0  0  0  0  0  0  0  0  0  0
   13.9620   13.2370   23.3610 H   0  0  0  0  0  0  0  0  0  0  0  0
  1  2  1  0
  2  3  2  0
  3  4  1  0
  4  5  2  0
  5  6  1  0
  6  7  1  0
  7  8  2  0
  8  9  1  0
  9 10  2  0
 10 11  1  0
 11 12  2  0
 12 13  1  0
 13 14  1  0
 14 15  2  0
  6 16  2  0
 16 17  1  0
 17 18  1  0
 16  2  1  0
 12  7  1  0
 15 11  1  0
  1 19  1  0
  1 20  1  0
  1 21  1  0
  3 22  1  0
  4 23  1  0
  5 24  1  0
  8 25  1  0
  9 26  1  0
 10 27  1  0
 13 28  1  0
 14 29  1  0
 15 30  1  0
 17 31  1  0
 17 32  1  0
 18 33  1  0
A    1
 C1 
A    2
 C2 
A    3
 C3 
A    4
 C4 
A    5
 C5 
A    6
 C6 
A    7
 C7 
A    8
 C8 
A    9
 C9 
A   10
 C10
A   11
 C11
A   12
 C12
A   13
 N1 
A   14
 C13
A   15
 C14
A   16
 C15
A   17
 C16
A   18
 O1 
A   19
 H1 
A   20
 H2 
A   21
 H3 
A   22
 H4 
A   23
 H5 
A   24
 H6 
A   25
 H7 
A   26
 H8 
A   27
 H9 
A   28
 H10
A   29
 H11
A   30
 H12
A   31
 H13
A   32
 H14
A   33
 H15
M  END
>  <ref_pdb>  (133) 
x0554_0A

>  <ref_mols>  (133) 
x0566_0A

>  <original SMILES>  (133) 
Cc1cccc(-c2cccc3cc[nH]c23)c1CO

>  <rationale>  (133) 
info cluster #2 (rank 14); hydroph_interaction:Y89+Y90; 

>  <cluster_rank>  (133) 
14

>  <N_interactions>  (133) 
2

>  <N_interactions_lost>  (133) 
0

>  <∆∆G>  (133) 
-8.133203

>  <comRMSD>  (133) 
0.90688

>  <N_rotatable_bonds>  (133) 
4

>  <N_unconstrained_atoms>  (133) 
3

>  <N_constrained_atoms>  (133) 
18

$$$$
Z4919339511
     RDKit          3D

 21 22  0  0  0  0  0  0  0  0999 V2000
    5.4180   13.2760   27.7670 N   0  0  0  0  0  0  0  0  0  0  0  0
    5.8290   13.5960   26.5080 C   0  0  0  0  0  0  0  0  0  0  0  0
    5.4070   14.6130   25.9710 O   0  0  0  0  0  0  0  0  0  0  0  0
    6.7490   12.6720   25.8980 C   0  0  0  0  0  0  0  0  0  0  0  0
    6.8760   11.3100   26.0450 C   0  0  0  0  0  0  0  0  0  0  0  0
    7.9300   10.8690   25.2240 C   0  0  0  0  0  0  0  0  0  0  0  0
    8.4810    9.6180   24.9870 C   0  0  0  0  0  0  0  0  0  0  0  0
    9.5310    9.4670   24.1090 C   0  0  0  0  0  0  0  0  0  0  0  0
   10.0360   10.5660   23.4720 C   0  0  0  0  0  0  0  0  0  0  0  0
   11.0640   10.3190   22.6420 O   0  0  0  0  0  0  0  0  0  0  0  0
    9.5270   11.8540   23.6720 C   0  0  0  0  0  0  0  0  0  0  0  0
    8.4540   11.9700   24.5690 C   0  0  0  0  0  0  0  0  0  0  0  0
    7.7210   13.0590   24.9930 N   0  0  0  0  0  0  0  0  0  0  0  0
    5.0060   14.0170   28.3130 H   0  0  0  0  0  0  0  0  0  0  0  0
    5.2810   12.3230   28.0670 H   0  0  0  0  0  0  0  0  0  0  0  0
    6.2740   10.6740   26.6810 H   0  0  0  0  0  0  0  0  0  0  0  0
    8.0890    8.7560   25.4920 H   0  0  0  0  0  0  0  0  0  0  0  0
    9.9580    8.4860   23.9250 H   0  0  0  0  0  0  0  0  0  0  0  0
   11.0620   10.9430   21.8910 H   0  0  0  0  0  0  0  0  0  0  0  0
    9.9280   12.7220   23.1680 H   0  0  0  0  0  0  0  0  0  0  0  0
    7.8590   14.0150   24.6940 H   0  0  0  0  0  0  0  0  0  0  0  0
  1  2  1  0
  2  3  2  0
  2  4  1  0
  4  5  2  0
  5  6  1  0
  6  7  2  0
  7  8  1  0
  8  9  2  0
  9 10  1  0
  9 11  1  0
 11 12  2  0
 12 13  1  0
 13  4  1  0
 12  6  1  0
  1 14  1  0
  1 15  1  0
  5 16  1  0
  7 17  1  0
  8 18  1  0
 10 19  1  0
 11 20  1  0
 13 21  1  0
A    1
 N1 
A    2
 C1 
A    3
 O1 
A    4
 C2 
A    5
 C3 
A    6
 C4 
A    7
 C5 
A    8
 C6 
A    9
 C7 
A   10
 O2 
A   11
 C8 
A   12
 C9 
A   13
 N2 
A   14
 H1 
A   15
 H2 
A   16
 H3 
A   17
 H4 
A   18
 H5 
A   19
 H6 
A   20
 H7 
A   21
 H8 
M  END
>  <ref_pdb>  (134) 
x0554_0A

>  <ref_mols>  (134) 
x0554_0A,x0416_0A

>  <original SMILES>  (134) 
NC(=O)c1cc2ccc(O)cc2[nH]1

>  <rationale>  (134) 
info cluster #0 (rank 14); hbond:A110+S125; 

>  <cluster_rank>  (134) 
14

>  <N_interactions>  (134) 
2

>  <N_interactions_lost>  (134) 
0

>  <∆∆G>  (134) 
-4.163444

>  <comRMSD>  (134) 
0.634013

>  <N_rotatable_bonds>  (134) 
2

>  <N_unconstrained_atoms>  (134) 
2

>  <N_constrained_atoms>  (134) 
12

$$$$
Z3242563589
     RDKit          3D

 24 25  0  0  0  0  0  0  0  0999 V2000
   12.1480   14.9490   21.5790 C   0  0  0  0  0  0  0  0  0  0  0  0
   11.5630   13.7180   22.1150 N   0  0  0  0  0  0  0  0  0  0  0  0
   10.1710   13.8890   23.0440 S   0  0  0  0  0  6  0  0  0  0  0  0
   10.5520   14.6070   24.2360 O   0  0  0  0  0  0  0  0  0  0  0  0
    9.0750   14.2910   22.1830 O   0  0  0  0  0  0  0  0  0  0  0  0
    9.6700   12.3580   23.6610 C   0  0  0  0  0  0  0  0  0  0  0  0
   10.1680   11.1190   23.3790 C   0  0  0  0  0  0  0  0  0  0  0  0
    9.4900   10.1510   24.0600 N   0  0  0  0  0  0  0  0  0  0  0  0
    8.5040   10.7290   24.8400 C   0  0  0  0  0  0  0  0  0  0  0  0
    7.5400   10.1420   25.7310 C   0  0  0  0  0  0  0  0  0  0  0  0
    6.6490   11.0630   26.3840 C   0  0  0  0  0  0  0  0  0  0  0  0
    6.6410   12.4460   26.2380 C   0  0  0  0  0  0  0  0  0  0  0  0
    7.6130   12.9180   25.3580 C   0  0  0  0  0  0  0  0  0  0  0  0
    8.5240   12.1070   24.6690 C   0  0  0  0  0  0  0  0  0  0  0  0
   13.1220   15.1540   22.0310 H   0  0  0  0  0  0  0  0  0  0  0  0
   12.2840   14.8350   20.4980 H   0  0  0  0  0  0  0  0  0  0  0  0
   11.5070   15.8140   21.7560 H   0  0  0  0  0  0  0  0  0  0  0  0
   11.4940   12.9220   21.4670 H   0  0  0  0  0  0  0  0  0  0  0  0
   11.0040   11.0190   22.6780 H   0  0  0  0  0  0  0  0  0  0  0  0
    9.6740    9.1580   24.0080 H   0  0  0  0  0  0  0  0  0  0  0  0
    7.4820    9.0830   25.9070 H   0  0  0  0  0  0  0  0  0  0  0  0
    5.9080   10.6310   27.0630 H   0  0  0  0  0  0  0  0  0  0  0  0
    5.9460   13.1030   26.7580 H   0  0  0  0  0  0  0  0  0  0  0  0
    7.6580   13.9930   25.2010 H   0  0  0  0  0  0  0  0  0  0  0  0
  1  2  1  0
  2  3  1  0
  3  4  2  0
  3  5  2  0
  3  6  1  0
  6  7  2  0
  7  8  1  0
  8  9  1  0
  9 10  2  0
 10 11  1  0
 11 12  2  0
 12 13  1  0
 13 14  2  0
 14  6  1  0
 14  9  1  0
  1 15  1  0
  1 16  1  0
  1 17  1  0
  2 18  1  0
  7 19  1  0
  8 20  1  0
 10 21  1  0
 11 22  1  0
 12 23  1  0
 13 24  1  0
A    1
 C1 
A    2
 N1 
A    3
 S1 
A    4
 O1 
A    5
 O2 
A    6
 C2 
A    7
 C3 
A    8
 N2 
A    9
 C4 
A   10
 C5 
A   11
 C6 
A   12
 C7 
A   13
 C8 
A   14
 C9 
A   15
 H1 
A   16
 H2 
A   17
 H3 
A   18
 H4 
A   19
 H5 
A   20
 H6 
A   21
 H7 
A   22
 H8 
A   23
 H9 
A   24
 H10
M  END
>  <ref_pdb>  (135) 
x0554_0A

>  <ref_mols>  (135) 
x0451_0A,x0566_0A

>  <original SMILES>  (135) 
CNS(=O)(=O)c1c[nH]c2ccccc12

>  <rationale>  (135) 
info cluster #6 (rank 14); hbond:H21; 

>  <cluster_rank>  (135) 
14

>  <N_interactions>  (135) 
1

>  <N_interactions_lost>  (135) 
0

>  <∆∆G>  (135) 
-7.090323

>  <comRMSD>  (135) 
0.605376

>  <N_rotatable_bonds>  (135) 
3

>  <N_unconstrained_atoms>  (135) 
0

>  <N_constrained_atoms>  (135) 
15

$$$$
Z2464967801
     RDKit          3D

 32 32  0  0  0  0  0  0  0  0999 V2000
    9.8230    8.6310   23.4960 C   0  0  0  0  0  0  0  0  0  0  0  0
    9.0690    9.8350   24.0180 C   0  0  0  0  0  0  0  0  0  0  0  0
    8.0280    9.6980   24.8680 N   0  0  0  0  0  0  0  0  0  0  0  0
    7.4200   10.8910   25.2650 C   0  0  0  0  0  0  0  0  0  0  0  0
    6.3280   10.9150   26.1430 C   0  0  0  0  0  0  0  0  0  0  0  0
    8.0800   11.9700   24.6430 C   0  0  0  0  0  0  0  0  0  0  0  0
    7.8640   13.4690   24.6810 C   0  0  0  0  0  0  0  0  0  0  0  0
    9.2230   14.1960   24.5610 C   0  0  0  0  0  0  0  0  0  0  0  0
    9.7680   14.0680   23.1950 N   0  0  0  0  0  0  0  0  0  0  0  0
   10.3480   15.1100   22.5080 C   0  0  0  0  0  0  0  0  0  0  0  0
   11.0510   15.9010   23.1020 O   0  0  0  0  0  0  0  0  0  0  0  0
   10.0600   15.2770   21.0490 C   0  0  2  0  0  0  0  0  0  0  0  0
   11.1360   14.6910   20.1100 C   0  0  0  0  0  0  0  0  0  0  0  0
    9.8750   16.7160   20.7840 N   0  0  0  0  0  0  0  0  0  0  0  0
    9.3940   11.4440   23.6530 S   0  0  0  0  0  0  0  0  0  0  0  0
   10.7590    8.4900   24.0370 H   0  0  0  0  0  0  0  0  0  0  0  0
    9.2220    7.7210   23.6000 H   0  0  0  0  0  0  0  0  0  0  0  0
   10.0740    8.7530   22.4370 H   0  0  0  0  0  0  0  0  0  0  0  0
    5.7390   10.0040   25.9980 H   0  0  0  0  0  0  0  0  0  0  0  0
    6.4960   11.0190   27.2060 H   0  0  0  0  0  0  0  0  0  0  0  0
    5.6870   11.7520   25.8530 H   0  0  0  0  0  0  0  0  0  0  0  0
    7.3980   13.7550   25.6270 H   0  0  0  0  0  0  0  0  0  0  0  0
    7.1830   13.8190   23.8980 H   0  0  0  0  0  0  0  0  0  0  0  0
    9.1200   15.2680   24.7690 H   0  0  0  0  0  0  0  0  0  0  0  0
    9.9500   13.7930   25.2700 H   0  0  0  0  0  0  0  0  0  0  0  0
   10.0750   13.1560   22.8550 H   0  0  0  0  0  0  0  0  0  0  0  0
    9.1070   14.7740   20.8600 H   0  0  0  0  0  0  0  0  0  0  0  0
   10.6680   14.1250   19.3040 H   0  0  0  0  0  0  0  0  0  0  0  0
   11.8790   14.0590   20.6040 H   0  0  0  0  0  0  0  0  0  0  0  0
   11.6830   15.5050   19.6260 H   0  0  0  0  0  0  0  0  0  0  0  0
   10.2090   17.2700   21.5860 H   0  0  0  0  0  0  0  0  0  0  0  0
    8.8700   16.9050   20.7310 H   0  0  0  0  0  0  0  0  0  0  0  0
  1  2  1  0
  2  3  2  0
  3  4  1  0
  4  5  1  0
  4  6  2  0
  6  7  1  0
  7  8  1  0
  8  9  1  0
  9 10  1  0
 10 11  2  0
 10 12  1  0
 12 13  1  0
 12 14  1  0
  6 15  1  0
 15  2  1  0
  1 16  1  0
  1 17  1  0
  1 18  1  0
  5 19  1  0
  5 20  1  0
  5 21  1  0
  7 22  1  0
  7 23  1  0
  8 24  1  0
  8 25  1  0
  9 26  1  0
 12 27  1  6
 13 28  1  0
 13 29  1  0
 13 30  1  0
 14 31  1  0
 14 32  1  0
A    1
 C1 
A    2
 C2 
A    3
 N1 
A    4
 C3 
A    5
 C4 
A    6
 C5 
A    7
 C6 
A    8
 C7 
A    9
 N2 
A   10
 C8 
A   11
 O1 
A   12
 C9 
A   13
 C10
A   14
 N3 
A   15
 S1 
A   16
 H1 
A   17
 H2 
A   18
 H3 
A   19
 H4 
A   20
 H5 
A   21
 H6 
A   22
 H7 
A   23
 H8 
A   24
 H9 
A   25
 H10
A   26
 H11
A   27
 H12
A   28
 H13
A   29
 H14
A   30
 H15
A   31
 H16
A   32
 H17
M  END
>  <ref_pdb>  (136) 
x0554_0A

>  <ref_mols>  (136) 
x0556_0A

>  <original SMILES>  (136) 
Cc1nc(C)c(CCNC(=O)[C@H](C)N)s1

>  <rationale>  (136) 
info cluster #7 (rank 14); hbond:S87+T126; hydroph_interaction:D109+V124; 

>  <cluster_rank>  (136) 
14

>  <N_interactions>  (136) 
5

>  <N_interactions_lost>  (136) 
1

>  <∆∆G>  (136) 
-8.728251

>  <comRMSD>  (136) 
0.772717

>  <N_rotatable_bonds>  (136) 
8

>  <N_unconstrained_atoms>  (136) 
1

>  <N_constrained_atoms>  (136) 
15

$$$$
Z927395506
     RDKit          3D

 30 30  0  0  0  0  0  0  0  0999 V2000
   12.4920   15.2460   21.0860 C   0  0  0  0  0  0  0  0  0  0  0  0
   11.0520   15.6360   20.8850 C   0  0  0  0  0  0  0  0  0  0  0  0
   10.4080   14.7660   19.8510 C   0  0  0  0  0  0  0  0  0  0  0  0
   10.3330   15.6410   22.0740 N   0  0  0  0  0  0  0  0  0  0  0  0
   10.4810   14.6070   23.1120 C   0  0  0  0  0  0  0  0  0  0  0  0
   11.1430   14.7170   24.1240 O   0  0  0  0  0  0  0  0  0  0  0  0
    9.7520   13.4730   22.8040 C   0  0  0  0  0  0  0  0  0  0  0  0
    8.4340   14.1010   22.5020 N   0  0  0  0  0  0  0  0  0  0  0  0
    9.3940   12.3010   23.5430 C   0  0  0  0  0  0  0  0  0  0  0  0
   10.1010   10.9290   23.3230 C   0  0  0  0  0  0  0  0  0  0  0  0
    9.6340    9.6870   24.1140 C   0  0  0  0  0  0  0  0  0  0  0  0
    8.4830    9.9290   25.0810 C   0  0  0  0  0  0  0  0  0  0  0  0
    7.9780   11.2140   25.1600 C   0  0  0  0  0  0  0  0  0  0  0  0
    8.3640   12.3400   24.4720 C   0  0  0  0  0  0  0  0  0  0  0  0
   13.0240   16.0010   21.6630 H   0  0  0  0  0  0  0  0  0  0  0  0
   12.5590   14.2850   21.5980 H   0  0  0  0  0  0  0  0  0  0  0  0
   12.9590   15.1670   20.1040 H   0  0  0  0  0  0  0  0  0  0  0  0
   11.0370   16.6590   20.5050 H   0  0  0  0  0  0  0  0  0  0  0  0
   10.2040   13.8000   20.3140 H   0  0  0  0  0  0  0  0  0  0  0  0
   11.1130   14.6280   19.0230 H   0  0  0  0  0  0  0  0  0  0  0  0
    9.4700   15.1960   19.4720 H   0  0  0  0  0  0  0  0  0  0  0  0
    9.4800   16.1880   22.0950 H   0  0  0  0  0  0  0  0  0  0  0  0
   10.2720   13.1320   21.9160 H   0  0  0  0  0  0  0  0  0  0  0  0
    7.8090   13.8650   23.2680 H   0  0  0  0  0  0  0  0  0  0  0  0
    8.0320   13.6360   21.7050 H   0  0  0  0  0  0  0  0  0  0  0  0
   10.9150   10.8380   22.6090 H   0  0  0  0  0  0  0  0  0  0  0  0
   10.1140    8.7270   23.9640 H   0  0  0  0  0  0  0  0  0  0  0  0
    8.0050    9.2050   25.7240 H   0  0  0  0  0  0  0  0  0  0  0  0
    7.1550   11.3500   25.8680 H   0  0  0  0  0  0  0  0  0  0  0  0
    7.7960   13.2430   24.7110 H   0  0  0  0  0  0  0  0  0  0  0  0
  1  2  1  0
  2  3  1  0
  2  4  1  0
  4  5  1  0
  5  6  2  0
  5  7  1  0
  7  8  1  0
  7  9  1  0
  9 10  2  0
 10 11  1  0
 11 12  2  0
 12 13  1  0
 13 14  2  0
 14  9  1  0
  1 15  1  0
  1 16  1  0
  1 17  1  0
  2 18  1  0
  3 19  1  0
  3 20  1  0
  3 21  1  0
  4 22  1  0
  7 23  1  0
  8 24  1  0
  8 25  1  0
 10 26  1  0
 11 27  1  0
 12 28  1  0
 13 29  1  0
 14 30  1  0
A    1
 C1 
A    2
 C2 
A    3
 C3 
A    4
 N1 
A    5
 C4 
A    6
 O1 
A    7
 C5 
A    8
 N2 
A    9
 C6 
A   10
 C7 
A   11
 C8 
A   12
 C9 
A   13
 C10
A   14
 C11
A   15
 H1 
A   16
 H2 
A   17
 H3 
A   18
 H4 
A   19
 H5 
A   20
 H6 
A   21
 H7 
A   22
 H8 
A   23
 H9 
A   24
 H10
A   25
 H11
A   26
 H12
A   27
 H13
A   28
 H14
A   29
 H15
A   30
 H16
M  END
>  <ref_pdb>  (137) 
x0554_0A

>  <ref_mols>  (137) 
x0566_0A

>  <original SMILES>  (137) 
CC(C)NC(=O)C(N)c1ccccc1

>  <rationale>  (137) 
info cluster #3 (rank 14); hbond:S87+G127; hydroph_interaction:Y89+Y90; 

>  <cluster_rank>  (137) 
14

>  <N_interactions>  (137) 
5

>  <N_interactions_lost>  (137) 
1

>  <∆∆G>  (137) 
-7.133079

>  <comRMSD>  (137) 
0.858199

>  <N_rotatable_bonds>  (137) 
6

>  <N_unconstrained_atoms>  (137) 
2

>  <N_constrained_atoms>  (137) 
14

$$$$
Z5467076910
     RDKit          3D

 28 29  0  0  0  0  0  0  0  0999 V2000
    9.3680   16.3550   21.0860 C   0  0  0  0  0  0  0  0  0  0  0  0
   10.2110   15.1850   21.5660 C   0  0  0  0  0  0  0  0  0  0  0  0
   11.0220   14.5980   20.4210 C   0  0  0  0  0  0  0  0  0  0  0  0
    9.4810   14.1890   22.2310 N   0  0  0  0  0  0  0  0  0  0  0  0
   10.2300   13.1900   22.9930 C   0  0  0  0  0  0  0  0  0  0  0  0
   11.4450   13.2820   23.0820 O   0  0  0  0  0  0  0  0  0  0  0  0
    9.6210   12.0830   23.6380 C   0  0  0  0  0  0  0  0  0  0  0  0
   10.1260   10.8200   23.3380 C   0  0  0  0  0  0  0  0  0  0  0  0
    9.5750    9.5420   23.9770 C   0  0  0  0  0  0  0  0  0  0  0  0
    8.4380    9.6950   24.9720 C   0  0  0  0  0  0  0  0  0  0  0  0
    8.0010   10.9980   25.1940 C   0  0  0  0  0  0  0  0  0  0  0  0
    8.5630   12.1210   24.5630 C   0  0  0  0  0  0  0  0  0  0  0  0
    7.9090   13.2410   25.0050 O   0  0  0  0  0  0  0  0  0  0  0  0
    6.9570   12.8480   25.8870 C   0  0  0  0  0  0  0  0  0  0  0  0
    6.9720   11.4890   26.0370 C   0  0  0  0  0  0  0  0  0  0  0  0
    9.9510   17.2770   21.1130 H   0  0  0  0  0  0  0  0  0  0  0  0
    9.0340   16.1800   20.0650 H   0  0  0  0  0  0  0  0  0  0  0  0
    8.4940   16.4660   21.7370 H   0  0  0  0  0  0  0  0  0  0  0  0
   10.9250   15.5990   22.2950 H   0  0  0  0  0  0  0  0  0  0  0  0
   11.9940   14.2460   20.8000 H   0  0  0  0  0  0  0  0  0  0  0  0
   10.4770   13.7540   20.0040 H   0  0  0  0  0  0  0  0  0  0  0  0
   11.2080   15.3290   19.6230 H   0  0  0  0  0  0  0  0  0  0  0  0
    8.5470   14.4180   22.5600 H   0  0  0  0  0  0  0  0  0  0  0  0
   10.9450   10.7350   22.6260 H   0  0  0  0  0  0  0  0  0  0  0  0
    9.9850    8.5640   23.7300 H   0  0  0  0  0  0  0  0  0  0  0  0
    7.9980    8.8550   25.4760 H   0  0  0  0  0  0  0  0  0  0  0  0
    6.3570   13.6430   26.3180 H   0  0  0  0  0  0  0  0  0  0  0  0
    6.3190   10.9120   26.6780 H   0  0  0  0  0  0  0  0  0  0  0  0
  1  2  1  0
  2  3  1  0
  2  4  1  0
  4  5  1  0
  5  6  2  0
  5  7  1  0
  7  8  2  0
  8  9  1  0
  9 10  2  0
 10 11  1  0
 11 12  2  0
 12 13  1  0
 13 14  1  0
 14 15  2  0
 12  7  1  0
 15 11  1  0
  1 16  1  0
  1 17  1  0
  1 18  1  0
  2 19  1  0
  3 20  1  0
  3 21  1  0
  3 22  1  0
  4 23  1  0
  8 24  1  0
  9 25  1  0
 10 26  1  0
 14 27  1  0
 15 28  1  0
A    1
 C1 
A    2
 C2 
A    3
 C3 
A    4
 N1 
A    5
 C4 
A    6
 O1 
A    7
 C5 
A    8
 C6 
A    9
 C7 
A   10
 C8 
A   11
 C9 
A   12
 C10
A   13
 O2 
A   14
 C11
A   15
 C12
A   16
 H1 
A   17
 H2 
A   18
 H3 
A   19
 H4 
A   20
 H5 
A   21
 H6 
A   22
 H7 
A   23
 H8 
A   24
 H9 
A   25
 H10
A   26
 H11
A   27
 H12
A   28
 H13
M  END
>  <ref_pdb>  (138) 
x0554_0A

>  <ref_mols>  (138) 
x0566_0A

>  <original SMILES>  (138) 
CC(C)NC(=O)c1cccc2ccoc12

>  <rationale>  (138) 
info cluster #1 (rank 14); hbond:T126; hydroph_interaction:V84; 

>  <cluster_rank>  (138) 
14

>  <N_interactions>  (138) 
2

>  <N_interactions_lost>  (138) 
0

>  <∆∆G>  (138) 
-5.970746

>  <comRMSD>  (138) 
0.598217

>  <N_rotatable_bonds>  (138) 
4

>  <N_unconstrained_atoms>  (138) 
0

>  <N_constrained_atoms>  (138) 
16

$$$$
Z2674052266
     RDKit          3D

 25 25  0  0  0  0  0  0  0  0999 V2000
   11.9160   14.3550   22.1200 C   0  0  0  0  0  0  0  0  0  0  0  0
   10.6450   13.7580   22.4200 O   0  0  0  0  0  0  0  0  0  0  0  0
   10.4170   13.5420   23.7610 C   0  0  0  0  0  0  0  0  0  0  0  0
   10.7450   14.3500   24.6170 O   0  0  0  0  0  0  0  0  0  0  0  0
    9.7430   12.2630   23.9860 C   0  0  0  0  0  0  0  0  0  0  0  0
    8.6010   11.9050   24.7170 C   0  0  0  0  0  0  0  0  0  0  0  0
    7.8240   12.8070   25.4520 N   0  0  0  0  0  0  0  0  0  0  0  0
    6.7750   13.5990   25.0170 C   0  0  0  0  0  0  0  0  0  0  0  0
    6.9010   13.9410   23.5480 C   0  0  0  0  0  0  0  0  0  0  0  0
    5.8250   14.0240   25.6990 O   0  0  0  0  0  0  0  0  0  0  0  0
    8.3480   10.5040   24.6080 C   0  0  0  0  0  0  0  0  0  0  0  0
    9.2660    9.8390   23.8340 C   0  0  0  0  0  0  0  0  0  0  0  0
    9.3300    8.3960   23.4900 C   0  0  0  0  0  0  0  0  0  0  0  0
   10.4470   10.8860   23.2350 S   0  0  0  0  0  0  0  0  0  0  0  0
   12.6660   14.0430   22.8500 H   0  0  0  0  0  0  0  0  0  0  0  0
   11.8350   15.4480   22.0840 H   0  0  0  0  0  0  0  0  0  0  0  0
   12.2250   14.0000   21.1340 H   0  0  0  0  0  0  0  0  0  0  0  0
    8.1090   12.9110   26.4210 H   0  0  0  0  0  0  0  0  0  0  0  0
    5.9110   14.1650   23.1420 H   0  0  0  0  0  0  0  0  0  0  0  0
    7.5620   14.7980   23.3930 H   0  0  0  0  0  0  0  0  0  0  0  0
    7.3280   13.0850   23.0180 H   0  0  0  0  0  0  0  0  0  0  0  0
    7.5190    9.9930   25.0820 H   0  0  0  0  0  0  0  0  0  0  0  0
    8.7070    8.1700   22.6230 H   0  0  0  0  0  0  0  0  0  0  0  0
   10.3550    8.0980   23.2570 H   0  0  0  0  0  0  0  0  0  0  0  0
    8.9790    7.7920   24.3330 H   0  0  0  0  0  0  0  0  0  0  0  0
  1  2  1  0
  2  3  1  0
  3  4  2  0
  3  5  1  0
  5  6  2  0
  6  7  1  0
  7  8  1  0
  8  9  1  0
  8 10  2  0
  6 11  1  0
 11 12  2  0
 12 13  1  0
 12 14  1  0
 14  5  1  0
  1 15  1  0
  1 16  1  0
  1 17  1  0
  7 18  1  0
  9 19  1  0
  9 20  1  0
  9 21  1  0
 11 22  1  0
 13 23  1  0
 13 24  1  0
 13 25  1  0
A    1
 C1 
A    2
 O1 
A    3
 C2 
A    4
 O2 
A    5
 C3 
A    6
 C4 
A    7
 N1 
A    8
 C5 
A    9
 C6 
A   10
 O3 
A   11
 C7 
A   12
 C8 
A   13
 C9 
A   14
 S1 
A   15
 H1 
A   16
 H2 
A   17
 H3 
A   18
 H4 
A   19
 H5 
A   20
 H6 
A   21
 H7 
A   22
 H8 
A   23
 H9 
A   24
 H10
A   25
 H11
M  END
>  <ref_pdb>  (139) 
x0554_0A

>  <ref_mols>  (139) 
x0451_0A,x0416_0A,x0416_0A

>  <original SMILES>  (139) 
COC(=O)c1sc(C)cc1NC(C)=O

>  <rationale>  (139) 
info cluster #4 (rank 14); hydroph_interaction:D109+V124; saltbridge:H21; 

>  <cluster_rank>  (139) 
14

>  <N_interactions>  (139) 
3

>  <N_interactions_lost>  (139) 
1

>  <∆∆G>  (139) 
-7.261765

>  <comRMSD>  (139) 
0.887263

>  <N_rotatable_bonds>  (139) 
5

>  <N_unconstrained_atoms>  (139) 
1

>  <N_constrained_atoms>  (139) 
15

$$$$
Z4216637841
     RDKit          3D

 32 33  0  0  0  0  0  0  0  0999 V2000
   10.3580    9.2580   23.3610 C   0  0  0  0  0  0  0  0  0  0  0  0
    9.3530   10.2700   23.8990 C   0  0  0  0  0  0  0  0  0  0  0  0
    8.3600    9.7990   24.6810 N   0  0  0  0  0  0  0  0  0  0  0  0
    7.6430   10.8970   25.0040 N   0  0  0  0  0  0  0  0  0  0  0  0
    6.4890   10.7490   25.8610 C   0  0  0  0  0  0  0  0  0  0  0  0
    8.1440   12.0400   24.4450 C   0  0  0  0  0  0  0  0  0  0  0  0
    9.2430   11.6940   23.7450 C   0  0  0  0  0  0  0  0  0  0  0  0
    9.8980   12.7720   23.1230 N   0  0  0  0  0  0  0  0  0  0  0  0
   11.1720   13.0770   23.4710 C   0  0  0  0  0  0  0  0  0  0  0  0
   11.7330   12.8660   24.7630 O   0  0  0  0  0  0  0  0  0  0  0  0
   11.9410   13.7320   22.3540 C   0  0  0  0  0  0  0  0  0  0  0  0
   12.2950   14.9990   22.6870 C   0  0  0  0  0  0  0  0  0  0  0  0
   11.5960   16.0660   21.9720 N   0  0  0  0  0  0  0  0  0  0  0  0
    9.0580   13.9440   22.7330 C   0  0  0  0  0  0  0  0  0  0  0  0
    7.7860   13.9840   23.2890 C   0  0  0  0  0  0  0  0  0  0  0  0
    7.6660   13.2840   24.5520 O   0  0  0  0  0  0  0  0  0  0  0  0
   11.1870    9.1520   24.0690 H   0  0  0  0  0  0  0  0  0  0  0  0
    9.9130    8.2650   23.2310 H   0  0  0  0  0  0  0  0  0  0  0  0
   10.7840    9.5780   22.4070 H   0  0  0  0  0  0  0  0  0  0  0  0
    6.8350   10.4890   26.8600 H   0  0  0  0  0  0  0  0  0  0  0  0
    5.9320   11.6900   25.8990 H   0  0  0  0  0  0  0  0  0  0  0  0
    5.8500    9.9590   25.4650 H   0  0  0  0  0  0  0  0  0  0  0  0
   12.8100   13.1200   22.1260 H   0  0  0  0  0  0  0  0  0  0  0  0
   11.2990   13.7830   21.4690 H   0  0  0  0  0  0  0  0  0  0  0  0
   13.3670   15.1420   22.5570 H   0  0  0  0  0  0  0  0  0  0  0  0
   12.0710   15.1170   23.7480 H   0  0  0  0  0  0  0  0  0  0  0  0
   11.4520   16.9000   22.5450 H   0  0  0  0  0  0  0  0  0  0  0  0
   12.2000   16.3610   21.1940 H   0  0  0  0  0  0  0  0  0  0  0  0
    9.0040   13.9450   21.6440 H   0  0  0  0  0  0  0  0  0  0  0  0
    9.5680   14.8630   23.0280 H   0  0  0  0  0  0  0  0  0  0  0  0
    7.4760   15.0240   23.4470 H   0  0  0  0  0  0  0  0  0  0  0  0
    7.0590   13.5310   22.6190 H   0  0  0  0  0  0  0  0  0  0  0  0
  1  2  1  0
  2  3  2  0
  3  4  1  0
  4  5  1  0
  4  6  1  0
  6  7  2  0
  7  8  1  0
  8  9  1  0
  9 10  2  0
  9 11  1  0
 11 12  1  0
 12 13  1  0
  8 14  1  0
 14 15  1  0
 15 16  1  0
  7  2  1  0
 16  6  1  0
  1 17  1  0
  1 18  1  0
  1 19  1  0
  5 20  1  0
  5 21  1  0
  5 22  1  0
 11 23  1  0
 11 24  1  0
 12 25  1  0
 12 26  1  0
 13 27  1  0
 13 28  1  0
 14 29  1  0
 14 30  1  0
 15 31  1  0
 15 32  1  0
A    1
 C1 
A    2
 C2 
A    3
 N1 
A    4
 N2 
A    5
 C3 
A    6
 C4 
A    7
 C5 
A    8
 N3 
A    9
 C6 
A   10
 O1 
A   11
 C7 
A   12
 C8 
A   13
 N4 
A   14
 C9 
A   15
 C10
A   16
 O2 
A   17
 H1 
A   18
 H2 
A   19
 H3 
A   20
 H4 
A   21
 H5 
A   22
 H6 
A   23
 H7 
A   24
 H8 
A   25
 H9 
A   26
 H10
A   27
 H11
A   28
 H12
A   29
 H13
A   30
 H14
A   31
 H15
A   32
 H16
M  END
>  <ref_pdb>  (140) 
x0554_0A

>  <ref_mols>  (140) 
x0310_0A,x0566_0A

>  <original SMILES>  (140) 
Cc1nn(C)c2c1N(C(=O)CCN)CCO2

>  <rationale>  (140) 
info cluster #9 (rank 14); hbond:S87; hydroph_interaction:V124; 

>  <cluster_rank>  (140) 
14

>  <N_interactions>  (140) 
3

>  <N_interactions_lost>  (140) 
1

>  <∆∆G>  (140) 
-6.63849

>  <comRMSD>  (140) 
0.88365

>  <N_rotatable_bonds>  (140) 
5

>  <N_unconstrained_atoms>  (140) 
0

>  <N_constrained_atoms>  (140) 
16

$$$$
Z1022803852
     RDKit          3D

 28 29  0  0  0  0  0  0  0  0999 V2000
   10.3770   15.0820   20.4600 C   0  0  0  0  0  0  0  0  0  0  0  0
    9.6060   15.3540   21.7460 C   0  0  0  0  0  0  0  0  0  0  0  0
    9.1060   14.1730   22.2680 N   0  0  0  0  0  0  0  0  0  0  0  0
    9.8220   13.2360   23.0700 C   0  0  0  0  0  0  0  0  0  0  0  0
   11.2320   13.2420   23.3040 O   0  0  0  0  0  0  0  0  0  0  0  0
    9.2280   12.1340   23.7160 C   0  0  0  0  0  0  0  0  0  0  0  0
    9.5620   10.6880   23.2960 C   0  0  0  0  0  0  0  0  0  0  0  0
    8.8680    9.5590   23.9970 C   0  0  0  0  0  0  0  0  0  0  0  0
    9.2720    8.2070   23.4430 C   0  0  0  0  0  0  0  0  0  0  0  0
    7.9400    9.7180   25.0380 C   0  0  0  0  0  0  0  0  0  0  0  0
    7.7320   11.0590   25.3360 C   0  0  0  0  0  0  0  0  0  0  0  0
    6.8520   11.3770   26.3270 C   0  0  0  0  0  0  0  0  0  0  0  0
    6.8700   12.7300   26.3650 N   0  0  0  0  0  0  0  0  0  0  0  0
    7.7260   13.2640   25.4360 N   0  0  0  0  0  0  0  0  0  0  0  0
    8.2880   12.2030   24.7680 C   0  0  0  0  0  0  0  0  0  0  0  0
   11.3050   15.6610   20.4210 H   0  0  0  0  0  0  0  0  0  0  0  0
   10.6510   14.0250   20.4020 H   0  0  0  0  0  0  0  0  0  0  0  0
    9.7740   15.3200   19.5790 H   0  0  0  0  0  0  0  0  0  0  0  0
   10.2240   16.0240   22.3570 H   0  0  0  0  0  0  0  0  0  0  0  0
    8.7430   15.9680   21.4530 H   0  0  0  0  0  0  0  0  0  0  0  0
    8.3060   13.7740   21.7700 H   0  0  0  0  0  0  0  0  0  0  0  0
   10.2890   10.5570   22.4880 H   0  0  0  0  0  0  0  0  0  0  0  0
   10.3320    7.9920   23.3440 H   0  0  0  0  0  0  0  0  0  0  0  0
    8.8270    8.0650   22.4570 H   0  0  0  0  0  0  0  0  0  0  0  0
    8.8480    7.4200   24.0720 H   0  0  0  0  0  0  0  0  0  0  0  0
    7.4490    8.8950   25.5410 H   0  0  0  0  0  0  0  0  0  0  0  0
    6.3090   10.6160   26.8950 H   0  0  0  0  0  0  0  0  0  0  0  0
    6.3420   13.3610   26.9760 H   0  0  0  0  0  0  0  0  0  0  0  0
  1  2  1  0
  2  3  1  0
  3  4  1  0
  4  5  2  0
  4  6  1  0
  6  7  2  0
  7  8  1  0
  8  9  1  0
  8 10  2  0
 10 11  1  0
 11 12  2  0
 12 13  1  0
 13 14  1  0
 14 15  2  0
 15  6  1  0
 15 11  1  0
  1 16  1  0
  1 17  1  0
  1 18  1  0
  2 19  1  0
  2 20  1  0
  3 21  1  0
  7 22  1  0
  9 23  1  0
  9 24  1  0
  9 25  1  0
 10 26  1  0
 12 27  1  0
 13 28  1  0
A    1
 C1 
A    2
 C2 
A    3
 N1 
A    4
 C3 
A    5
 O1 
A    6
 C4 
A    7
 C5 
A    8
 C6 
A    9
 C7 
A   10
 C8 
A   11
 C9 
A   12
 C10
A   13
 N2 
A   14
 N3 
A   15
 C11
A   16
 H1 
A   17
 H2 
A   18
 H3 
A   19
 H4 
A   20
 H5 
A   21
 H6 
A   22
 H7 
A   23
 H8 
A   24
 H9 
A   25
 H10
A   26
 H11
A   27
 H12
A   28
 H13
M  END
>  <ref_pdb>  (141) 
x0554_0A

>  <ref_mols>  (141) 
x0566_0A,x0451_0A

>  <original SMILES>  (141) 
CCNC(=O)c1cc(C)cc2c[nH]nc12

>  <rationale>  (141) 
info cluster #8 (rank 15); hbond:T126; hydroph_interaction:D109+V124; 

>  <cluster_rank>  (141) 
15

>  <N_interactions>  (141) 
3

>  <N_interactions_lost>  (141) 
0

>  <∆∆G>  (141) 
-8.099565

>  <comRMSD>  (141) 
0.596394

>  <N_rotatable_bonds>  (141) 
4

>  <N_unconstrained_atoms>  (141) 
1

>  <N_constrained_atoms>  (141) 
14

$$$$
PV_002173945509
     RDKit          3D

 25 26  0  0  0  0  0  0  0  0999 V2000
   11.9540   14.5500   22.3720 C   0  0  0  0  0  0  0  0  0  0  0  0
   11.1640   13.8000   23.4510 C   0  0  0  0  0  0  0  0  0  0  0  0
   11.2470   14.1020   24.6330 O   0  0  0  0  0  0  0  0  0  0  0  0
   10.4040   12.8010   22.8930 N   0  0  0  0  0  0  0  0  0  0  0  0
    9.7750   11.6580   23.5460 C   0  0  0  0  0  0  0  0  0  0  0  0
   10.4750   10.3900   23.0860 C   0  0  0  0  0  0  0  0  0  0  0  0
    9.9750    9.0900   23.6320 C   0  0  0  0  0  0  0  0  0  0  0  0
    8.8200    9.1690   24.5880 C   0  0  0  0  0  0  0  0  0  0  0  0
    8.2620   10.3970   24.9190 C   0  0  0  0  0  0  0  0  0  0  0  0
    8.6800   11.6450   24.4560 C   0  0  0  0  0  0  0  0  0  0  0  0
    7.9340   12.8540   24.9530 C   0  0  0  0  0  0  0  0  0  0  0  0
    6.8700   12.6160   25.9360 C   0  0  0  0  0  0  0  0  0  0  0  0
    6.5470   11.3430   26.4060 C   0  0  0  0  0  0  0  0  0  0  0  0
    5.7390   11.2020   27.3160 O   0  0  0  0  0  0  0  0  0  0  0  0
    7.2180   10.2230   25.7700 N   0  0  0  0  0  0  0  0  0  0  0  0
   11.6020   15.5810   22.2660 H   0  0  0  0  0  0  0  0  0  0  0  0
   11.8530   14.0480   21.4050 H   0  0  0  0  0  0  0  0  0  0  0  0
   13.0190   14.5870   22.6210 H   0  0  0  0  0  0  0  0  0  0  0  0
   10.7210   12.5780   21.9440 H   0  0  0  0  0  0  0  0  0  0  0  0
   11.2940   10.3810   22.3980 H   0  0  0  0  0  0  0  0  0  0  0  0
   10.4300    8.1450   23.3510 H   0  0  0  0  0  0  0  0  0  0  0  0
    8.4520    8.2430   24.9990 H   0  0  0  0  0  0  0  0  0  0  0  0
    8.2000   13.8420   24.5780 H   0  0  0  0  0  0  0  0  0  0  0  0
    6.2830   13.4240   26.3500 H   0  0  0  0  0  0  0  0  0  0  0  0
    6.6140    9.4370   25.5540 H   0  0  0  0  0  0  0  0  0  0  0  0
  1  2  1  0
  2  3  2  0
  2  4  1  0
  4  5  1  0
  5  6  2  0
  6  7  1  0
  7  8  2  0
  8  9  1  0
  9 10  2  0
 10 11  1  0
 11 12  2  0
 12 13  1  0
 13 14  2  0
 13 15  1  0
 10  5  1  0
 15  9  1  0
  1 16  1  0
  1 17  1  0
  1 18  1  0
  4 19  1  0
  6 20  1  0
  7 21  1  0
  8 22  1  0
 11 23  1  0
 12 24  1  0
 15 25  1  0
A    1
 C1 
A    2
 C2 
A    3
 O1 
A    4
 N1 
A    5
 C3 
A    6
 C4 
A    7
 C5 
A    8
 C6 
A    9
 C7 
A   10
 C8 
A   11
 C9 
A   12
 C10
A   13
 C11
A   14
 O2 
A   15
 N2 
A   16
 H1 
A   17
 H2 
A   18
 H3 
A   19
 H4 
A   20
 H5 
A   21
 H6 
A   22
 H7 
A   23
 H8 
A   24
 H9 
A   25
 H10
M  END
>  <ref_pdb>  (142) 
x0554_0A

>  <ref_mols>  (142) 
x0554_0A,x0451_0A

>  <original SMILES>  (142) 
CC(=O)Nc1cccc2[nH]c(=O)ccc12

>  <rationale>  (142) 
info cluster #5 (rank 15); hbond:S105+S125; hydroph_interaction:Y89; 

>  <cluster_rank>  (142) 
15

>  <N_interactions>  (142) 
3

>  <N_interactions_lost>  (142) 
1

>  <∆∆G>  (142) 
-6.474183

>  <comRMSD>  (142) 
0.826689

>  <N_rotatable_bonds>  (142) 
2

>  <N_unconstrained_atoms>  (142) 
1

>  <N_constrained_atoms>  (142) 
16

$$$$
Z3505465193
     RDKit          3D

 37 39  0  0  0  0  0  0  0  0999 V2000
   12.5660   14.6870   22.0370 C   0  0  0  0  0  0  0  0  0  0  0  0
   11.2230   15.2230   22.4070 C   0  0  0  0  0  0  0  0  0  0  0  0
   10.4230   14.1650   22.7610 N   0  0  0  0  0  0  0  0  0  0  0  0
   10.8580   13.0470   23.4910 C   0  0  0  0  0  0  0  0  0  0  0  0
   10.0110   11.9400   23.7980 C   0  0  0  0  0  0  0  0  0  0  0  0
   10.1890   10.6930   23.2850 C   0  0  0  0  0  0  0  0  0  0  0  0
    9.2190    9.8700   23.7880 N   0  0  0  0  0  0  0  0  0  0  0  0
    9.0780    8.4670   23.4800 C   0  0  0  0  0  0  0  0  0  0  0  0
    8.4190   10.6110   24.6340 C   0  0  0  0  0  0  0  0  0  0  0  0
    7.2430   10.0800   25.4010 C   0  0  0  0  0  0  0  0  0  0  0  0
    6.5390   11.1250   26.2480 C   0  0  0  0  0  0  0  0  0  0  0  0
    7.0430   12.4260   26.2320 C   0  0  0  0  0  0  0  0  0  0  0  0
    8.1670   12.8230   25.4760 C   0  0  0  0  0  0  0  0  0  0  0  0
    8.8670   11.9010   24.6650 C   0  0  0  0  0  0  0  0  0  0  0  0
   10.6080   15.8860   21.2410 C   0  0  0  0  0  0  0  0  0  0  0  0
   10.2760   15.1980   20.0230 C   0  0  0  0  0  0  0  0  0  0  0  0
    9.1020   15.5030   20.7780 C   0  0  0  0  0  0  0  0  0  0  0  0
   13.0460   14.2470   22.9150 H   0  0  0  0  0  0  0  0  0  0  0  0
   12.4440   13.9280   21.2610 H   0  0  0  0  0  0  0  0  0  0  0  0
   13.1910   15.4960   21.6490 H   0  0  0  0  0  0  0  0  0  0  0  0
   11.3880   16.0050   23.1260 H   0  0  0  0  0  0  0  0  0  0  0  0
    9.5410   14.4990   23.1440 H   0  0  0  0  0  0  0  0  0  0  0  0
   11.7180   12.6340   22.9550 H   0  0  0  0  0  0  0  0  0  0  0  0
   11.2730   13.3870   24.4470 H   0  0  0  0  0  0  0  0  0  0  0  0
   10.9440   10.3200   22.5900 H   0  0  0  0  0  0  0  0  0  0  0  0
    8.2460    8.3160   22.8000 H   0  0  0  0  0  0  0  0  0  0  0  0
   10.0200    8.0990   23.0520 H   0  0  0  0  0  0  0  0  0  0  0  0
    8.9070    7.9000   24.4040 H   0  0  0  0  0  0  0  0  0  0  0  0
    6.9150    9.0700   25.3720 H   0  0  0  0  0  0  0  0  0  0  0  0
    5.6720   10.8600   26.8480 H   0  0  0  0  0  0  0  0  0  0  0  0
    6.5440   13.1800   26.8380 H   0  0  0  0  0  0  0  0  0  0  0  0
    8.4990   13.8540   25.5220 H   0  0  0  0  0  0  0  0  0  0  0  0
   10.8510   16.9400   21.1970 H   0  0  0  0  0  0  0  0  0  0  0  0
   10.5480   14.1500   19.9400 H   0  0  0  0  0  0  0  0  0  0  0  0
   10.4260   15.7370   19.0970 H   0  0  0  0  0  0  0  0  0  0  0  0
    8.5810   14.7140   21.2890 H   0  0  0  0  0  0  0  0  0  0  0  0
    8.4790   16.3340   20.4950 H   0  0  0  0  0  0  0  0  0  0  0  0
  1  2  1  0
  2  3  1  0
  3  4  1  0
  4  5  1  0
  5  6  2  0
  6  7  1  0
  7  8  1  0
  7  9  1  0
  9 10  2  0
 10 11  1  0
 11 12  2  0
 12 13  1  0
 13 14  2  0
  2 15  1  0
 15 16  1  0
 16 17  1  0
 14  5  1  0
 14  9  1  0
 17 15  1  0
  1 18  1  0
  1 19  1  0
  1 20  1  0
  2 21  1  0
  3 22  1  0
  4 23  1  0
  4 24  1  0
  6 25  1  0
  8 26  1  0
  8 27  1  0
  8 28  1  0
 10 29  1  0
 11 30  1  0
 12 31  1  0
 13 32  1  0
 15 33  1  0
 16 34  1  0
 16 35  1  0
 17 36  1  0
 17 37  1  0
A    1
 C1 
A    2
 C2 
A    3
 N1 
A    4
 C3 
A    5
 C4 
A    6
 C5 
A    7
 N2 
A    8
 C6 
A    9
 C7 
A   10
 C8 
A   11
 C9 
A   12
 C10
A   13
 C11
A   14
 C12
A   15
 C13
A   16
 C14
A   17
 C15
A   18
 H1 
A   19
 H2 
A   20
 H3 
A   21
 H4 
A   22
 H5 
A   23
 H6 
A   24
 H7 
A   25
 H8 
A   26
 H9 
A   27
 H10
A   28
 H11
A   29
 H12
A   30
 H13
A   31
 H14
A   32
 H15
A   33
 H16
A   34
 H17
A   35
 H18
A   36
 H19
A   37
 H20
M  END
>  <ref_pdb>  (143) 
x0554_0A

>  <ref_mols>  (143) 
x0451_0A

>  <original SMILES>  (143) 
CC(NCc1cn(C)c2ccccc12)C1CC1

>  <rationale>  (143) 
info cluster #2 (rank 15); hydroph_interaction:Y89+Y90+V84; 

>  <cluster_rank>  (143) 
15

>  <N_interactions>  (143) 
3

>  <N_interactions_lost>  (143) 
0

>  <∆∆G>  (143) 
-8.230431

>  <comRMSD>  (143) 
0.799963

>  <N_rotatable_bonds>  (143) 
6

>  <N_unconstrained_atoms>  (143) 
2

>  <N_constrained_atoms>  (143) 
17

$$$$
Z5288630820
     RDKit          3D

 22 23  0  0  0  0  0  0  0  0999 V2000
   11.8780   14.4670   21.9340 C   0  0  0  0  0  0  0  0  0  0  0  0
   10.9100   13.4430   22.2740 N   0  0  0  0  0  0  0  0  0  0  0  0
   10.3800   13.4220   23.5550 C   0  0  0  0  0  0  0  0  0  0  0  0
   10.6490   14.3180   24.3400 O   0  0  0  0  0  0  0  0  0  0  0  0
    9.4430   12.3270   24.0330 C   0  0  0  0  0  0  0  0  0  0  0  0
    8.2540   12.7560   24.8090 C   0  0  0  0  0  0  0  0  0  0  0  0
    7.3570   11.8210   25.2930 C   0  0  0  0  0  0  0  0  0  0  0  0
    7.5700   10.4310   25.0460 C   0  0  0  0  0  0  0  0  0  0  0  0
    6.6870    9.5720   25.5350 F   0  0  0  0  0  0  0  0  0  0  0  0
    8.6620   10.0050   24.3250 C   0  0  0  0  0  0  0  0  0  0  0  0
    9.6160   10.9330   23.8080 C   0  0  0  0  0  0  0  0  0  0  0  0
   10.8720   10.1260   22.9660 S   0  0  0  0  0  0  0  0  0  0  0  0
   10.2530    8.6030   23.2310 C   0  0  0  0  0  0  0  0  0  0  0  0
    8.9920    8.6640   24.0110 C   0  0  0  0  0  0  0  0  0  0  0  0
   12.2350   14.2910   20.9130 H   0  0  0  0  0  0  0  0  0  0  0  0
   11.4280   15.4600   21.9890 H   0  0  0  0  0  0  0  0  0  0  0  0
   12.7260   14.3980   22.6190 H   0  0  0  0  0  0  0  0  0  0  0  0
   10.9320   12.6030   21.6890 H   0  0  0  0  0  0  0  0  0  0  0  0
    8.0610   13.8020   25.0160 H   0  0  0  0  0  0  0  0  0  0  0  0
    6.4890   12.1400   25.8610 H   0  0  0  0  0  0  0  0  0  0  0  0
   10.6350    7.6400   22.9280 H   0  0  0  0  0  0  0  0  0  0  0  0
    8.4880    7.7220   24.2520 H   0  0  0  0  0  0  0  0  0  0  0  0
  1  2  1  0
  2  3  1  0
  3  4  2  0
  3  5  1  0
  5  6  2  0
  6  7  1  0
  7  8  2  0
  8  9  1  0
  8 10  1  0
 10 11  2  0
 11 12  1  0
 12 13  1  0
 13 14  2  0
 11  5  1  0
 14 10  1  0
  1 15  1  0
  1 16  1  0
  1 17  1  0
  2 18  1  0
  6 19  1  0
  7 20  1  0
 13 21  1  0
 14 22  1  0
A    1
 C1 
A    2
 N1 
A    3
 C2 
A    4
 O1 
A    5
 C3 
A    6
 C4 
A    7
 C5 
A    8
 C6 
A    9
 F1 
A   10
 C7 
A   11
 C8 
A   12
 S1 
A   13
 C9 
A   14
 C10
A   15
 H1 
A   16
 H2 
A   17
 H3 
A   18
 H4 
A   19
 H5 
A   20
 H6 
A   21
 H7 
A   22
 H8 
M  END
>  <ref_pdb>  (144) 
x0554_0A

>  <ref_mols>  (144) 
x0451_0A,x0554_0A

>  <original SMILES>  (144) 
CNC(=O)c1ccc(F)c2ccsc12

>  <rationale>  (144) 
info cluster #0 (rank 15); hbond:S125; hydroph_interaction:D109; 

>  <cluster_rank>  (144) 
15

>  <N_interactions>  (144) 
2

>  <N_interactions_lost>  (144) 
1

>  <∆∆G>  (144) 
-6.714526

>  <comRMSD>  (144) 
0.87278

>  <N_rotatable_bonds>  (144) 
2

>  <N_unconstrained_atoms>  (144) 
3

>  <N_constrained_atoms>  (144) 
12

$$$$
Z458902276
     RDKit          3D

 20 21  0  0  0  0  0  0  0  0999 V2000
    5.8000   13.4050   27.7650 N   0  0  0  0  0  0  0  0  0  0  0  0
    5.9260   13.6500   26.4250 C   0  0  0  0  0  0  0  0  0  0  0  0
    5.2730   14.5330   25.8870 O   0  0  0  0  0  0  0  0  0  0  0  0
    6.9170   12.7300   25.7530 C   0  0  0  0  0  0  0  0  0  0  0  0
    6.9430   11.3810   25.9070 C   0  0  0  0  0  0  0  0  0  0  0  0
    5.9270   10.3780   26.8340 Cl  0  0  0  0  0  0  0  0  0  0  0  0
    8.0430   10.9880   25.0900 C   0  0  0  0  0  0  0  0  0  0  0  0
    8.5550    9.6490   24.8710 C   0  0  0  0  0  0  0  0  0  0  0  0
    9.6370    9.4230   24.0230 C   0  0  0  0  0  0  0  0  0  0  0  0
   10.2670   10.6200   23.3480 C   0  0  0  0  0  0  0  0  0  0  0  0
    9.7570   11.9030   23.5900 C   0  0  0  0  0  0  0  0  0  0  0  0
    8.6760   12.0600   24.4380 C   0  0  0  0  0  0  0  0  0  0  0  0
    8.0070   13.1770   24.8250 N   0  0  0  0  0  0  0  0  0  0  0  0
    5.4210   12.5120   28.0490 H   0  0  0  0  0  0  0  0  0  0  0  0
    5.7270   14.1960   28.3960 H   0  0  0  0  0  0  0  0  0  0  0  0
    8.0940    8.8170   25.3700 H   0  0  0  0  0  0  0  0  0  0  0  0
   10.0150    8.4180   23.8540 H   0  0  0  0  0  0  0  0  0  0  0  0
   11.1120   10.4840   22.6810 H   0  0  0  0  0  0  0  0  0  0  0  0
   10.2110   12.7620   23.1090 H   0  0  0  0  0  0  0  0  0  0  0  0
    8.1870   14.1330   24.5540 H   0  0  0  0  0  0  0  0  0  0  0  0
  1  2  1  0
  2  3  2  0
  2  4  1  0
  4  5  2  0
  5  6  1  0
  5  7  1  0
  7  8  2  0
  8  9  1  0
  9 10  2  0
 10 11  1  0
 11 12  2  0
 12 13  1  0
 13  4  1  0
 12  7  1  0
  1 14  1  0
  1 15  1  0
  8 16  1  0
  9 17  1  0
 10 18  1  0
 11 19  1  0
 13 20  1  0
A    1
 N1 
A    2
 C1 
A    3
 O1 
A    4
 C2 
A    5
 C3 
A    6
CL1 
A    7
 C4 
A    8
 C5 
A    9
 C6 
A   10
 C7 
A   11
 C8 
A   12
 C9 
A   13
 N2 
A   14
 H1 
A   15
 H2 
A   16
 H3 
A   17
 H4 
A   18
 H5 
A   19
 H6 
A   20
 H7 
M  END
>  <ref_pdb>  (145) 
x0554_0A

>  <ref_mols>  (145) 
x0554_0A,x0416_0A

>  <original SMILES>  (145) 
NC(=O)c1[nH]c2ccccc2c1Cl

>  <rationale>  (145) 
info cluster #6 (rank 15); halogenbond:S105; 

>  <cluster_rank>  (145) 
15

>  <N_interactions>  (145) 
1

>  <N_interactions_lost>  (145) 
0

>  <∆∆G>  (145) 
-4.267307

>  <comRMSD>  (145) 
0.622671

>  <N_rotatable_bonds>  (145) 
1

>  <N_unconstrained_atoms>  (145) 
2

>  <N_constrained_atoms>  (145) 
12

$$$$
Z1688526979
     RDKit          3D

 29 29  0  0  0  0  0  0  0  0999 V2000
    6.4740   10.4230   26.0090 C   0  0  0  0  0  0  0  0  0  0  0  0
    7.6650   10.5710   25.1070 C   0  0  0  0  0  0  0  0  0  0  0  0
    8.3500    9.3650   24.5940 C   0  0  0  0  0  0  0  0  0  0  0  0
    9.4290    9.4810   23.7660 C   0  0  0  0  0  0  0  0  0  0  0  0
   10.2380    8.4700   23.1440 C   0  0  0  0  0  0  0  0  0  0  0  0
    9.8500   10.7400   23.4460 C   0  0  0  0  0  0  0  0  0  0  0  0
    9.2660   11.8990   23.8930 C   0  0  0  0  0  0  0  0  0  0  0  0
    9.7870   13.0620   23.5080 N   0  0  0  0  0  0  0  0  0  0  0  0
    8.9750   13.9230   22.6820 C   0  0  0  0  0  0  0  0  0  0  0  0
   11.0500   13.5000   23.8750 C   0  0  0  0  0  0  0  0  0  0  0  0
   11.3110   13.6940   25.0570 O   0  0  0  0  0  0  0  0  0  0  0  0
   12.0960   13.7300   22.8150 C   0  0  0  0  0  0  0  0  0  0  0  0
   11.7910   15.1120   22.3230 C   0  0  0  0  0  0  0  0  0  0  0  0
   11.5560   16.2040   22.0250 N   0  0  0  0  0  0  0  0  0  0  0  0
    8.1550   11.8200   24.7320 C   0  0  0  0  0  0  0  0  0  0  0  0
    6.0120   11.3980   26.1710 H   0  0  0  0  0  0  0  0  0  0  0  0
    6.7570   10.0160   26.9760 H   0  0  0  0  0  0  0  0  0  0  0  0
    5.7520    9.7530   25.5470 H   0  0  0  0  0  0  0  0  0  0  0  0
    8.0020    8.3830   24.8710 H   0  0  0  0  0  0  0  0  0  0  0  0
   10.5910    8.8560   22.1900 H   0  0  0  0  0  0  0  0  0  0  0  0
   11.0750    8.2440   23.7830 H   0  0  0  0  0  0  0  0  0  0  0  0
    9.6970    7.5370   22.9770 H   0  0  0  0  0  0  0  0  0  0  0  0
   10.7130   10.8860   22.7870 H   0  0  0  0  0  0  0  0  0  0  0  0
    9.3800   14.0170   21.6710 H   0  0  0  0  0  0  0  0  0  0  0  0
    8.9280   14.9250   23.1150 H   0  0  0  0  0  0  0  0  0  0  0  0
    7.9700   13.4920   22.6210 H   0  0  0  0  0  0  0  0  0  0  0  0
   13.1040   13.7220   23.2310 H   0  0  0  0  0  0  0  0  0  0  0  0
   12.0030   12.9930   22.0180 H   0  0  0  0  0  0  0  0  0  0  0  0
    7.6640   12.7170   25.1030 H   0  0  0  0  0  0  0  0  0  0  0  0
  1  2  1  0
  2  3  2  0
  3  4  1  0
  4  5  1  0
  4  6  2  0
  6  7  1  0
  7  8  1  0
  8  9  1  0
  8 10  1  0
 10 11  2  0
 10 12  1  0
 12 13  1  0
 13 14  3  0
  7 15  2  0
 15  2  1  0
  1 16  1  0
  1 17  1  0
  1 18  1  0
  3 19  1  0
  5 20  1  0
  5 21  1  0
  5 22  1  0
  6 23  1  0
  9 24  1  0
  9 25  1  0
  9 26  1  0
 12 27  1  0
 12 28  1  0
 15 29  1  0
A    1
 C1 
A    2
 C2 
A    3
 C3 
A    4
 C4 
A    5
 C5 
A    6
 C6 
A    7
 C7 
A    8
 N1 
A    9
 C8 
A   10
 C9 
A   11
 O1 
A   12
 C10
A   13
 C11
A   14
 N2 
A   15
 C12
A   16
 H1 
A   17
 H2 
A   18
 H3 
A   19
 H4 
A   20
 H5 
A   21
 H6 
A   22
 H7 
A   23
 H8 
A   24
 H9 
A   25
 H10
A   26
 H11
A   27
 H12
A   28
 H13
A   29
 H14
M  END
>  <ref_pdb>  (146) 
x0554_0A

>  <ref_mols>  (146) 
x0566_0A,x0310_0A

>  <original SMILES>  (146) 
Cc1cc(C)cc(N(C)C(=O)CC#N)c1

>  <rationale>  (146) 
info cluster #7 (rank 15); hbond:S87; hydroph_interaction:Y89+D109+V124; 

>  <cluster_rank>  (146) 
15

>  <N_interactions>  (146) 
4

>  <N_interactions_lost>  (146) 
2

>  <∆∆G>  (146) 
-8.99698

>  <comRMSD>  (146) 
0.914483

>  <N_rotatable_bonds>  (146) 
5

>  <N_unconstrained_atoms>  (146) 
1

>  <N_constrained_atoms>  (146) 
16

$$$$
PV_002200253723
     RDKit          3D

 22 22  0  0  0  0  0  0  0  0999 V2000
    6.2420   11.4760   26.3520 C   0  0  0  0  0  0  0  0  0  0  0  0
    7.4280   11.2460   25.4390 C   0  0  0  0  0  0  0  0  0  0  0  0
    7.8410    9.7910   25.4120 C   0  0  0  0  0  0  0  0  0  0  0  0
    9.0030    9.4880   24.5190 C   0  0  0  0  0  0  0  0  0  0  0  0
    9.6730   10.5440   23.7470 C   0  0  0  0  0  0  0  0  0  0  0  0
   10.7990   10.1070   22.9200 C   0  0  0  0  0  0  0  0  0  0  0  0
    9.1920   11.8600   23.8680 C   0  0  0  0  0  0  0  0  0  0  0  0
    9.8310   13.0310   23.1030 C   0  0  0  0  0  0  0  0  0  0  0  0
    9.0080   13.9970   22.5740 N   0  0  0  0  0  0  0  0  0  0  0  0
   11.1910   13.0800   22.9670 O   0  0  0  0  0  0  0  0  0  0  0  0
    8.0990   12.2010   24.6900 C   0  0  0  0  0  0  0  0  0  0  0  0
    5.6260   10.5730   26.4300 H   0  0  0  0  0  0  0  0  0  0  0  0
    6.5580   11.7630   27.3620 H   0  0  0  0  0  0  0  0  0  0  0  0
    5.5960   12.2690   25.9610 H   0  0  0  0  0  0  0  0  0  0  0  0
    7.3310    9.0380   25.9900 H   0  0  0  0  0  0  0  0  0  0  0  0
    9.3430    8.4590   24.4550 H   0  0  0  0  0  0  0  0  0  0  0  0
   10.4230    9.6910   21.9860 H   0  0  0  0  0  0  0  0  0  0  0  0
   11.3940   10.9800   22.6600 H   0  0  0  0  0  0  0  0  0  0  0  0
   11.4700    9.3750   23.3600 H   0  0  0  0  0  0  0  0  0  0  0  0
    8.0730   14.0400   22.9650 H   0  0  0  0  0  0  0  0  0  0  0  0
    9.3890   14.8470   22.1770 H   0  0  0  0  0  0  0  0  0  0  0  0
    7.7650   13.2420   24.7420 H   0  0  0  0  0  0  0  0  0  0  0  0
  1  2  1  0
  2  3  2  0
  3  4  1  0
  4  5  2  0
  5  6  1  0
  5  7  1  0
  7  8  1  0
  8  9  1  0
  8 10  2  0
  7 11  2  0
 11  2  1  0
  1 12  1  0
  1 13  1  0
  1 14  1  0
  3 15  1  0
  4 16  1  0
  6 17  1  0
  6 18  1  0
  6 19  1  0
  9 20  1  0
  9 21  1  0
 11 22  1  0
A    1
 C1 
A    2
 C2 
A    3
 C3 
A    4
 C4 
A    5
 C5 
A    6
 C6 
A    7
 C7 
A    8
 C8 
A    9
 N1 
A   10
 O1 
A   11
 C9 
A   12
 H1 
A   13
 H2 
A   14
 H3 
A   15
 H4 
A   16
 H5 
A   17
 H6 
A   18
 H7 
A   19
 H8 
A   20
 H9 
A   21
 H10
A   22
 H11
M  END
>  <ref_pdb>  (147) 
x0554_0A

>  <ref_mols>  (147) 
x0566_0A,x0310_0A

>  <original SMILES>  (147) 
Cc1ccc(C)c(C(N)=O)c1

>  <rationale>  (147) 
info cluster #1 (rank 15); hbond:T126; hydroph_interaction:A110; 

>  <cluster_rank>  (147) 
15

>  <N_interactions>  (147) 
2

>  <N_interactions_lost>  (147) 
0

>  <∆∆G>  (147) 
-5.276678

>  <comRMSD>  (147) 
0.871093

>  <N_rotatable_bonds>  (147) 
3

>  <N_unconstrained_atoms>  (147) 
1

>  <N_constrained_atoms>  (147) 
13

$$$$
Z2783954099
     RDKit          3D

 27 27  0  0  0  0  0  0  0  0999 V2000
   11.7340   15.0990   19.4850 C   0  0  0  0  0  0  0  0  0  0  0  0
   11.1730   15.4610   20.8400 C   0  0  1  0  0  0  0  0  0  0  0  0
   10.3780   16.7140   20.7840 N   0  0  0  0  0  0  0  0  0  0  0  0
   10.3550   14.3570   21.4630 C   0  0  0  0  0  0  0  0  0  0  0  0
   10.7950   13.8930   22.8550 C   0  0  0  0  0  0  0  0  0  0  0  0
   10.9980   14.6660   23.7850 O   0  0  0  0  0  0  0  0  0  0  0  0
   10.9290   12.4320   22.8860 N   0  0  0  0  0  0  0  0  0  0  0  0
   10.0160   11.5920   23.5640 C   0  0  0  0  0  0  0  0  0  0  0  0
   10.0720   10.1980   23.3490 C   0  0  0  0  0  0  0  0  0  0  0  0
    9.2050    9.3190   23.9970 C   0  0  0  0  0  0  0  0  0  0  0  0
    8.2220    9.9340   24.9280 C   0  0  0  0  0  0  0  0  0  0  0  0
    8.1630   11.2880   25.1290 C   0  0  0  0  0  0  0  0  0  0  0  0
    9.0560   12.1190   24.4500 C   0  0  0  0  0  0  0  0  0  0  0  0
   12.8230   15.0820   19.5230 H   0  0  0  0  0  0  0  0  0  0  0  0
   11.3840   14.0980   19.2140 H   0  0  0  0  0  0  0  0  0  0  0  0
   11.4180   15.8060   18.7170 H   0  0  0  0  0  0  0  0  0  0  0  0
   12.0340   15.6030   21.5100 H   0  0  0  0  0  0  0  0  0  0  0  0
   10.5880   17.2930   21.6040 H   0  0  0  0  0  0  0  0  0  0  0  0
    9.3840   16.4990   20.8580 H   0  0  0  0  0  0  0  0  0  0  0  0
    9.3020   14.6450   21.5550 H   0  0  0  0  0  0  0  0  0  0  0  0
   10.4040   13.5160   20.7880 H   0  0  0  0  0  0  0  0  0  0  0  0
   11.0870   12.0710   21.9330 H   0  0  0  0  0  0  0  0  0  0  0  0
   10.8010    9.7750   22.6670 H   0  0  0  0  0  0  0  0  0  0  0  0
    9.2420    8.2460   23.8400 H   0  0  0  0  0  0  0  0  0  0  0  0
    7.5560    9.2440   25.4410 H   0  0  0  0  0  0  0  0  0  0  0  0
    7.4310   11.7150   25.8110 H   0  0  0  0  0  0  0  0  0  0  0  0
    8.9990   13.1880   24.6220 H   0  0  0  0  0  0  0  0  0  0  0  0
  1  2  1  0
  2  3  1  0
  2  4  1  0
  4  5  1  0
  5  6  2  0
  5  7  1  0
  7  8  1  0
  8  9  2  0
  9 10  1  0
 10 11  2  0
 11 12  1  0
 12 13  2  0
 13  8  1  0
  1 14  1  0
  1 15  1  0
  1 16  1  0
  2 17  1  1
  3 18  1  0
  3 19  1  0
  4 20  1  0
  4 21  1  0
  7 22  1  0
  9 23  1  0
 10 24  1  0
 11 25  1  0
 12 26  1  0
 13 27  1  0
A    1
 C1 
A    2
 C2 
A    3
 N1 
A    4
 C3 
A    5
 C4 
A    6
 O1 
A    7
 N2 
A    8
 C5 
A    9
 C6 
A   10
 C7 
A   11
 C8 
A   12
 C9 
A   13
 C10
A   14
 H1 
A   15
 H2 
A   16
 H3 
A   17
 H4 
A   18
 H5 
A   19
 H6 
A   20
 H7 
A   21
 H8 
A   22
 H9 
A   23
 H10
A   24
 H11
A   25
 H12
A   26
 H13
A   27
 H14
M  END
>  <ref_pdb>  (148) 
x0554_0A

>  <ref_mols>  (148) 
x0554_0A

>  <original SMILES>  (148) 
C[C@@H](N)CC(=O)Nc1ccccc1

>  <rationale>  (148) 
info cluster #3 (rank 15); hbond:S87+S125; hydroph_interaction:Y90; 

>  <cluster_rank>  (148) 
15

>  <N_interactions>  (148) 
4

>  <N_interactions_lost>  (148) 
2

>  <∆∆G>  (148) 
-8.090734

>  <comRMSD>  (148) 
0.890473

>  <N_rotatable_bonds>  (148) 
5

>  <N_unconstrained_atoms>  (148) 
2

>  <N_constrained_atoms>  (148) 
13

$$$$
Z4226022352
     RDKit          3D

 42 43  0  0  0  0  0  0  0  0999 V2000
   11.2100   14.7110   20.0270 C   0  0  0  0  0  0  0  0  0  0  0  0
   10.2050   15.1850   20.9400 O   0  0  0  0  0  0  0  0  0  0  0  0
   10.5650   15.1260   22.2590 C   0  0  0  0  0  0  0  0  0  0  0  0
   11.0050   16.0860   22.8550 O   0  0  0  0  0  0  0  0  0  0  0  0
   10.3940   13.8540   22.9820 C   0  0  0  0  0  0  0  0  0  0  0  0
    9.1670   13.8110   23.6470 C   0  0  0  0  0  0  0  0  0  0  0  0
    8.8420   12.5540   24.1080 C   0  0  0  0  0  0  0  0  0  0  0  0
    9.5940   11.4000   23.5790 C   0  0  0  0  0  0  0  0  0  0  0  0
    9.2500   10.0490   24.0710 C   0  0  0  0  0  0  0  0  0  0  0  0
    9.9550    8.8340   23.5800 C   0  0  0  0  0  0  0  0  0  0  0  0
    8.1470   10.0070   25.0950 C   0  0  0  0  0  0  0  0  0  0  0  0
    7.4830   11.0970   25.5450 N   0  0  0  0  0  0  0  0  0  0  0  0
    7.8120   12.3390   25.0710 C   0  0  0  0  0  0  0  0  0  0  0  0
    7.0990   13.4520   25.5640 N   0  0  0  0  0  0  0  0  0  0  0  0
    5.6990   13.5030   25.9580 C   0  0  0  0  0  0  0  0  0  0  0  0
    5.2470   12.2250   26.6540 C   0  0  0  0  0  0  0  0  0  0  0  0
    6.0340   11.9040   27.9020 C   0  0  0  0  0  0  0  0  0  0  0  0
    5.4780   12.6660   29.0970 C   0  0  0  0  0  0  0  0  0  0  0  0
    3.9630   12.5440   29.0340 C   0  0  0  0  0  0  0  0  0  0  0  0
    3.5310   12.3300   27.2850 S   0  0  0  0  0  0  0  0  0  0  0  0
   11.9010   14.0320   20.5370 H   0  0  0  0  0  0  0  0  0  0  0  0
   11.7920   15.5460   19.6220 H   0  0  0  0  0  0  0  0  0  0  0  0
   10.7160   14.2030   19.1940 H   0  0  0  0  0  0  0  0  0  0  0  0
   11.2230   13.6200   23.6470 H   0  0  0  0  0  0  0  0  0  0  0  0
   10.4930   13.0890   22.2100 H   0  0  0  0  0  0  0  0  0  0  0  0
    9.1960   14.4950   24.4960 H   0  0  0  0  0  0  0  0  0  0  0  0
    8.3770   14.1270   22.9570 H   0  0  0  0  0  0  0  0  0  0  0  0
   10.3800   11.5360   22.8460 H   0  0  0  0  0  0  0  0  0  0  0  0
    9.2950    7.9600   23.6210 H   0  0  0  0  0  0  0  0  0  0  0  0
   10.8490    8.6390   24.1810 H   0  0  0  0  0  0  0  0  0  0  0  0
   10.2830    8.9640   22.5440 H   0  0  0  0  0  0  0  0  0  0  0  0
    7.8910    9.0270   25.4810 H   0  0  0  0  0  0  0  0  0  0  0  0
    7.6700   13.9290   26.2610 H   0  0  0  0  0  0  0  0  0  0  0  0
    5.5250   14.3620   26.6150 H   0  0  0  0  0  0  0  0  0  0  0  0
    5.0760   13.6430   25.0680 H   0  0  0  0  0  0  0  0  0  0  0  0
    5.2830   11.3890   25.9700 H   0  0  0  0  0  0  0  0  0  0  0  0
    7.0850   12.0370   27.6790 H   0  0  0  0  0  0  0  0  0  0  0  0
    5.9130   10.8320   28.0930 H   0  0  0  0  0  0  0  0  0  0  0  0
    5.7790   13.7210   29.0440 H   0  0  0  0  0  0  0  0  0  0  0  0
    5.8660   12.2630   30.0390 H   0  0  0  0  0  0  0  0  0  0  0  0
    3.4720   13.4270   29.4500 H   0  0  0  0  0  0  0  0  0  0  0  0
    3.6220   11.6630   29.5860 H   0  0  0  0  0  0  0  0  0  0  0  0
  1  2  1  0
  2  3  1  0
  3  4  2  0
  3  5  1  0
  5  6  1  0
  6  7  1  0
  7  8  2  0
  8  9  1  0
  9 10  1  0
  9 11  2  0
 11 12  1  0
 12 13  2  0
 13 14  1  0
 14 15  1  0
 15 16  1  0
 16 17  1  0
 17 18  1  0
 18 19  1  0
 19 20  1  0
 13  7  1  0
 20 16  1  0
  1 21  1  0
  1 22  1  0
  1 23  1  0
  5 24  1  0
  5 25  1  0
  6 26  1  0
  6 27  1  0
  8 28  1  0
 10 29  1  0
 10 30  1  0
 10 31  1  0
 11 32  1  0
 14 33  1  0
 15 34  1  0
 15 35  1  0
 16 36  1  0
 17 37  1  0
 17 38  1  0
 18 39  1  0
 18 40  1  0
 19 41  1  0
 19 42  1  0
A    1
 C1 
A    2
 O1 
A    3
 C2 
A    4
 O2 
A    5
 C3 
A    6
 C4 
A    7
 C5 
A    8
 C6 
A    9
 C7 
A   10
 C8 
A   11
 C9 
A   12
 N1 
A   13
 C10
A   14
 N2 
A   15
 C11
A   16
 C12
A   17
 C13
A   18
 C14
A   19
 C15
A   20
 S1 
A   21
 H1 
A   22
 H2 
A   23
 H3 
A   24
 H4 
A   25
 H5 
A   26
 H6 
A   27
 H7 
A   28
 H8 
A   29
 H9 
A   30
 H10
A   31
 H11
A   32
 H12
A   33
 H13
A   34
 H14
A   35
 H15
A   36
 H16
A   37
 H17
A   38
 H18
A   39
 H19
A   40
 H20
A   41
 H21
A   42
 H22
M  END
>  <ref_pdb>  (149) 
x0554_0A

>  <ref_mols>  (149) 
x0416_0A

>  <original SMILES>  (149) 
COC(=O)CCc1cc(C)cnc1NCC1CCCS1

>  <rationale>  (149) 
info cluster #4 (rank 15); hbond:S87; hydroph_interaction:P107+D109+V124; saltbridge:H21; 

>  <cluster_rank>  (149) 
15

>  <N_interactions>  (149) 
5

>  <N_interactions_lost>  (149) 
1

>  <∆∆G>  (149) 
-7.431845

>  <comRMSD>  (149) 
0.567281

>  <N_rotatable_bonds>  (149) 
8

>  <N_unconstrained_atoms>  (149) 
2

>  <N_constrained_atoms>  (149) 
19

$$$$
Z4427077037
     RDKit          3D

 35 36  0  0  0  0  0  0  0  0999 V2000
   10.5860   14.9850   19.2100 C   0  0  0  0  0  0  0  0  0  0  0  0
   10.4080   15.0660   20.6950 C   0  0  0  0  0  0  0  0  0  0  0  0
   10.1670   16.3590   21.1260 N   0  0  0  0  0  0  0  0  0  0  0  0
   11.6690   14.4510   21.3050 C   0  0  0  0  0  0  0  0  0  0  0  0
   12.5200   15.4920   21.9920 C   0  0  0  0  0  0  0  0  0  0  0  0
   11.4020   13.3950   22.2960 N   0  0  0  0  0  0  0  0  0  0  0  0
   10.2940   13.6990   23.1820 C   0  0  0  0  0  0  0  0  0  0  0  0
    9.6930   12.3930   23.7230 C   0  0  0  0  0  0  0  0  0  0  0  0
   10.2660   11.0530   23.2980 C   0  0  0  0  0  0  0  0  0  0  0  0
    9.5070   10.1210   23.9570 N   0  0  0  0  0  0  0  0  0  0  0  0
    8.5340   10.7400   24.7420 C   0  0  0  0  0  0  0  0  0  0  0  0
    7.4880   10.1650   25.6360 C   0  0  0  0  0  0  0  0  0  0  0  0
    6.6440   10.9520   26.2980 C   0  0  0  0  0  0  0  0  0  0  0  0
    6.7540   12.3190   26.1500 C   0  0  0  0  0  0  0  0  0  0  0  0
    7.7120   12.9220   25.3370 C   0  0  0  0  0  0  0  0  0  0  0  0
    8.6280   12.1310   24.6100 C   0  0  0  0  0  0  0  0  0  0  0  0
    9.6660   15.2480   18.6790 H   0  0  0  0  0  0  0  0  0  0  0  0
   10.8880   13.9700   18.9390 H   0  0  0  0  0  0  0  0  0  0  0  0
   11.3670   15.6890   18.9050 H   0  0  0  0  0  0  0  0  0  0  0  0
    9.5310   14.4600   20.9430 H   0  0  0  0  0  0  0  0  0  0  0  0
   10.2370   16.9970   20.3360 H   0  0  0  0  0  0  0  0  0  0  0  0
    9.2060   16.4230   21.4650 H   0  0  0  0  0  0  0  0  0  0  0  0
   12.2810   14.0510   20.4860 H   0  0  0  0  0  0  0  0  0  0  0  0
   11.8920   16.2730   22.4330 H   0  0  0  0  0  0  0  0  0  0  0  0
   13.1990   15.9690   21.2790 H   0  0  0  0  0  0  0  0  0  0  0  0
   13.1230   15.0460   22.7810 H   0  0  0  0  0  0  0  0  0  0  0  0
   11.1990   12.5530   21.7400 H   0  0  0  0  0  0  0  0  0  0  0  0
    9.5200   14.2600   22.6460 H   0  0  0  0  0  0  0  0  0  0  0  0
   10.6170   14.3190   24.0240 H   0  0  0  0  0  0  0  0  0  0  0  0
   11.0760   10.7780   22.6410 H   0  0  0  0  0  0  0  0  0  0  0  0
    9.6340    9.1220   23.8880 H   0  0  0  0  0  0  0  0  0  0  0  0
    7.4090    9.1070   25.7580 H   0  0  0  0  0  0  0  0  0  0  0  0
    5.8830   10.5220   26.9450 H   0  0  0  0  0  0  0  0  0  0  0  0
    6.0580   12.9650   26.6980 H   0  0  0  0  0  0  0  0  0  0  0  0
    7.6870   14.0150   25.3150 H   0  0  0  0  0  0  0  0  0  0  0  0
  1  2  1  0
  2  3  1  0
  2  4  1  0
  4  5  1  0
  4  6  1  0
  6  7  1  0
  7  8  1  0
  8  9  2  0
  9 10  1  0
 10 11  1  0
 11 12  2  0
 12 13  1  0
 13 14  2  0
 14 15  1  0
 15 16  2  0
 16  8  1  0
 16 11  1  0
  1 17  1  0
  1 18  1  0
  1 19  1  0
  2 20  1  0
  3 21  1  0
  3 22  1  0
  4 23  1  0
  5 24  1  0
  5 25  1  0
  5 26  1  0
  6 27  1  0
  7 28  1  0
  7 29  1  0
  9 30  1  0
 10 31  1  0
 12 32  1  0
 13 33  1  0
 14 34  1  0
 15 35  1  0
A    1
 C1 
A    2
 C2 
A    3
 N1 
A    4
 C3 
A    5
 C4 
A    6
 N2 
A    7
 C5 
A    8
 C6 
A    9
 C7 
A   10
 N3 
A   11
 C8 
A   12
 C9 
A   13
 C10
A   14
 C11
A   15
 C12
A   16
 C13
A   17
 H1 
A   18
 H2 
A   19
 H3 
A   20
 H4 
A   21
 H5 
A   22
 H6 
A   23
 H7 
A   24
 H8 
A   25
 H9 
A   26
 H10
A   27
 H11
A   28
 H12
A   29
 H13
A   30
 H14
A   31
 H15
A   32
 H16
A   33
 H17
A   34
 H18
A   35
 H19
M  END
>  <ref_pdb>  (150) 
x0554_0A

>  <ref_mols>  (150) 
x0451_0A

>  <original SMILES>  (150) 
CC(N)C(C)NCc1c[nH]c2ccccc12

>  <rationale>  (150) 
info cluster #9 (rank 15); hbond:H21+S87; hydroph_interaction:Y89; 

>  <cluster_rank>  (150) 
15

>  <N_interactions>  (150) 
3

>  <N_interactions_lost>  (150) 
1

>  <∆∆G>  (150) 
-7.531891

>  <comRMSD>  (150) 
0.752878

>  <N_rotatable_bonds>  (150) 
7

>  <N_unconstrained_atoms>  (150) 
1

>  <N_constrained_atoms>  (150) 
18

$$$$
Z198195790
     RDKit          3D

 24 24  0  0  0  0  0  0  0  0999 V2000
   11.1270   12.3000   23.1160 C   0  0  0  0  0  0  0  0  0  0  0  0
   10.0700   11.3640   23.6570 C   0  0  0  0  0  0  0  0  0  0  0  0
    9.9610    9.9270   23.2120 C   0  0  0  0  0  0  0  0  0  0  0  0
    8.9420    9.1600   23.7820 C   0  0  0  0  0  0  0  0  0  0  0  0
    8.7920    7.6970   23.3510 C   0  0  0  0  0  0  0  0  0  0  0  0
    8.0540    9.7240   24.7420 C   0  0  0  0  0  0  0  0  0  0  0  0
    8.1200   11.0520   25.1760 C   0  0  0  0  0  0  0  0  0  0  0  0
    7.2520   11.6280   26.1040 N   0  0  0  0  0  0  0  0  0  0  0  0
    6.9870   12.9620   26.0920 C   0  0  0  0  0  0  0  0  0  0  0  0
    7.0700   13.4590   24.7230 N   0  0  0  0  0  0  0  0  0  0  0  0
    6.7060   13.7160   27.0150 O   0  0  0  0  0  0  0  0  0  0  0  0
    9.0950   11.9090   24.6750 C   0  0  0  0  0  0  0  0  0  0  0  0
   10.7410   12.9110   22.2940 H   0  0  0  0  0  0  0  0  0  0  0  0
   11.9870   11.7530   22.7260 H   0  0  0  0  0  0  0  0  0  0  0  0
   11.4660   12.9830   23.8980 H   0  0  0  0  0  0  0  0  0  0  0  0
   10.6380    9.4940   22.4760 H   0  0  0  0  0  0  0  0  0  0  0  0
    9.7260    7.3370   22.9560 H   0  0  0  0  0  0  0  0  0  0  0  0
    8.0400    7.5840   22.5640 H   0  0  0  0  0  0  0  0  0  0  0  0
    8.5150    7.0860   24.2100 H   0  0  0  0  0  0  0  0  0  0  0  0
    7.2860    9.0900   25.1530 H   0  0  0  0  0  0  0  0  0  0  0  0
    6.4720   11.0600   26.3950 H   0  0  0  0  0  0  0  0  0  0  0  0
    6.4580   12.9580   24.0750 H   0  0  0  0  0  0  0  0  0  0  0  0
    6.9500   14.4610   24.6870 H   0  0  0  0  0  0  0  0  0  0  0  0
    9.1600   12.9430   24.9980 H   0  0  0  0  0  0  0  0  0  0  0  0
  1  2  1  0
  2  3  2  0
  3  4  1  0
  4  5  1  0
  4  6  2  0
  6  7  1  0
  7  8  1  0
  8  9  1  0
  9 10  1  0
  9 11  2  0
  7 12  2  0
 12  2  1  0
  1 13  1  0
  1 14  1  0
  1 15  1  0
  3 16  1  0
  5 17  1  0
  5 18  1  0
  5 19  1  0
  6 20  1  0
  8 21  1  0
 10 22  1  0
 10 23  1  0
 12 24  1  0
A    1
 C1 
A    2
 C2 
A    3
 C3 
A    4
 C4 
A    5
 C5 
A    6
 C6 
A    7
 C7 
A    8
 N1 
A    9
 C8 
A   10
 N2 
A   11
 O1 
A   12
 C9 
A   13
 H1 
A   14
 H2 
A   15
 H3 
A   16
 H4 
A   17
 H5 
A   18
 H6 
A   19
 H7 
A   20
 H8 
A   21
 H9 
A   22
 H10
A   23
 H11
A   24
 H12
M  END
>  <ref_pdb>  (151) 
x0554_0A

>  <ref_mols>  (151) 
x0554_0A,x0310_0A

>  <original SMILES>  (151) 
Cc1cc(C)cc(NC(N)=O)c1

>  <rationale>  (151) 
info cluster #8 (rank 16); hbond:G127; hydroph_interaction:D109+V124; 

>  <cluster_rank>  (151) 
16

>  <N_interactions>  (151) 
3

>  <N_interactions_lost>  (151) 
0

>  <∆∆G>  (151) 
-7.580252

>  <comRMSD>  (151) 
0.733362

>  <N_rotatable_bonds>  (151) 
3

>  <N_unconstrained_atoms>  (151) 
2

>  <N_constrained_atoms>  (151) 
12

$$$$
PV_002796953223
     RDKit          3D

 24 24  0  0  0  0  0  0  0  0999 V2000
   11.8520   14.2380   22.3700 C   0  0  0  0  0  0  0  0  0  0  0  0
   11.1130   13.4900   23.4650 C   0  0  0  0  0  0  0  0  0  0  0  0
   11.0590   13.9400   24.6010 O   0  0  0  0  0  0  0  0  0  0  0  0
   10.5500   12.3100   23.0270 N   0  0  0  0  0  0  0  0  0  0  0  0
    9.5980   11.4920   23.6990 C   0  0  0  0  0  0  0  0  0  0  0  0
    8.5310   11.9990   24.4430 C   0  0  0  0  0  0  0  0  0  0  0  0
    8.2950   13.4960   24.5840 C   0  0  0  0  0  0  0  0  0  0  0  0
    7.6140   11.2370   25.1010 N   0  0  0  0  0  0  0  0  0  0  0  0
    7.7370    9.9080   25.0270 C   0  0  0  0  0  0  0  0  0  0  0  0
    8.7390    9.2950   24.3220 C   0  0  0  0  0  0  0  0  0  0  0  0
    9.6590   10.0940   23.6680 C   0  0  0  0  0  0  0  0  0  0  0  0
   10.6320    9.1780   22.9950 C   0  0  0  0  0  0  0  0  0  0  0  0
   11.2980   15.1310   22.0590 H   0  0  0  0  0  0  0  0  0  0  0  0
   12.8370   14.5570   22.7250 H   0  0  0  0  0  0  0  0  0  0  0  0
   11.9980   13.6100   21.4880 H   0  0  0  0  0  0  0  0  0  0  0  0
   10.8110   11.9870   22.0870 H   0  0  0  0  0  0  0  0  0  0  0  0
    8.7320   14.0290   23.7320 H   0  0  0  0  0  0  0  0  0  0  0  0
    7.2230   13.7120   24.6420 H   0  0  0  0  0  0  0  0  0  0  0  0
    8.7630   13.8820   25.4950 H   0  0  0  0  0  0  0  0  0  0  0  0
    6.9800    9.3340   25.5690 H   0  0  0  0  0  0  0  0  0  0  0  0
    8.8110    8.2110   24.2810 H   0  0  0  0  0  0  0  0  0  0  0  0
   11.5670    9.1840   23.5400 H   0  0  0  0  0  0  0  0  0  0  0  0
   10.7810    9.4610   21.9520 H   0  0  0  0  0  0  0  0  0  0  0  0
   10.2730    8.1430   23.0190 H   0  0  0  0  0  0  0  0  0  0  0  0
  1  2  1  0
  2  3  2  0
  2  4  1  0
  4  5  1  0
  5  6  2  0
  6  7  1  0
  6  8  1  0
  8  9  2  0
  9 10  1  0
 10 11  2  0
 11 12  1  0
 11  5  1  0
  1 13  1  0
  1 14  1  0
  1 15  1  0
  4 16  1  0
  7 17  1  0
  7 18  1  0
  7 19  1  0
  9 20  1  0
 10 21  1  0
 12 22  1  0
 12 23  1  0
 12 24  1  0
A    1
 C1 
A    2
 C2 
A    3
 O1 
A    4
 N1 
A    5
 C3 
A    6
 C4 
A    7
 C5 
A    8
 N2 
A    9
 C6 
A   10
 C7 
A   11
 C8 
A   12
 C9 
A   13
 H1 
A   14
 H2 
A   15
 H3 
A   16
 H4 
A   17
 H5 
A   18
 H6 
A   19
 H7 
A   20
 H8 
A   21
 H9 
A   22
 H10
A   23
 H11
A   24
 H12
M  END
>  <ref_pdb>  (152) 
x0554_0A

>  <ref_mols>  (152) 
x0554_0A,x0310_0A

>  <original SMILES>  (152) 
CC(=O)Nc1c(C)ccnc1C

>  <rationale>  (152) 
info cluster #5 (rank 16); hbond:S125; hydroph_interaction:Y89+A110+V124; 

>  <cluster_rank>  (152) 
16

>  <N_interactions>  (152) 
4

>  <N_interactions_lost>  (152) 
2

>  <∆∆G>  (152) 
-7.903374

>  <comRMSD>  (152) 
0.660126

>  <N_rotatable_bonds>  (152) 
4

>  <N_unconstrained_atoms>  (152) 
1

>  <N_constrained_atoms>  (152) 
13

$$$$
PV_002582704817
     RDKit          3D

 32 32  0  0  0  0  0  0  0  0999 V2000
   12.2990   14.2650   22.0940 C   0  0  0  0  0  0  0  0  0  0  0  0
   10.8710   14.2440   22.3120 N   0  0  0  0  0  0  0  0  0  0  0  0
   10.4200   14.0070   23.6400 C   0  0  0  0  0  0  0  0  0  0  0  0
   10.6180   14.8600   24.5040 O   0  0  0  0  0  0  0  0  0  0  0  0
    9.6970   12.6130   23.8070 C   0  0  0  0  0  0  0  0  0  0  0  0
   10.3590   11.3530   23.2620 C   0  0  0  0  0  0  0  0  0  0  0  0
    9.4820   10.3060   23.5650 N   0  0  0  0  0  0  0  0  0  0  0  0
    9.7110    8.9220   23.2200 C   0  0  0  0  0  0  0  0  0  0  0  0
    8.3690   10.7800   24.2370 C   0  0  0  0  0  0  0  0  0  0  0  0
    8.4900   12.1510   24.3840 C   0  0  0  0  0  0  0  0  0  0  0  0
   10.0770   15.0670   21.3370 C   0  0  0  0  0  0  0  0  0  0  0  0
   10.3530   14.7120   20.0150 C   0  0  0  0  0  0  0  0  0  0  0  0
    8.5940   15.1130   21.7420 C   0  0  0  0  0  0  0  0  0  0  0  0
   10.4230   16.5440   21.3090 C   0  0  0  0  0  0  0  0  0  0  0  0
   12.8170   14.1670   23.0510 H   0  0  0  0  0  0  0  0  0  0  0  0
   12.6560   15.1640   21.5830 H   0  0  0  0  0  0  0  0  0  0  0  0
   12.5600   13.4040   21.4780 H   0  0  0  0  0  0  0  0  0  0  0  0
   11.2980   11.2070   22.7390 H   0  0  0  0  0  0  0  0  0  0  0  0
   10.4170    8.4890   23.9310 H   0  0  0  0  0  0  0  0  0  0  0  0
    8.7670    8.3740   23.2640 H   0  0  0  0  0  0  0  0  0  0  0  0
   10.1210    8.8960   22.2080 H   0  0  0  0  0  0  0  0  0  0  0  0
    7.5830   10.1130   24.5540 H   0  0  0  0  0  0  0  0  0  0  0  0
    7.6730   12.6610   24.8990 H   0  0  0  0  0  0  0  0  0  0  0  0
   11.2710   15.1980   19.6680 H   0  0  0  0  0  0  0  0  0  0  0  0
    9.5580   15.0140   19.3300 H   0  0  0  0  0  0  0  0  0  0  0  0
   10.5050   13.6420   19.9110 H   0  0  0  0  0  0  0  0  0  0  0  0
    8.2290   14.1610   22.1320 H   0  0  0  0  0  0  0  0  0  0  0  0
    7.9600   15.3960   20.8990 H   0  0  0  0  0  0  0  0  0  0  0  0
    8.4390   15.8540   22.5210 H   0  0  0  0  0  0  0  0  0  0  0  0
   10.5590   16.8940   20.2850 H   0  0  0  0  0  0  0  0  0  0  0  0
   11.3300   16.7520   21.8720 H   0  0  0  0  0  0  0  0  0  0  0  0
    9.6000   17.1320   21.7190 H   0  0  0  0  0  0  0  0  0  0  0  0
  1  2  1  0
  2  3  1  0
  3  4  2  0
  3  5  1  0
  5  6  2  0
  6  7  1  0
  7  8  1  0
  7  9  1  0
  9 10  2  0
  2 11  1  0
 11 12  1  0
 11 13  1  0
 11 14  1  0
 10  5  1  0
  1 15  1  0
  1 16  1  0
  1 17  1  0
  6 18  1  0
  8 19  1  0
  8 20  1  0
  8 21  1  0
  9 22  1  0
 10 23  1  0
 12 24  1  0
 12 25  1  0
 12 26  1  0
 13 27  1  0
 13 28  1  0
 13 29  1  0
 14 30  1  0
 14 31  1  0
 14 32  1  0
A    1
 C1 
A    2
 N1 
A    3
 C2 
A    4
 O1 
A    5
 C3 
A    6
 C4 
A    7
 N2 
A    8
 C5 
A    9
 C6 
A   10
 C7 
A   11
 C8 
A   12
 C9 
A   13
 C10
A   14
 C11
A   15
 H1 
A   16
 H2 
A   17
 H3 
A   18
 H4 
A   19
 H5 
A   20
 H6 
A   21
 H7 
A   22
 H8 
A   23
 H9 
A   24
 H10
A   25
 H11
A   26
 H12
A   27
 H13
A   28
 H14
A   29
 H15
A   30
 H16
A   31
 H17
A   32
 H18
M  END
>  <ref_pdb>  (153) 
x0554_0A

>  <ref_mols>  (153) 
x0451_0A

>  <original SMILES>  (153) 
CN(C(=O)c1ccn(C)c1)C(C)(C)C

>  <rationale>  (153) 
info cluster #2 (rank 16); hydroph_interaction:Y90; 

>  <cluster_rank>  (153) 
16

>  <N_interactions>  (153) 
1

>  <N_interactions_lost>  (153) 
0

>  <∆∆G>  (153) 
-8.66008

>  <comRMSD>  (153) 
0.517569

>  <N_rotatable_bonds>  (153) 
3

>  <N_unconstrained_atoms>  (153) 
1

>  <N_constrained_atoms>  (153) 
13

$$$$
Z116821722
     RDKit          3D

 25 26  0  0  0  0  0  0  0  0999 V2000
    9.2260   15.9990   20.8900 C   0  0  0  0  0  0  0  0  0  0  0  0
    9.9020   14.9690   21.7510 C   0  0  0  0  0  0  0  0  0  0  0  0
    9.1830   13.9690   22.3210 N   0  0  0  0  0  0  0  0  0  0  0  0
   10.0520   13.1010   23.1030 C   0  0  0  0  0  0  0  0  0  0  0  0
    9.4620   12.0130   23.7450 C   0  0  0  0  0  0  0  0  0  0  0  0
    9.9550   10.7390   23.4760 C   0  0  0  0  0  0  0  0  0  0  0  0
    9.3880    9.4850   24.1350 C   0  0  0  0  0  0  0  0  0  0  0  0
    8.2490    9.8590   25.0940 C   0  0  0  0  0  0  0  0  0  0  0  0
    7.8160   11.1500   25.2990 C   0  0  0  0  0  0  0  0  0  0  0  0
    8.4060   12.2090   24.6390 C   0  0  0  0  0  0  0  0  0  0  0  0
   11.3950   13.4820   23.1070 C   0  0  0  0  0  0  0  0  0  0  0  0
   12.6220   12.8720   23.8000 C   0  0  0  0  0  0  0  0  0  0  0  0
   12.6370   11.5530   24.1480 N   0  0  0  0  0  0  0  0  0  0  0  0
   13.6030   13.4990   24.1050 O   0  0  0  0  0  0  0  0  0  0  0  0
   11.5760   14.9220   22.1140 S   0  0  0  0  0  0  0  0  0  0  0  0
    8.1640   16.0500   21.1460 H   0  0  0  0  0  0  0  0  0  0  0  0
    9.6520   16.9940   21.0380 H   0  0  0  0  0  0  0  0  0  0  0  0
    9.3730   15.7300   19.8390 H   0  0  0  0  0  0  0  0  0  0  0  0
   10.7770   10.6260   22.7700 H   0  0  0  0  0  0  0  0  0  0  0  0
    9.7430    8.4760   23.9540 H   0  0  0  0  0  0  0  0  0  0  0  0
    7.7550    9.0780   25.6460 H   0  0  0  0  0  0  0  0  0  0  0  0
    7.0010   11.3360   25.9900 H   0  0  0  0  0  0  0  0  0  0  0  0
    8.0300   13.2120   24.8360 H   0  0  0  0  0  0  0  0  0  0  0  0
   11.9330   10.9120   23.8190 H   0  0  0  0  0  0  0  0  0  0  0  0
   13.4960   11.2060   24.5470 H   0  0  0  0  0  0  0  0  0  0  0  0
  1  2  1  0
  2  3  2  0
  3  4  1  0
  4  5  1  0
  5  6  2  0
  6  7  1  0
  7  8  2  0
  8  9  1  0
  9 10  2  0
  4 11  2  0
 11 12  1  0
 12 13  1  0
 12 14  2  0
 11 15  1  0
 15  2  1  0
 10  5  1  0
  1 16  1  0
  1 17  1  0
  1 18  1  0
  6 19  1  0
  7 20  1  0
  8 21  1  0
  9 22  1  0
 10 23  1  0
 13 24  1  0
 13 25  1  0
A    1
 C1 
A    2
 C2 
A    3
 N1 
A    4
 C3 
A    5
 C4 
A    6
 C5 
A    7
 C6 
A    8
 C7 
A    9
 C8 
A   10
 C9 
A   11
 C10
A   12
 C11
A   13
 N2 
A   14
 O1 
A   15
 S1 
A   16
 H1 
A   17
 H2 
A   18
 H3 
A   19
 H4 
A   20
 H5 
A   21
 H6 
A   22
 H7 
A   23
 H8 
A   24
 H9 
A   25
 H10
M  END
>  <ref_pdb>  (154) 
x0554_0A

>  <ref_mols>  (154) 
x0566_0A

>  <original SMILES>  (154) 
Cc1nc(-c2ccccc2)c(C(N)=O)s1

>  <rationale>  (154) 
info cluster #0 (rank 16); hbond:S125; hydroph_interaction:V84; 

>  <cluster_rank>  (154) 
16

>  <N_interactions>  (154) 
2

>  <N_interactions_lost>  (154) 
0

>  <∆∆G>  (154) 
-6.063133

>  <comRMSD>  (154) 
0.617283

>  <N_rotatable_bonds>  (154) 
3

>  <N_unconstrained_atoms>  (154) 
2

>  <N_constrained_atoms>  (154) 
15

$$$$
PV_003198879449
     RDKit          3D

 27 28  0  0  0  0  0  0  0  0999 V2000
    6.5560   13.0700   27.6160 C   0  0  0  0  0  0  0  0  0  0  0  0
    7.1780   12.1470   26.5740 C   0  0  0  0  0  0  0  0  0  0  0  0
    8.3730   12.7430   25.8110 C   0  0  0  0  0  0  0  0  0  0  0  0
    8.9850   11.9580   24.8480 C   0  0  0  0  0  0  0  0  0  0  0  0
    8.5150   10.6640   24.6000 C   0  0  0  0  0  0  0  0  0  0  0  0
    7.4350   10.1350   25.3000 C   0  0  0  0  0  0  0  0  0  0  0  0
    6.7340   10.8370   26.2860 C   0  0  0  0  0  0  0  0  0  0  0  0
    5.6470   10.2470   26.9340 C   0  0  0  0  0  0  0  0  0  0  0  0
    9.2600   10.0360   23.5950 N   0  0  0  0  0  0  0  0  0  0  0  0
    9.3230    8.6570   23.5880 C   0  0  0  0  0  0  0  0  0  0  0  0
   10.5060   10.8100   23.5510 C   0  0  0  0  0  0  0  0  0  0  0  0
   10.1390   12.2490   23.9520 C   0  0  0  0  0  0  0  0  0  0  0  0
    5.6290   13.5150   27.2400 H   0  0  0  0  0  0  0  0  0  0  0  0
    7.2390   13.8830   27.8880 H   0  0  0  0  0  0  0  0  0  0  0  0
    6.3070   12.5190   28.5290 H   0  0  0  0  0  0  0  0  0  0  0  0
    8.7550   13.7400   25.9900 H   0  0  0  0  0  0  0  0  0  0  0  0
    7.1250    9.1440   25.0700 H   0  0  0  0  0  0  0  0  0  0  0  0
    5.1980    9.4690   26.3160 H   0  0  0  0  0  0  0  0  0  0  0  0
    4.8710   10.9950   27.1210 H   0  0  0  0  0  0  0  0  0  0  0  0
    5.9360    9.7850   27.8750 H   0  0  0  0  0  0  0  0  0  0  0  0
    8.7110    8.2270   22.7900 H   0  0  0  0  0  0  0  0  0  0  0  0
    8.9380    8.2640   24.5340 H   0  0  0  0  0  0  0  0  0  0  0  0
   10.3520    8.3110   23.4620 H   0  0  0  0  0  0  0  0  0  0  0  0
   10.9510   10.7780   22.5590 H   0  0  0  0  0  0  0  0  0  0  0  0
   11.2180   10.4010   24.2730 H   0  0  0  0  0  0  0  0  0  0  0  0
    9.8680   12.8530   23.0860 H   0  0  0  0  0  0  0  0  0  0  0  0
   10.9340   12.7210   24.5090 H   0  0  0  0  0  0  0  0  0  0  0  0
  1  2  1  0
  2  3  2  0
  3  4  1  0
  4  5  2  0
  5  6  1  0
  6  7  2  0
  7  8  1  0
  5  9  1  0
  9 10  1  0
  9 11  1  0
 11 12  1  0
  7  2  1  0
 12  4  1  0
  1 13  1  0
  1 14  1  0
  1 15  1  0
  3 16  1  0
  6 17  1  0
  8 18  1  0
  8 19  1  0
  8 20  1  0
 10 21  1  0
 10 22  1  0
 10 23  1  0
 11 24  1  0
 11 25  1  0
 12 26  1  0
 12 27  1  0
A    1
 C1 
A    2
 C2 
A    3
 C3 
A    4
 C4 
A    5
 C5 
A    6
 C6 
A    7
 C7 
A    8
 C8 
A    9
 N1 
A   10
 C9 
A   11
 C10
A   12
 C11
A   13
 H1 
A   14
 H2 
A   15
 H3 
A   16
 H4 
A   17
 H5 
A   18
 H6 
A   19
 H7 
A   20
 H8 
A   21
 H9 
A   22
 H10
A   23
 H11
A   24
 H12
A   25
 H13
A   26
 H14
A   27
 H15
M  END
>  <ref_pdb>  (155) 
x0554_0A

>  <ref_mols>  (155) 
x0451_0A,x0556_0A

>  <original SMILES>  (155) 
Cc1cc2c(cc1C)N(C)CC2

>  <rationale>  (155) 
info cluster #6 (rank 16); hydroph_interaction:P107; 

>  <cluster_rank>  (155) 
16

>  <N_interactions>  (155) 
1

>  <N_interactions_lost>  (155) 
0

>  <∆∆G>  (155) 
-7.692289

>  <comRMSD>  (155) 
0.903246

>  <N_rotatable_bonds>  (155) 
3

>  <N_unconstrained_atoms>  (155) 
1

>  <N_constrained_atoms>  (155) 
12

$$$$
Z295892684
     RDKit          3D

 28 29  0  0  0  0  0  0  0  0999 V2000
   11.0020   14.5620   20.5170 C   0  0  0  0  0  0  0  0  0  0  0  0
   10.2280   15.1670   21.4380 C   0  0  0  0  0  0  0  0  0  0  0  0
    9.3300   16.3240   21.1140 C   0  0  0  0  0  0  0  0  0  0  0  0
    9.4510   14.1430   22.1630 N   0  0  0  0  0  0  0  0  0  0  0  0
   10.1930   13.2600   22.9400 C   0  0  0  0  0  0  0  0  0  0  0  0
   11.3910   13.4490   23.1050 O   0  0  0  0  0  0  0  0  0  0  0  0
    9.6030   12.0120   23.6040 C   0  0  0  0  0  0  0  0  0  0  0  0
   10.0640   10.7380   23.3380 C   0  0  0  0  0  0  0  0  0  0  0  0
    9.5080    9.5160   24.0010 C   0  0  0  0  0  0  0  0  0  0  0  0
    8.3890    9.7050   25.0090 C   0  0  0  0  0  0  0  0  0  0  0  0
    7.9780   11.0160   25.2100 C   0  0  0  0  0  0  0  0  0  0  0  0
    8.5520   12.1110   24.5460 C   0  0  0  0  0  0  0  0  0  0  0  0
    7.8700   13.2080   25.0260 N   0  0  0  0  0  0  0  0  0  0  0  0
    6.9140   12.9270   25.9320 N   0  0  0  0  0  0  0  0  0  0  0  0
    6.9860   11.5730   26.0400 C   0  0  0  0  0  0  0  0  0  0  0  0
   10.4590   14.0530   19.7310 H   0  0  0  0  0  0  0  0  0  0  0  0
   11.8000   13.9350   20.8990 H   0  0  0  0  0  0  0  0  0  0  0  0
   11.5120   15.3820   20.0080 H   0  0  0  0  0  0  0  0  0  0  0  0
   10.9530   15.5540   22.1720 H   0  0  0  0  0  0  0  0  0  0  0  0
    8.7200   16.0400   20.2590 H   0  0  0  0  0  0  0  0  0  0  0  0
    8.6580   16.5550   21.9500 H   0  0  0  0  0  0  0  0  0  0  0  0
    9.8990   17.2310   20.8580 H   0  0  0  0  0  0  0  0  0  0  0  0
    8.6170   13.7830   21.6750 H   0  0  0  0  0  0  0  0  0  0  0  0
   10.8690   10.4930   22.6320 H   0  0  0  0  0  0  0  0  0  0  0  0
    9.9450    8.5490   23.7250 H   0  0  0  0  0  0  0  0  0  0  0  0
    7.9420    8.8840   25.5370 H   0  0  0  0  0  0  0  0  0  0  0  0
    8.0320   14.1750   24.7560 H   0  0  0  0  0  0  0  0  0  0  0  0
    6.3140   11.0630   26.7150 H   0  0  0  0  0  0  0  0  0  0  0  0
  1  2  1  0
  2  3  1  0
  2  4  1  0
  4  5  1  0
  5  6  2  0
  5  7  1  0
  7  8  2  0
  8  9  1  0
  9 10  2  0
 10 11  1  0
 11 12  2  0
 12 13  1  0
 13 14  1  0
 14 15  2  0
 12  7  1  0
 15 11  1  0
  1 16  1  0
  1 17  1  0
  1 18  1  0
  2 19  1  0
  3 20  1  0
  3 21  1  0
  3 22  1  0
  4 23  1  0
  8 24  1  0
  9 25  1  0
 10 26  1  0
 13 27  1  0
 15 28  1  0
A    1
 C1 
A    2
 C2 
A    3
 C3 
A    4
 N1 
A    5
 C4 
A    6
 O1 
A    7
 C5 
A    8
 C6 
A    9
 C7 
A   10
 C8 
A   11
 C9 
A   12
 C10
A   13
 N2 
A   14
 N3 
A   15
 C11
A   16
 H1 
A   17
 H2 
A   18
 H3 
A   19
 H4 
A   20
 H5 
A   21
 H6 
A   22
 H7 
A   23
 H8 
A   24
 H9 
A   25
 H10
A   26
 H11
A   27
 H12
A   28
 H13
M  END
>  <ref_pdb>  (156) 
x0554_0A

>  <ref_mols>  (156) 
x0566_0A

>  <original SMILES>  (156) 
CC(C)NC(=O)c1cccc2cn[nH]c12

>  <rationale>  (156) 
info cluster #1 (rank 16); hbond:T126; hydroph_interaction:V84; 

>  <cluster_rank>  (156) 
16

>  <N_interactions>  (156) 
2

>  <N_interactions_lost>  (156) 
0

>  <∆∆G>  (156) 
-6.052993

>  <comRMSD>  (156) 
0.588103

>  <N_rotatable_bonds>  (156) 
4

>  <N_unconstrained_atoms>  (156) 
0

>  <N_constrained_atoms>  (156) 
16

$$$$
Z1094899018
     RDKit          3D

 37 38  0  0  0  0  0  0  0  0999 V2000
   14.5270   11.9130   27.4310 N   0  0  0  0  0  0  0  0  0  0  0  0
   15.1940   12.1730   26.2690 C   0  0  0  0  0  0  0  0  0  0  0  0
   16.1880   12.8800   26.3080 O   0  0  0  0  0  0  0  0  0  0  0  0
   14.6820   11.5750   25.0150 C   0  0  0  0  0  0  0  0  0  0  0  0
   13.2410   11.7920   24.9460 N   0  0  0  0  0  0  0  0  0  0  0  0
   12.7280   12.9430   24.2340 C   0  0  0  0  0  0  0  0  0  0  0  0
   13.4810   13.8380   23.9520 O   0  0  0  0  0  0  0  0  0  0  0  0
   11.3480   13.0020   23.8860 C   0  0  0  0  0  0  0  0  0  0  0  0
   10.5010   11.7990   24.0710 C   0  0  0  0  0  0  0  0  0  0  0  0
   11.1540   10.5610   23.9970 C   0  0  0  0  0  0  0  0  0  0  0  0
   10.4470    9.2870   24.1610 C   0  0  0  0  0  0  0  0  0  0  0  0
    8.9490    9.3620   24.4310 C   0  0  0  0  0  0  0  0  0  0  0  0
    8.3550   10.6310   24.4970 C   0  0  0  0  0  0  0  0  0  0  0  0
    9.1120   11.7970   24.3190 C   0  0  0  0  0  0  0  0  0  0  0  0
   11.4720   13.4930   22.4010 C   0  0  0  0  0  0  0  0  0  0  0  0
   11.6900   14.9980   22.1850 C   0  0  0  0  0  0  0  0  0  0  0  0
   10.7640   15.8280   22.8940 O   0  0  0  0  0  0  0  0  0  0  0  0
    9.9640   15.1110   23.8410 C   0  0  0  0  0  0  0  0  0  0  0  0
   10.8350   14.2040   24.7150 C   0  0  0  0  0  0  0  0  0  0  0  0
   15.0610   11.3960   28.1200 H   0  0  0  0  0  0  0  0  0  0  0  0
   13.8540   12.5730   27.7970 H   0  0  0  0  0  0  0  0  0  0  0  0
   15.1110   11.9550   24.0910 H   0  0  0  0  0  0  0  0  0  0  0  0
   14.8880   10.4970   25.0680 H   0  0  0  0  0  0  0  0  0  0  0  0
   12.6470   10.9670   25.0090 H   0  0  0  0  0  0  0  0  0  0  0  0
   12.2130   10.5040   23.8160 H   0  0  0  0  0  0  0  0  0  0  0  0
   10.9690    8.3470   24.0960 H   0  0  0  0  0  0  0  0  0  0  0  0
    8.4210    8.4470   24.5630 H   0  0  0  0  0  0  0  0  0  0  0  0
    7.2930   10.7270   24.6870 H   0  0  0  0  0  0  0  0  0  0  0  0
    8.4960   12.6970   24.4000 H   0  0  0  0  0  0  0  0  0  0  0  0
   12.2740   12.9580   21.8870 H   0  0  0  0  0  0  0  0  0  0  0  0
   10.5560   13.2340   21.8600 H   0  0  0  0  0  0  0  0  0  0  0  0
   11.5910   15.2510   21.1210 H   0  0  0  0  0  0  0  0  0  0  0  0
   12.7070   15.2850   22.4680 H   0  0  0  0  0  0  0  0  0  0  0  0
    9.4320   15.8320   24.4670 H   0  0  0  0  0  0  0  0  0  0  0  0
    9.2040   14.5430   23.2930 H   0  0  0  0  0  0  0  0  0  0  0  0
   10.2770   13.8960   25.6090 H   0  0  0  0  0  0  0  0  0  0  0  0
   11.6790   14.8120   25.0730 H   0  0  0  0  0  0  0  0  0  0  0  0
  1  2  1  0
  2  3  2  0
  2  4  1  0
  4  5  1  0
  5  6  1  0
  6  7  2  0
  6  8  1  0
  8  9  1  0
  9 10  2  0
 10 11  1  0
 11 12  2  0
 12 13  1  0
 13 14  2  0
  8 15  1  0
 15 16  1  0
 16 17  1  0
 17 18  1  0
 18 19  1  0
 19  8  1  0
 14  9  1  0
  1 20  1  0
  1 21  1  0
  4 22  1  0
  4 23  1  0
  5 24  1  0
 10 25  1  0
 11 26  1  0
 12 27  1  0
 13 28  1  0
 14 29  1  0
 15 30  1  0
 15 31  1  0
 16 32  1  0
 16 33  1  0
 18 34  1  0
 18 35  1  0
 19 36  1  0
 19 37  1  0
A    1
 N1 
A    2
 C1 
A    3
 O1 
A    4
 C2 
A    5
 N2 
A    6
 C3 
A    7
 O2 
A    8
 C4 
A    9
 C5 
A   10
 C6 
A   11
 C7 
A   12
 C8 
A   13
 C9 
A   14
 C10
A   15
 C11
A   16
 C12
A   17
 O3 
A   18
 C13
A   19
 C14
A   20
 H1 
A   21
 H2 
A   22
 H3 
A   23
 H4 
A   24
 H5 
A   25
 H6 
A   26
 H7 
A   27
 H8 
A   28
 H9 
A   29
 H10
A   30
 H11
A   31
 H12
A   32
 H13
A   33
 H14
A   34
 H15
A   35
 H16
A   36
 H17
A   37
 H18
M  END
>  <ref_pdb>  (157) 
x0554_0A

>  <ref_mols>  (157) 
x0554_0A

>  <original SMILES>  (157) 
NC(=O)CNC(=O)C1(c2ccccc2)CCOCC1

>  <rationale>  (157) 
info cluster #7 (rank 16); hbond:G108+S87; hydroph_interaction:A110+D109; 

>  <cluster_rank>  (157) 
16

>  <N_interactions>  (157) 
4

>  <N_interactions_lost>  (157) 
1

>  <∆∆G>  (157) 
-5.948827

>  <comRMSD>  (157) 
0.768514

>  <N_rotatable_bonds>  (157) 
4

>  <N_unconstrained_atoms>  (157) 
2

>  <N_constrained_atoms>  (157) 
18

$$$$
Z4204994851
     RDKit          3D

 31 32  0  0  0  0  0  0  0  0999 V2000
   10.8290   14.9030   19.6150 C   0  0  0  0  0  0  0  0  0  0  0  0
   10.8760   15.6100   20.9470 C   0  0  1  0  0  0  0  0  0  0  0  0
    9.9860   16.6140   21.0160 N   0  0  0  0  0  0  0  0  0  0  0  0
   10.3920   14.7620   21.9310 C   0  0  0  0  0  0  0  0  0  0  0  0
   11.0810   13.5520   22.2860 N   0  0  0  0  0  0  0  0  0  0  0  0
   11.4270   13.1750   23.8570 S   0  0  0  0  0  6  0  0  0  0  0  0
   12.8120   12.7470   23.9040 O   0  0  0  0  0  0  0  0  0  0  0  0
   10.9320   14.1920   24.7310 O   0  0  0  0  0  0  0  0  0  0  0  0
   10.4230   11.7810   24.1650 C   0  0  0  0  0  0  0  0  0  0  0  0
   10.9540   10.5470   23.8470 C   0  0  0  0  0  0  0  0  0  0  0  0
   10.3040    9.3040   24.0240 C   0  0  0  0  0  0  0  0  0  0  0  0
    8.9310    9.3780   24.6170 C   0  0  0  0  0  0  0  0  0  0  0  0
    8.2950   10.7160   24.9900 C   0  0  0  0  0  0  0  0  0  0  0  0
    9.1210   11.8570   24.7230 C   0  0  0  0  0  0  0  0  0  0  0  0
    8.4320   13.0600   25.1050 O   0  0  0  0  0  0  0  0  0  0  0  0
    7.1990   12.5670   25.5990 C   0  0  0  0  0  0  0  0  0  0  0  0
    7.0820   11.1990   25.5490 C   0  0  0  0  0  0  0  0  0  0  0  0
    9.9640   15.2370   19.0330 H   0  0  0  0  0  0  0  0  0  0  0  0
   11.7660   15.0660   19.0680 H   0  0  0  0  0  0  0  0  0  0  0  0
   10.7280   13.8290   19.7760 H   0  0  0  0  0  0  0  0  0  0  0  0
   11.9030   15.9560   20.9500 H   0  0  0  0  0  0  0  0  0  0  0  0
    9.0530   16.2340   21.0920 H   0  0  0  0  0  0  0  0  0  0  0  0
   10.2970   17.2910   21.7040 H   0  0  0  0  0  0  0  0  0  0  0  0
   10.2560   15.3660   22.8370 H   0  0  0  0  0  0  0  0  0  0  0  0
    9.3960   14.4530   21.6020 H   0  0  0  0  0  0  0  0  0  0  0  0
   11.1610   12.8190   21.5660 H   0  0  0  0  0  0  0  0  0  0  0  0
   11.9390   10.5570   23.4380 H   0  0  0  0  0  0  0  0  0  0  0  0
   10.8390    8.4000   23.7270 H   0  0  0  0  0  0  0  0  0  0  0  0
    8.4170    8.4470   24.7750 H   0  0  0  0  0  0  0  0  0  0  0  0
    6.4100   13.2210   25.9840 H   0  0  0  0  0  0  0  0  0  0  0  0
    6.1610   10.7280   25.9090 H   0  0  0  0  0  0  0  0  0  0  0  0
  1  2  1  0
  2  3  1  0
  2  4  1  0
  4  5  1  0
  5  6  1  0
  6  7  2  0
  6  8  2  0
  6  9  1  0
  9 10  2  0
 10 11  1  0
 11 12  2  0
 12 13  1  0
 13 14  2  0
 14 15  1  0
 15 16  1  0
 16 17  2  0
 14  9  1  0
 17 13  1  0
  1 18  1  0
  1 19  1  0
  1 20  1  0
  2 21  1  1
  3 22  1  0
  3 23  1  0
  4 24  1  0
  4 25  1  0
  5 26  1  0
 10 27  1  0
 11 28  1  0
 12 29  1  0
 16 30  1  0
 17 31  1  0
A    1
 C1 
A    2
 C2 
A    3
 N1 
A    4
 C3 
A    5
 N2 
A    6
 S1 
A    7
 O1 
A    8
 O2 
A    9
 C4 
A   10
 C5 
A   11
 C6 
A   12
 C7 
A   13
 C8 
A   14
 C9 
A   15
 O3 
A   16
 C10
A   17
 C11
A   18
 H1 
A   19
 H2 
A   20
 H3 
A   21
 H4 
A   22
 H5 
A   23
 H6 
A   24
 H7 
A   25
 H8 
A   26
 H9 
A   27
 H10
A   28
 H11
A   29
 H12
A   30
 H13
A   31
 H14
M  END
>  <ref_pdb>  (158) 
x0554_0A

>  <ref_mols>  (158) 
x0554_0A

>  <original SMILES>  (158) 
C[C@@H](N)CNS(=O)(=O)c1cccc2ccoc12

>  <rationale>  (158) 
info cluster #3 (rank 16); hbond:S87; hydroph_interaction:A110; 

>  <cluster_rank>  (158) 
16

>  <N_interactions>  (158) 
3

>  <N_interactions_lost>  (158) 
1

>  <∆∆G>  (158) 
-9.302038

>  <comRMSD>  (158) 
0.724214

>  <N_rotatable_bonds>  (158) 
6

>  <N_unconstrained_atoms>  (158) 
0

>  <N_constrained_atoms>  (158) 
18

$$$$
Z3242712882
     RDKit          3D

 19 19  0  0  0  0  0  0  0  0999 V2000
   12.0340   14.6540   21.8380 C   0  0  0  0  0  0  0  0  0  0  0  0
   10.8260   13.9460   22.1390 O   0  0  0  0  0  0  0  0  0  0  0  0
   10.6370   13.7040   23.4650 C   0  0  0  0  0  0  0  0  0  0  0  0
   10.9250   14.5040   24.3470 O   0  0  0  0  0  0  0  0  0  0  0  0
   10.0520   12.4110   23.7220 C   0  0  0  0  0  0  0  0  0  0  0  0
   10.3060   11.1300   23.2940 C   0  0  0  0  0  0  0  0  0  0  0  0
    9.3380   10.2210   23.9270 N   0  0  0  0  0  0  0  0  0  0  0  0
    9.2870    8.7890   23.7150 C   0  0  0  0  0  0  0  0  0  0  0  0
    8.4730   11.0570   24.7880 C   0  0  0  0  0  0  0  0  0  0  0  0
    7.0220   10.5720   25.9000 Br  0  0  0  0  0  0  0  0  0  0  0  0
    8.8800   12.3640   24.6790 C   0  0  0  0  0  0  0  0  0  0  0  0
   12.3550   14.3610   20.8330 H   0  0  0  0  0  0  0  0  0  0  0  0
   12.8210   14.3810   22.5440 H   0  0  0  0  0  0  0  0  0  0  0  0
   11.8630   15.7360   21.8440 H   0  0  0  0  0  0  0  0  0  0  0  0
   11.0790   10.8170   22.6060 H   0  0  0  0  0  0  0  0  0  0  0  0
    8.5770    8.5390   22.9210 H   0  0  0  0  0  0  0  0  0  0  0  0
   10.2680    8.4090   23.4070 H   0  0  0  0  0  0  0  0  0  0  0  0
    8.9670    8.3150   24.6430 H   0  0  0  0  0  0  0  0  0  0  0  0
    8.4350   13.2080   25.1900 H   0  0  0  0  0  0  0  0  0  0  0  0
  1  2  1  0
  2  3  1  0
  3  4  2  0
  3  5  1  0
  5  6  2  0
  6  7  1  0
  7  8  1  0
  7  9  1  0
  9 10  1  0
  9 11  2  0
 11  5  1  0
  1 12  1  0
  1 13  1  0
  1 14  1  0
  6 15  1  0
  8 16  1  0
  8 17  1  0
  8 18  1  0
 11 19  1  0
A    1
 C1 
A    2
 O1 
A    3
 C2 
A    4
 O2 
A    5
 C3 
A    6
 C4 
A    7
 N1 
A    8
 C5 
A    9
 C6 
A   10
BR1 
A   11
 C7 
A   12
 H1 
A   13
 H2 
A   14
 H3 
A   15
 H4 
A   16
 H5 
A   17
 H6 
A   18
 H7 
A   19
 H8 
M  END
>  <ref_pdb>  (159) 
x0554_0A

>  <ref_mols>  (159) 
x0451_0A,x0556_0A

>  <original SMILES>  (159) 
COC(=O)c1cc(Br)n(C)c1

>  <rationale>  (159) 
info cluster #4 (rank 16); saltbridge:H21; 

>  <cluster_rank>  (159) 
16

>  <N_interactions>  (159) 
1

>  <N_interactions_lost>  (159) 
0

>  <∆∆G>  (159) 
-5.329735

>  <comRMSD>  (159) 
0.711991

>  <N_rotatable_bonds>  (159) 
3

>  <N_unconstrained_atoms>  (159) 
0

>  <N_constrained_atoms>  (159) 
12

$$$$
Z4217660900
     RDKit          3D

 29 29  0  0  0  0  0  0  0  0999 V2000
   10.8950   14.8500   19.5560 C   0  0  0  0  0  0  0  0  0  0  0  0
   10.4910   15.1330   20.9710 C   0  0  2  0  0  0  0  0  0  0  0  0
   10.0190   16.5400   21.0270 N   0  0  0  0  0  0  0  0  0  0  0  0
   11.4520   14.8910   21.9640 C   0  0  0  0  0  0  0  0  0  0  0  0
   11.3540   13.5580   22.5840 N   0  0  0  0  0  0  0  0  0  0  0  0
   10.4860   13.5390   23.7640 C   0  0  0  0  0  0  0  0  0  0  0  0
    9.8340   12.3040   23.8750 C   0  0  0  0  0  0  0  0  0  0  0  0
   10.3040   11.1350   23.2890 C   0  0  0  0  0  0  0  0  0  0  0  0
    9.4440   10.1420   23.5860 N   0  0  0  0  0  0  0  0  0  0  0  0
    9.6090    8.7800   23.1360 C   0  0  0  0  0  0  0  0  0  0  0  0
    8.4170   10.6180   24.3600 C   0  0  0  0  0  0  0  0  0  0  0  0
    8.6300   11.9850   24.5620 C   0  0  0  0  0  0  0  0  0  0  0  0
   10.9180   13.7760   19.3630 H   0  0  0  0  0  0  0  0  0  0  0  0
   10.1850   15.2910   18.8450 H   0  0  0  0  0  0  0  0  0  0  0  0
   11.8940   15.2600   19.3630 H   0  0  0  0  0  0  0  0  0  0  0  0
    9.6160   14.5130   21.1970 H   0  0  0  0  0  0  0  0  0  0  0  0
   10.2570   17.0250   20.1620 H   0  0  0  0  0  0  0  0  0  0  0  0
   10.4570   17.0750   21.7820 H   0  0  0  0  0  0  0  0  0  0  0  0
   11.4050   15.6630   22.7380 H   0  0  0  0  0  0  0  0  0  0  0  0
   12.4550   14.9340   21.5140 H   0  0  0  0  0  0  0  0  0  0  0  0
   11.2470   12.8440   21.8500 H   0  0  0  0  0  0  0  0  0  0  0  0
    9.7260   14.3240   23.6870 H   0  0  0  0  0  0  0  0  0  0  0  0
   11.0730   13.7130   24.6750 H   0  0  0  0  0  0  0  0  0  0  0  0
   11.1940   10.9620   22.6800 H   0  0  0  0  0  0  0  0  0  0  0  0
    9.8750    8.8160   22.0780 H   0  0  0  0  0  0  0  0  0  0  0  0
    8.6820    8.2240   23.2770 H   0  0  0  0  0  0  0  0  0  0  0  0
   10.4160    8.3200   23.7150 H   0  0  0  0  0  0  0  0  0  0  0  0
    7.6220    9.9780   24.7060 H   0  0  0  0  0  0  0  0  0  0  0  0
    8.0260   12.6880   25.1200 H   0  0  0  0  0  0  0  0  0  0  0  0
  1  2  1  0
  2  3  1  0
  2  4  1  0
  4  5  1  0
  5  6  1  0
  6  7  1  0
  7  8  2  0
  8  9  1  0
  9 10  1  0
  9 11  1  0
 11 12  2  0
 12  7  1  0
  1 13  1  0
  1 14  1  0
  1 15  1  0
  2 16  1  1
  3 17  1  0
  3 18  1  0
  4 19  1  0
  4 20  1  0
  5 21  1  0
  6 22  1  0
  6 23  1  0
  8 24  1  0
 10 25  1  0
 10 26  1  0
 10 27  1  0
 11 28  1  0
 12 29  1  0
A    1
 C1 
A    2
 C2 
A    3
 N1 
A    4
 C3 
A    5
 N2 
A    6
 C4 
A    7
 C5 
A    8
 C6 
A    9
 N3 
A   10
 C7 
A   11
 C8 
A   12
 C9 
A   13
 H1 
A   14
 H2 
A   15
 H3 
A   16
 H4 
A   17
 H5 
A   18
 H6 
A   19
 H7 
A   20
 H8 
A   21
 H9 
A   22
 H10
A   23
 H11
A   24
 H12
A   25
 H13
A   26
 H14
A   27
 H15
A   28
 H16
A   29
 H17
M  END
>  <ref_pdb>  (160) 
x0554_0A

>  <ref_mols>  (160) 
x0451_0A

>  <original SMILES>  (160) 
C[C@H](N)CNCc1ccn(C)c1

>  <rationale>  (160) 
info cluster #9 (rank 16); hbond:H21+S87; 

>  <cluster_rank>  (160) 
16

>  <N_interactions>  (160) 
3

>  <N_interactions_lost>  (160) 
1

>  <∆∆G>  (160) 
-7.591528

>  <comRMSD>  (160) 
0.544846

>  <N_rotatable_bonds>  (160) 
7

>  <N_unconstrained_atoms>  (160) 
0

>  <N_constrained_atoms>  (160) 
13

$$$$
Z5480552523
     RDKit          3D

 29 30  0  0  0  0  0  0  0  0999 V2000
   12.0350   14.7550   21.7990 C   0  0  0  0  0  0  0  0  0  0  0  0
   11.0740   13.7270   22.1230 N   0  0  0  0  0  0  0  0  0  0  0  0
   10.5640   13.6590   23.4040 C   0  0  0  0  0  0  0  0  0  0  0  0
   10.6280   14.5870   24.1980 O   0  0  0  0  0  0  0  0  0  0  0  0
    9.9100   12.3950   23.8300 C   0  0  0  0  0  0  0  0  0  0  0  0
   10.3950   11.1910   23.3450 C   0  0  0  0  0  0  0  0  0  0  0  0
    9.8080    9.9840   23.7260 C   0  0  0  0  0  0  0  0  0  0  0  0
   10.3640    8.7380   23.1760 C   0  0  0  0  0  0  0  0  0  0  0  0
    8.7280    9.9590   24.6040 C   0  0  0  0  0  0  0  0  0  0  0  0
    8.2460   11.1570   25.0820 C   0  0  0  0  0  0  0  0  0  0  0  0
    8.8300   12.3700   24.7000 C   0  0  0  0  0  0  0  0  0  0  0  0
    8.1360   13.5160   25.3470 C   0  0  0  0  0  0  0  0  0  0  0  0
    6.8650   12.8740   25.9050 C   0  0  0  0  0  0  0  0  0  0  0  0
    7.1040   11.3640   26.0220 C   0  0  0  0  0  0  0  0  0  0  0  0
   11.5630   15.7320   21.9220 H   0  0  0  0  0  0  0  0  0  0  0  0
   12.3520   14.6230   20.7600 H   0  0  0  0  0  0  0  0  0  0  0  0
   12.9040   14.6780   22.4550 H   0  0  0  0  0  0  0  0  0  0  0  0
   11.1020   12.8720   21.5630 H   0  0  0  0  0  0  0  0  0  0  0  0
   11.2420   11.1930   22.6620 H   0  0  0  0  0  0  0  0  0  0  0  0
   10.9120    8.9770   22.2640 H   0  0  0  0  0  0  0  0  0  0  0  0
   11.0390    8.2980   23.8990 H   0  0  0  0  0  0  0  0  0  0  0  0
    9.5760    8.0070   22.9560 H   0  0  0  0  0  0  0  0  0  0  0  0
    8.2850    9.0270   24.9020 H   0  0  0  0  0  0  0  0  0  0  0  0
    7.8850   14.3100   24.6350 H   0  0  0  0  0  0  0  0  0  0  0  0
    8.7510   13.9230   26.1590 H   0  0  0  0  0  0  0  0  0  0  0  0
    5.9850   13.1070   25.2990 H   0  0  0  0  0  0  0  0  0  0  0  0
    6.6740   13.2810   26.9070 H   0  0  0  0  0  0  0  0  0  0  0  0
    6.2340   10.7940   25.6800 H   0  0  0  0  0  0  0  0  0  0  0  0
    7.3520   11.0850   27.0400 H   0  0  0  0  0  0  0  0  0  0  0  0
  1  2  1  0
  2  3  1  0
  3  4  2  0
  3  5  1  0
  5  6  2  0
  6  7  1  0
  7  8  1  0
  7  9  2  0
  9 10  1  0
 10 11  2  0
 11 12  1  0
 12 13  1  0
 13 14  1  0
 11  5  1  0
 14 10  1  0
  1 15  1  0
  1 16  1  0
  1 17  1  0
  2 18  1  0
  6 19  1  0
  8 20  1  0
  8 21  1  0
  8 22  1  0
  9 23  1  0
 12 24  1  0
 12 25  1  0
 13 26  1  0
 13 27  1  0
 14 28  1  0
 14 29  1  0
A    1
 C1 
A    2
 N1 
A    3
 C2 
A    4
 O1 
A    5
 C3 
A    6
 C4 
A    7
 C5 
A    8
 C6 
A    9
 C7 
A   10
 C8 
A   11
 C9 
A   12
 C10
A   13
 C11
A   14
 C12
A   15
 H1 
A   16
 H2 
A   17
 H3 
A   18
 H4 
A   19
 H5 
A   20
 H6 
A   21
 H7 
A   22
 H8 
A   23
 H9 
A   24
 H10
A   25
 H11
A   26
 H12
A   27
 H13
A   28
 H14
A   29
 H15
M  END
>  <ref_pdb>  (161) 
x0554_0A

>  <ref_mols>  (161) 
x0451_0A,x0554_0A,x0310_0A

>  <original SMILES>  (161) 
CNC(=O)c1cc(C)cc2c1CCC2

>  <rationale>  (161) 
info cluster #8 (rank 17); hbond:S125; hydroph_interaction:D109+V124; 

>  <cluster_rank>  (161) 
17

>  <N_interactions>  (161) 
3

>  <N_interactions_lost>  (161) 
1

>  <∆∆G>  (161) 
-8.277216

>  <comRMSD>  (161) 
0.669641

>  <N_rotatable_bonds>  (161) 
3

>  <N_unconstrained_atoms>  (161) 
0

>  <N_constrained_atoms>  (161) 
14

$$$$
Z1509143955
     RDKit          3D

 26 27  0  0  0  0  0  0  0  0999 V2000
   11.9180   14.4310   22.4890 C   0  0  0  0  0  0  0  0  0  0  0  0
   11.1970   13.5840   23.5320 C   0  0  0  0  0  0  0  0  0  0  0  0
   11.2750   13.8370   24.7270 O   0  0  0  0  0  0  0  0  0  0  0  0
   10.5000   12.5630   22.9280 N   0  0  0  0  0  0  0  0  0  0  0  0
    9.8230   11.4500   23.5100 C   0  0  0  0  0  0  0  0  0  0  0  0
   10.2460   10.1460   23.1160 C   0  0  0  0  0  0  0  0  0  0  0  0
    9.6150    8.8870   23.6290 C   0  0  0  0  0  0  0  0  0  0  0  0
    8.4940    9.0970   24.6010 C   0  0  0  0  0  0  0  0  0  0  0  0
    8.1710   10.3890   24.9040 C   0  0  0  0  0  0  0  0  0  0  0  0
    7.1360   10.2430   25.7810 C   0  0  0  0  0  0  0  0  0  0  0  0
    6.4970   11.4280   26.3510 C   0  0  0  0  0  0  0  0  0  0  0  0
    6.9940   12.6820   25.9600 C   0  0  0  0  0  0  0  0  0  0  0  0
    8.0960   12.7290   25.0230 C   0  0  0  0  0  0  0  0  0  0  0  0
    8.4500   13.8740   24.7520 O   0  0  0  0  0  0  0  0  0  0  0  0
    8.7250   11.5940   24.4580 C   0  0  0  0  0  0  0  0  0  0  0  0
   11.7830   13.9960   21.4930 H   0  0  0  0  0  0  0  0  0  0  0  0
   11.5270   15.4550   22.4680 H   0  0  0  0  0  0  0  0  0  0  0  0
   12.9900   14.4810   22.6830 H   0  0  0  0  0  0  0  0  0  0  0  0
   10.8700   12.3500   22.0000 H   0  0  0  0  0  0  0  0  0  0  0  0
   11.0550   10.0100   22.4110 H   0  0  0  0  0  0  0  0  0  0  0  0
   10.0090    7.9330   23.2660 H   0  0  0  0  0  0  0  0  0  0  0  0
    7.9860    8.2570   25.0280 H   0  0  0  0  0  0  0  0  0  0  0  0
    6.8000    9.2370   26.0440 H   0  0  0  0  0  0  0  0  0  0  0  0
    5.6890   11.1370   27.0300 H   0  0  0  0  0  0  0  0  0  0  0  0
    6.5860   13.6150   26.3300 H   0  0  0  0  0  0  0  0  0  0  0  0
    7.7010   14.4700   24.9500 H   0  0  0  0  0  0  0  0  0  0  0  0
  1  2  1  0
  2  3  2  0
  2  4  1  0
  4  5  1  0
  5  6  2  0
  6  7  1  0
  7  8  2  0
  8  9  1  0
  9 10  2  0
 10 11  1  0
 11 12  2  0
 12 13  1  0
 13 14  1  0
 13 15  2  0
 15  5  1  0
 15  9  1  0
  1 16  1  0
  1 17  1  0
  1 18  1  0
  4 19  1  0
  6 20  1  0
  7 21  1  0
  8 22  1  0
 10 23  1  0
 11 24  1  0
 12 25  1  0
 14 26  1  0
A    1
 C1 
A    2
 C2 
A    3
 O1 
A    4
 N1 
A    5
 C3 
A    6
 C4 
A    7
 C5 
A    8
 C6 
A    9
 C7 
A   10
 C8 
A   11
 C9 
A   12
 C10
A   13
 C11
A   14
 O2 
A   15
 C12
A   16
 H1 
A   17
 H2 
A   18
 H3 
A   19
 H4 
A   20
 H5 
A   21
 H6 
A   22
 H7 
A   23
 H8 
A   24
 H9 
A   25
 H10
A   26
 H11
M  END
>  <ref_pdb>  (162) 
x0554_0A

>  <ref_mols>  (162) 
x0554_0A,x0451_0A

>  <original SMILES>  (162) 
CC(=O)Nc1cccc2cccc(O)c12

>  <rationale>  (162) 
info cluster #5 (rank 17); hbond:S125; hydroph_interaction:Y89+D109; 

>  <cluster_rank>  (162) 
17

>  <N_interactions>  (162) 
3

>  <N_interactions_lost>  (162) 
1

>  <∆∆G>  (162) 
-7.886356

>  <comRMSD>  (162) 
0.741243

>  <N_rotatable_bonds>  (162) 
3

>  <N_unconstrained_atoms>  (162) 
1

>  <N_constrained_atoms>  (162) 
16

$$$$
PV_002165423024
     RDKit          3D

 33 34  0  0  0  0  0  0  0  0999 V2000
   11.0110   15.0300   19.3620 C   0  0  0  0  0  0  0  0  0  0  0  0
   10.5900   15.0670   20.8240 C   0  0  0  0  0  0  0  0  0  0  0  0
    9.4990   16.1210   21.1200 C   0  0  0  0  0  0  0  0  0  0  0  0
   11.1810   14.2160   21.6740 C   0  0  0  0  0  0  0  0  0  0  0  0
   10.9030   14.0950   23.0370 C   0  0  0  0  0  0  0  0  0  0  0  0
   10.4510   15.0690   23.6290 O   0  0  0  0  0  0  0  0  0  0  0  0
   11.2180   12.8130   23.5080 N   0  0  0  0  0  0  0  0  0  0  0  0
   12.5430   12.4460   23.7300 C   0  0  0  0  0  0  0  0  0  0  0  0
   10.2360   11.8440   23.9930 C   0  0  0  0  0  0  0  0  0  0  0  0
   10.5160   10.4840   23.7460 C   0  0  0  0  0  0  0  0  0  0  0  0
    9.6410    9.3870   24.1970 C   0  0  0  0  0  0  0  0  0  0  0  0
    8.3740    9.7470   24.9710 C   0  0  0  0  0  0  0  0  0  0  0  0
    8.1110   11.2060   25.1930 C   0  0  0  0  0  0  0  0  0  0  0  0
    9.0270   12.1460   24.7070 C   0  0  0  0  0  0  0  0  0  0  0  0
    8.4770   13.3530   25.0880 N   0  0  0  0  0  0  0  0  0  0  0  0
    7.2970   13.1990   25.7660 C   0  0  0  0  0  0  0  0  0  0  0  0
    7.0440   11.8620   25.8480 C   0  0  0  0  0  0  0  0  0  0  0  0
   10.4040   15.7100   18.7520 H   0  0  0  0  0  0  0  0  0  0  0  0
   12.0630   15.3060   19.2400 H   0  0  0  0  0  0  0  0  0  0  0  0
   10.8850   14.0240   18.9430 H   0  0  0  0  0  0  0  0  0  0  0  0
    8.5080   15.9620   20.7090 H   0  0  0  0  0  0  0  0  0  0  0  0
    9.3040   16.3650   22.1590 H   0  0  0  0  0  0  0  0  0  0  0  0
    9.8500   17.0610   20.6770 H   0  0  0  0  0  0  0  0  0  0  0  0
   11.9430   13.5420   21.2970 H   0  0  0  0  0  0  0  0  0  0  0  0
   12.6330   11.5520   24.3600 H   0  0  0  0  0  0  0  0  0  0  0  0
   13.0120   12.1820   22.7860 H   0  0  0  0  0  0  0  0  0  0  0  0
   13.0730   13.2730   24.2110 H   0  0  0  0  0  0  0  0  0  0  0  0
   11.4090   10.1760   23.2070 H   0  0  0  0  0  0  0  0  0  0  0  0
    9.8910    8.3550   23.9910 H   0  0  0  0  0  0  0  0  0  0  0  0
    7.6320    9.0880   25.3900 H   0  0  0  0  0  0  0  0  0  0  0  0
    8.9070   14.2590   24.8840 H   0  0  0  0  0  0  0  0  0  0  0  0
    6.7410   14.0660   26.1310 H   0  0  0  0  0  0  0  0  0  0  0  0
    6.1900   11.3990   26.3210 H   0  0  0  0  0  0  0  0  0  0  0  0
  1  2  1  0
  2  3  1  0
  2  4  2  3
  4  5  1  0
  5  6  2  0
  5  7  1  0
  7  8  1  0
  7  9  1  0
  9 10  2  0
 10 11  1  0
 11 12  2  0
 12 13  1  0
 13 14  2  0
 14 15  1  0
 15 16  1  0
 16 17  2  0
 14  9  1  0
 17 13  1  0
  1 18  1  0
  1 19  1  0
  1 20  1  0
  3 21  1  0
  3 22  1  0
  3 23  1  0
  4 24  1  0
  8 25  1  0
  8 26  1  0
  8 27  1  0
 10 28  1  0
 11 29  1  0
 12 30  1  0
 15 31  1  0
 16 32  1  0
 17 33  1  0
A    1
 C1 
A    2
 C2 
A    3
 C3 
A    4
 C4 
A    5
 C5 
A    6
 O1 
A    7
 N1 
A    8
 C6 
A    9
 C7 
A   10
 C8 
A   11
 C9 
A   12
 C10
A   13
 C11
A   14
 C12
A   15
 N2 
A   16
 C13
A   17
 C14
A   18
 H1 
A   19
 H2 
A   20
 H3 
A   21
 H4 
A   22
 H5 
A   23
 H6 
A   24
 H7 
A   25
 H8 
A   26
 H9 
A   27
 H10
A   28
 H11
A   29
 H12
A   30
 H13
A   31
 H14
A   32
 H15
A   33
 H16
M  END
>  <ref_pdb>  (163) 
x0554_0A

>  <ref_mols>  (163) 
x0554_0A

>  <original SMILES>  (163) 
CC(C)=CC(=O)N(C)c1cccc2cc[nH]c12

>  <rationale>  (163) 
info cluster #2 (rank 17); hbond:S87; hydroph_interaction:Y90+V84; 

>  <cluster_rank>  (163) 
17

>  <N_interactions>  (163) 
3

>  <N_interactions_lost>  (163) 
1

>  <∆∆G>  (163) 
-7.934229

>  <comRMSD>  (163) 
0.661424

>  <N_rotatable_bonds>  (163) 
5

>  <N_unconstrained_atoms>  (163) 
0

>  <N_constrained_atoms>  (163) 
19

$$$$
Z3352546733
     RDKit          3D

 31 33  0  0  0  0  0  0  0  0999 V2000
    9.9350   14.9070   21.2030 C   0  0  0  0  0  0  0  0  0  0  0  0
    9.2080   14.0750   22.0970 O   0  0  0  0  0  0  0  0  0  0  0  0
    9.9430   13.2180   22.8380 C   0  0  0  0  0  0  0  0  0  0  0  0
   11.1540   13.3650   22.8550 O   0  0  0  0  0  0  0  0  0  0  0  0
    9.3610   12.0340   23.6520 C   0  0  0  0  0  0  0  0  0  0  0  0
    9.9660   10.7600   23.5220 C   0  0  0  0  0  0  0  0  0  0  0  0
    9.1510    9.6010   24.4980 S   0  0  0  0  0  0  0  0  0  0  0  0
    8.0160   10.8060   25.0730 C   0  0  0  0  0  0  0  0  0  0  0  0
    8.2740   12.0390   24.5170 C   0  0  0  0  0  0  0  0  0  0  0  0
    7.3910   12.9810   24.9530 N   0  0  0  0  0  0  0  0  0  0  0  0
    6.4910   12.4240   25.8190 C   0  0  0  0  0  0  0  0  0  0  0  0
    5.3860   13.3110   26.4300 C   0  0  0  0  0  0  0  0  0  0  0  0
    5.6040   14.1230   27.3170 O   0  0  0  0  0  0  0  0  0  0  0  0
    4.1100   13.2070   25.9130 N   0  0  0  0  0  0  0  0  0  0  0  0
    3.6030   14.2470   25.0320 C   0  0  0  0  0  0  0  0  0  0  0  0
    2.2560   14.3360   25.4010 C   0  0  0  0  0  0  0  0  0  0  0  0
    1.9030   13.5900   26.5220 C   0  0  0  0  0  0  0  0  0  0  0  0
    3.0400   12.7310   26.7380 O   0  0  0  0  0  0  0  0  0  0  0  0
    6.8800   10.9350   25.9440 C   0  0  0  0  0  0  0  0  0  0  0  0
    9.2250   15.4380   20.5570 H   0  0  0  0  0  0  0  0  0  0  0  0
   10.6110   14.3180   20.5690 H   0  0  0  0  0  0  0  0  0  0  0  0
   10.5300   15.6520   21.7420 H   0  0  0  0  0  0  0  0  0  0  0  0
   10.8190   10.4650   22.9220 H   0  0  0  0  0  0  0  0  0  0  0  0
    7.4690   13.9360   24.6170 H   0  0  0  0  0  0  0  0  0  0  0  0
    4.1680   15.1710   25.1800 H   0  0  0  0  0  0  0  0  0  0  0  0
    3.7220   13.9250   23.9870 H   0  0  0  0  0  0  0  0  0  0  0  0
    1.6680   13.9400   24.5620 H   0  0  0  0  0  0  0  0  0  0  0  0
    1.9500   15.3760   25.5190 H   0  0  0  0  0  0  0  0  0  0  0  0
    1.7690   14.2170   27.4090 H   0  0  0  0  0  0  0  0  0  0  0  0
    1.0060   12.9890   26.3600 H   0  0  0  0  0  0  0  0  0  0  0  0
    6.3950   10.1740   26.5430 H   0  0  0  0  0  0  0  0  0  0  0  0
  1  2  1  0
  2  3  1  0
  3  4  2  0
  3  5  1  0
  5  6  2  0
  6  7  1  0
  7  8  1  0
  8  9  2  0
  9 10  1  0
 10 11  1  0
 11 12  1  0
 12 13  2  0
 12 14  1  0
 14 15  1  0
 15 16  1  0
 16 17  1  0
 17 18  1  0
 11 19  2  0
  9  5  1  0
 19  8  1  0
 18 14  1  0
  1 20  1  0
  1 21  1  0
  1 22  1  0
  6 23  1  0
 10 24  1  0
 15 25  1  0
 15 26  1  0
 16 27  1  0
 16 28  1  0
 17 29  1  0
 17 30  1  0
 19 31  1  0
A    1
 C1 
A    2
 O1 
A    3
 C2 
A    4
 O2 
A    5
 C3 
A    6
 C4 
A    7
 S1 
A    8
 C5 
A    9
 C6 
A   10
 N1 
A   11
 C7 
A   12
 C8 
A   13
 O3 
A   14
 N2 
A   15
 C9 
A   16
 C10
A   17
 C11
A   18
 O4 
A   19
 C12
A   20
 H1 
A   21
 H2 
A   22
 H3 
A   23
 H4 
A   24
 H5 
A   25
 H6 
A   26
 H7 
A   27
 H8 
A   28
 H9 
A   29
 H10
A   30
 H11
A   31
 H12
M  END
>  <ref_pdb>  (164) 
x0554_0A

>  <ref_mols>  (164) 
x0566_0A,x0416_0A

>  <original SMILES>  (164) 
COC(=O)c1csc2cc(C(=O)N3CCCO3)[nH]c12

>  <rationale>  (164) 
info cluster #6 (rank 17); hbond:N129; 

>  <cluster_rank>  (164) 
17

>  <N_interactions>  (164) 
1

>  <N_interactions_lost>  (164) 
0

>  <∆∆G>  (164) 
-5.48967

>  <comRMSD>  (164) 
0.983535

>  <N_rotatable_bonds>  (164) 
3

>  <N_unconstrained_atoms>  (164) 
3

>  <N_constrained_atoms>  (164) 
17

$$$$
Z2228324452
     RDKit          3D

 23 24  0  0  0  0  0  0  0  0999 V2000
   11.9650   14.6350   21.9760 C   0  0  0  0  0  0  0  0  0  0  0  0
   10.8660   13.6720   22.1170 N   0  0  0  0  0  0  0  0  0  0  0  0
   10.4850   13.5570   23.5330 C   0  0  0  0  0  0  0  0  0  0  0  0
   10.8890   14.3460   24.3720 O   0  0  0  0  0  0  0  0  0  0  0  0
    9.6120   12.5330   23.9600 C   0  0  0  0  0  0  0  0  0  0  0  0
    8.5520   12.8590   24.8180 C   0  0  0  0  0  0  0  0  0  0  0  0
    7.5680   11.8370   25.3410 C   0  0  0  0  0  0  0  0  0  0  0  0
    7.7240   10.5250   24.9460 C   0  0  0  0  0  0  0  0  0  0  0  0
    8.7890   10.2370   24.0840 C   0  0  0  0  0  0  0  0  0  0  0  0
    9.7080   11.2140   23.6140 C   0  0  0  0  0  0  0  0  0  0  0  0
   10.5640   10.5170   22.8490 N   0  0  0  0  0  0  0  0  0  0  0  0
   10.3740    9.1400   23.1290 C   0  0  0  0  0  0  0  0  0  0  0  0
   11.1400    8.0930   23.0620 O   0  0  0  0  0  0  0  0  0  0  0  0
    9.1260    9.0080   23.5570 N   0  0  0  0  0  0  0  0  0  0  0  0
   12.3850   14.6260   20.9640 H   0  0  0  0  0  0  0  0  0  0  0  0
   11.6200   15.6500   22.2020 H   0  0  0  0  0  0  0  0  0  0  0  0
   12.7670   14.4070   22.6850 H   0  0  0  0  0  0  0  0  0  0  0  0
   10.9880   12.7950   21.6060 H   0  0  0  0  0  0  0  0  0  0  0  0
    8.4250   13.8930   25.1300 H   0  0  0  0  0  0  0  0  0  0  0  0
    6.8280   12.3100   25.9950 H   0  0  0  0  0  0  0  0  0  0  0  0
    7.0390    9.7790   25.3020 H   0  0  0  0  0  0  0  0  0  0  0  0
   11.0590   10.8670   22.0300 H   0  0  0  0  0  0  0  0  0  0  0  0
    8.5540    8.3770   23.0040 H   0  0  0  0  0  0  0  0  0  0  0  0
  1  2  1  0
  2  3  1  0
  3  4  2  0
  3  5  1  0
  5  6  2  0
  6  7  1  0
  7  8  2  0
  8  9  1  0
  9 10  2  0
 10 11  1  0
 11 12  1  0
 12 13  2  0
 12 14  1  0
 10  5  1  0
 14  9  1  0
  1 15  1  0
  1 16  1  0
  1 17  1  0
  2 18  1  0
  6 19  1  0
  7 20  1  0
  8 21  1  0
 11 22  1  0
 14 23  1  0
A    1
 C1 
A    2
 N1 
A    3
 C2 
A    4
 O1 
A    5
 C3 
A    6
 C4 
A    7
 C5 
A    8
 C6 
A    9
 C7 
A   10
 C8 
A   11
 N2 
A   12
 C9 
A   13
 O2 
A   14
 N3 
A   15
 H1 
A   16
 H2 
A   17
 H3 
A   18
 H4 
A   19
 H5 
A   20
 H6 
A   21
 H7 
A   22
 H8 
A   23
 H9 
M  END
>  <ref_pdb>  (165) 
x0554_0A

>  <ref_mols>  (165) 
x0554_0A,x0451_0A

>  <original SMILES>  (165) 
CNC(=O)c1cccc2[nH]c(=O)[nH]c12

>  <rationale>  (165) 
info cluster #0 (rank 17); hbond:S105+S125; 

>  <cluster_rank>  (165) 
17

>  <N_interactions>  (165) 
3

>  <N_interactions_lost>  (165) 
1

>  <∆∆G>  (165) 
-5.137345

>  <comRMSD>  (165) 
0.924616

>  <N_rotatable_bonds>  (165) 
2

>  <N_unconstrained_atoms>  (165) 
3

>  <N_constrained_atoms>  (165) 
12

$$$$
Z1536676137
     RDKit          3D

 41 42  0  0  0  0  0  0  0  0999 V2000
   10.1600    8.9520   23.5290 C   0  0  0  0  0  0  0  0  0  0  0  0
    9.3100   10.0770   24.0530 C   0  0  0  0  0  0  0  0  0  0  0  0
    8.3160    9.9090   24.9220 C   0  0  0  0  0  0  0  0  0  0  0  0
    7.4660   11.0040   25.4300 C   0  0  0  0  0  0  0  0  0  0  0  0
    7.7230   12.2930   24.9820 C   0  0  0  0  0  0  0  0  0  0  0  0
    6.9770   13.4320   25.3980 N   0  0  0  0  0  0  0  0  0  0  0  0
    5.7490   13.5290   26.0590 C   0  0  0  0  0  0  0  0  0  0  0  0
    5.0670   14.5560   26.1150 O   0  0  0  0  0  0  0  0  0  0  0  0
    5.3260   12.3330   26.7030 C   0  0  0  0  0  0  0  0  0  0  0  0
    5.9610   11.7450   27.8930 C   0  0  0  0  0  0  0  0  0  0  0  0
    4.8720   12.4480   28.6830 C   0  0  0  0  0  0  0  0  0  0  0  0
    4.0860   12.4950   27.4760 O   0  0  0  0  0  0  0  0  0  0  0  0
    8.8030   12.4630   24.0580 C   0  0  0  0  0  0  0  0  0  0  0  0
    9.0920   13.7180   23.6040 O   0  0  0  0  0  0  0  0  0  0  0  0
   10.3700   13.8160   22.9700 C   0  0  0  0  0  0  0  0  0  0  0  0
   10.5520   15.1050   22.3960 C   0  0  0  0  0  0  0  0  0  0  0  0
   10.9070   16.0260   23.1120 O   0  0  0  0  0  0  0  0  0  0  0  0
   10.3070   15.2790   21.0260 N   0  0  0  0  0  0  0  0  0  0  0  0
   11.1680   14.7090   19.9910 C   0  0  0  0  0  0  0  0  0  0  0  0
    9.6520   16.5250   20.6500 C   0  0  0  0  0  0  0  0  0  0  0  0
    9.5610   11.3670   23.6190 C   0  0  0  0  0  0  0  0  0  0  0  0
   10.9780    8.6960   24.2060 H   0  0  0  0  0  0  0  0  0  0  0  0
    9.5500    8.0600   23.3660 H   0  0  0  0  0  0  0  0  0  0  0  0
   10.6310    9.2240   22.5780 H   0  0  0  0  0  0  0  0  0  0  0  0
    8.0810    8.9310   25.3070 H   0  0  0  0  0  0  0  0  0  0  0  0
    6.6790   10.7670   26.1310 H   0  0  0  0  0  0  0  0  0  0  0  0
    7.3350   14.3150   25.0360 H   0  0  0  0  0  0  0  0  0  0  0  0
    5.1430   11.5650   25.9410 H   0  0  0  0  0  0  0  0  0  0  0  0
    6.9710   12.1010   28.0850 H   0  0  0  0  0  0  0  0  0  0  0  0
    5.9190   10.6540   27.9350 H   0  0  0  0  0  0  0  0  0  0  0  0
    5.1230   13.4450   29.0540 H   0  0  0  0  0  0  0  0  0  0  0  0
    4.3870   11.8560   29.4630 H   0  0  0  0  0  0  0  0  0  0  0  0
   10.4530   13.0800   22.1700 H   0  0  0  0  0  0  0  0  0  0  0  0
   11.1640   13.6850   23.7150 H   0  0  0  0  0  0  0  0  0  0  0  0
   11.7200   15.5110   19.4950 H   0  0  0  0  0  0  0  0  0  0  0  0
   10.6110   14.1620   19.2330 H   0  0  0  0  0  0  0  0  0  0  0  0
   11.8760   14.0260   20.4700 H   0  0  0  0  0  0  0  0  0  0  0  0
    8.6190   16.4990   21.0080 H   0  0  0  0  0  0  0  0  0  0  0  0
    9.6630   16.6210   19.5600 H   0  0  0  0  0  0  0  0  0  0  0  0
   10.1500   17.3980   21.0760 H   0  0  0  0  0  0  0  0  0  0  0  0
   10.3760   11.5050   22.9150 H   0  0  0  0  0  0  0  0  0  0  0  0
  1  2  1  0
  2  3  2  0
  3  4  1  0
  4  5  2  0
  5  6  1  0
  6  7  1  0
  7  8  2  0
  7  9  1  0
  9 10  1  0
 10 11  1  0
 11 12  1  0
  5 13  1  0
 13 14  1  0
 14 15  1  0
 15 16  1  0
 16 17  2  0
 16 18  1  0
 18 19  1  0
 18 20  1  0
 13 21  2  0
 21  2  1  0
 12  9  1  0
  1 22  1  0
  1 23  1  0
  1 24  1  0
  3 25  1  0
  4 26  1  0
  6 27  1  0
  9 28  1  0
 10 29  1  0
 10 30  1  0
 11 31  1  0
 11 32  1  0
 15 33  1  0
 15 34  1  0
 19 35  1  0
 19 36  1  0
 19 37  1  0
 20 38  1  0
 20 39  1  0
 20 40  1  0
 21 41  1  0
A    1
 C1 
A    2
 C2 
A    3
 C3 
A    4
 C4 
A    5
 C5 
A    6
 N1 
A    7
 C6 
A    8
 O1 
A    9
 C7 
A   10
 C8 
A   11
 C9 
A   12
 O2 
A   13
 C10
A   14
 O3 
A   15
 C11
A   16
 C12
A   17
 O4 
A   18
 N2 
A   19
 C13
A   20
 C14
A   21
 C15
A   22
 H1 
A   23
 H2 
A   24
 H3 
A   25
 H4 
A   26
 H5 
A   27
 H6 
A   28
 H7 
A   29
 H8 
A   30
 H9 
A   31
 H10
A   32
 H11
A   33
 H12
A   34
 H13
A   35
 H14
A   36
 H15
A   37
 H16
A   38
 H17
A   39
 H18
A   40
 H19
A   41
 H20
M  END
>  <ref_pdb>  (166) 
x0554_0A

>  <ref_mols>  (166) 
x0416_0A

>  <original SMILES>  (166) 
Cc1ccc(NC(=O)C2CCO2)c(OCC(=O)N(C)C)c1

>  <rationale>  (166) 
info cluster #7 (rank 17); hbond:S87; hydroph_interaction:P107+D109+V124; 

>  <cluster_rank>  (166) 
17

>  <N_interactions>  (166) 
4

>  <N_interactions_lost>  (166) 
1

>  <∆∆G>  (166) 
-10.950646

>  <comRMSD>  (166) 
0.501295

>  <N_rotatable_bonds>  (166) 
8

>  <N_unconstrained_atoms>  (166) 
2

>  <N_constrained_atoms>  (166) 
20

$$$$
Z5319494728
     RDKit          3D

 24 25  0  0  0  0  0  0  0  0999 V2000
   10.6140   14.8950   20.3630 C   0  0  0  0  0  0  0  0  0  0  0  0
    9.7320   15.2650   21.5580 C   0  0  0  0  0  0  0  0  0  0  0  0
    9.1900   14.1070   22.2520 N   0  0  0  0  0  0  0  0  0  0  0  0
   10.0410   13.2790   22.9680 C   0  0  0  0  0  0  0  0  0  0  0  0
   11.2400   13.5190   23.0560 O   0  0  0  0  0  0  0  0  0  0  0  0
    9.4920   12.0090   23.6530 C   0  0  0  0  0  0  0  0  0  0  0  0
   10.0610   10.7790   23.3220 C   0  0  0  0  0  0  0  0  0  0  0  0
    9.6210    9.5960   23.9020 C   0  0  0  0  0  0  0  0  0  0  0  0
    8.6080    9.6110   24.8240 C   0  0  0  0  0  0  0  0  0  0  0  0
    8.0220   10.8210   25.1670 C   0  0  0  0  0  0  0  0  0  0  0  0
    8.4360   12.0240   24.6070 C   0  0  0  0  0  0  0  0  0  0  0  0
    7.7290   13.1350   25.0830 N   0  0  0  0  0  0  0  0  0  0  0  0
    6.8260   12.7550   25.9580 C   0  0  0  0  0  0  0  0  0  0  0  0
    6.7420   11.0840   26.2870 S   0  0  0  0  0  0  0  0  0  0  0  0
   11.4390   15.6090   20.2690 H   0  0  0  0  0  0  0  0  0  0  0  0
   10.0510   14.9200   19.4270 H   0  0  0  0  0  0  0  0  0  0  0  0
   11.0500   13.9030   20.4810 H   0  0  0  0  0  0  0  0  0  0  0  0
    8.8960   15.8800   21.2080 H   0  0  0  0  0  0  0  0  0  0  0  0
   10.3140   15.8800   22.2560 H   0  0  0  0  0  0  0  0  0  0  0  0
    8.3840   13.6560   21.8080 H   0  0  0  0  0  0  0  0  0  0  0  0
   10.8660   10.7390   22.5940 H   0  0  0  0  0  0  0  0  0  0  0  0
   10.0870    8.6490   23.6250 H   0  0  0  0  0  0  0  0  0  0  0  0
    8.2750    8.6930   25.2760 H   0  0  0  0  0  0  0  0  0  0  0  0
    6.1680   13.4600   26.4470 H   0  0  0  0  0  0  0  0  0  0  0  0
  1  2  1  0
  2  3  1  0
  3  4  1  0
  4  5  2  0
  4  6  1  0
  6  7  2  0
  7  8  1  0
  8  9  2  0
  9 10  1  0
 10 11  2  0
 11 12  1  0
 12 13  2  0
 13 14  1  0
 11  6  1  0
 14 10  1  0
  1 15  1  0
  1 16  1  0
  1 17  1  0
  2 18  1  0
  2 19  1  0
  3 20  1  0
  7 21  1  0
  8 22  1  0
  9 23  1  0
 13 24  1  0
A    1
 C1 
A    2
 C2 
A    3
 N1 
A    4
 C3 
A    5
 O1 
A    6
 C4 
A    7
 C5 
A    8
 C6 
A    9
 C7 
A   10
 C8 
A   11
 C9 
A   12
 N2 
A   13
 C10
A   14
 S1 
A   15
 H1 
A   16
 H2 
A   17
 H3 
A   18
 H4 
A   19
 H5 
A   20
 H6 
A   21
 H7 
A   22
 H8 
A   23
 H9 
A   24
 H10
M  END
>  <ref_pdb>  (167) 
x0554_0A

>  <ref_mols>  (167) 
x0566_0A

>  <original SMILES>  (167) 
CCNC(=O)c1cccc2scnc12

>  <rationale>  (167) 
info cluster #1 (rank 17); hbond:T126; 

>  <cluster_rank>  (167) 
17

>  <N_interactions>  (167) 
1

>  <N_interactions_lost>  (167) 
0

>  <∆∆G>  (167) 
-6.325779

>  <comRMSD>  (167) 
0.625171

>  <N_rotatable_bonds>  (167) 
3

>  <N_unconstrained_atoms>  (167) 
0

>  <N_constrained_atoms>  (167) 
15

$$$$
Z2234362639
     RDKit          3D

 36 37  0  0  0  0  0  0  0  0999 V2000
    8.9710   15.2030   22.2230 C   0  0  0  0  0  0  0  0  0  0  0  0
    9.9350   15.4160   21.0690 C   0  0  0  0  0  0  0  0  0  0  0  0
   10.1360   16.7610   20.8160 N   0  0  0  0  0  0  0  0  0  0  0  0
   11.2410   14.6570   21.2500 C   0  0  0  0  0  0  0  0  0  0  0  0
   12.2700   15.4430   21.7280 C   0  0  0  0  0  0  0  0  0  0  0  0
   11.0950   13.4670   22.0800 N   0  0  0  0  0  0  0  0  0  0  0  0
   10.5940   13.4270   23.3690 C   0  0  0  0  0  0  0  0  0  0  0  0
   10.7250   14.3480   24.1760 O   0  0  0  0  0  0  0  0  0  0  0  0
    9.8690   12.1200   23.7060 C   0  0  0  0  0  0  0  0  0  0  0  0
   10.2430   10.9260   23.1720 N   0  0  0  0  0  0  0  0  0  0  0  0
    9.3780   10.0430   23.7080 N   0  0  0  0  0  0  0  0  0  0  0  0
    9.4490    8.6430   23.3770 C   0  0  0  0  0  0  0  0  0  0  0  0
    8.4770   10.6060   24.5610 C   0  0  0  0  0  0  0  0  0  0  0  0
    7.3510   10.0700   25.3910 C   0  0  0  0  0  0  0  0  0  0  0  0
    6.4990   10.9690   26.2590 C   0  0  0  0  0  0  0  0  0  0  0  0
    6.8280   12.3200   26.2390 C   0  0  0  0  0  0  0  0  0  0  0  0
    7.8810   12.8690   25.4760 C   0  0  0  0  0  0  0  0  0  0  0  0
    8.7590   11.9560   24.5830 C   0  0  0  0  0  0  0  0  0  0  0  0
    8.7360   14.1420   22.3530 H   0  0  0  0  0  0  0  0  0  0  0  0
    8.0370   15.7390   22.0310 H   0  0  0  0  0  0  0  0  0  0  0  0
    9.3930   15.5750   23.1620 H   0  0  0  0  0  0  0  0  0  0  0  0
    9.4670   15.0240   20.1610 H   0  0  0  0  0  0  0  0  0  0  0  0
   10.3610   17.2940   21.6580 H   0  0  0  0  0  0  0  0  0  0  0  0
    9.2880   17.1630   20.4350 H   0  0  0  0  0  0  0  0  0  0  0  0
   11.5510   14.2940   20.2600 H   0  0  0  0  0  0  0  0  0  0  0  0
   11.8670   16.3170   22.2450 H   0  0  0  0  0  0  0  0  0  0  0  0
   12.8910   14.8890   22.4330 H   0  0  0  0  0  0  0  0  0  0  0  0
   12.9120   15.8040   20.9180 H   0  0  0  0  0  0  0  0  0  0  0  0
   11.1270   12.5600   21.6160 H   0  0  0  0  0  0  0  0  0  0  0  0
    9.2820    8.0530   24.2880 H   0  0  0  0  0  0  0  0  0  0  0  0
    8.6640    8.4050   22.6640 H   0  0  0  0  0  0  0  0  0  0  0  0
   10.4380    8.4300   22.9610 H   0  0  0  0  0  0  0  0  0  0  0  0
    7.1120    9.0190   25.3990 H   0  0  0  0  0  0  0  0  0  0  0  0
    5.6810   10.5780   26.8610 H   0  0  0  0  0  0  0  0  0  0  0  0
    6.2380   13.0090   26.8520 H   0  0  0  0  0  0  0  0  0  0  0  0
    8.0740   13.9380   25.5190 H   0  0  0  0  0  0  0  0  0  0  0  0
  1  2  1  0
  2  3  1  0
  2  4  1  0
  4  5  1  0
  4  6  1  0
  6  7  1  0
  7  8  2  0
  7  9  1  0
  9 10  2  0
 10 11  1  0
 11 12  1  0
 11 13  1  0
 13 14  2  0
 14 15  1  0
 15 16  2  0
 16 17  1  0
 17 18  2  0
 18  9  1  0
 18 13  1  0
  1 19  1  0
  1 20  1  0
  1 21  1  0
  2 22  1  0
  3 23  1  0
  3 24  1  0
  4 25  1  0
  5 26  1  0
  5 27  1  0
  5 28  1  0
  6 29  1  0
 12 30  1  0
 12 31  1  0
 12 32  1  0
 14 33  1  0
 15 34  1  0
 16 35  1  0
 17 36  1  0
A    1
 C1 
A    2
 C2 
A    3
 N1 
A    4
 C3 
A    5
 C4 
A    6
 N2 
A    7
 C5 
A    8
 O1 
A    9
 C6 
A   10
 N3 
A   11
 N4 
A   12
 C7 
A   13
 C8 
A   14
 C9 
A   15
 C10
A   16
 C11
A   17
 C12
A   18
 C13
A   19
 H1 
A   20
 H2 
A   21
 H3 
A   22
 H4 
A   23
 H5 
A   24
 H6 
A   25
 H7 
A   26
 H8 
A   27
 H9 
A   28
 H10
A   29
 H11
A   30
 H12
A   31
 H13
A   32
 H14
A   33
 H15
A   34
 H16
A   35
 H17
A   36
 H18
M  END
>  <ref_pdb>  (168) 
x0554_0A

>  <ref_mols>  (168) 
x0451_0A

>  <original SMILES>  (168) 
CC(N)C(C)NC(=O)c1nn(C)c2ccccc12

>  <rationale>  (168) 
info cluster #3 (rank 17); hbond:S87+S125; hydroph_interaction:Y89; 

>  <cluster_rank>  (168) 
17

>  <N_interactions>  (168) 
4

>  <N_interactions_lost>  (168) 
2

>  <∆∆G>  (168) 
-10.752967

>  <comRMSD>  (168) 
0.728793

>  <N_rotatable_bonds>  (168) 
7

>  <N_unconstrained_atoms>  (168) 
2

>  <N_constrained_atoms>  (168) 
18

$$$$
Z2841047207
     RDKit          3D

 24 24  0  0  0  0  0  0  0  0999 V2000
   12.1260   14.9000   21.7040 C   0  0  0  0  0  0  0  0  0  0  0  0
   11.0880   13.9730   22.0330 O   0  0  0  0  0  0  0  0  0  0  0  0
   11.0150   13.6610   23.3570 C   0  0  0  0  0  0  0  0  0  0  0  0
   11.3950   14.4030   24.2520 O   0  0  0  0  0  0  0  0  0  0  0  0
   10.3620   12.2980   23.6030 C   0  0  0  0  0  0  0  0  0  0  0  0
    9.1400   12.3620   24.4320 C   0  0  0  0  0  0  0  0  0  0  0  0
    8.5640   11.0360   24.6140 C   0  0  0  0  0  0  0  0  0  0  0  0
    7.4140   10.8980   25.3580 N   0  0  0  0  0  0  0  0  0  0  0  0
    6.8610   12.0550   25.8790 C   0  0  0  0  0  0  0  0  0  0  0  0
    7.3390   13.1700   25.2500 N   0  0  0  0  0  0  0  0  0  0  0  0
    6.0540   12.2150   26.7840 O   0  0  0  0  0  0  0  0  0  0  0  0
    9.3410   10.0600   23.9420 C   0  0  0  0  0  0  0  0  0  0  0  0
    9.1920    8.6070   23.7990 C   0  0  0  0  0  0  0  0  0  0  0  0
   10.7180   10.7100   23.1390 S   0  0  0  0  0  0  0  0  0  0  0  0
   12.4510   14.7790   20.6660 H   0  0  0  0  0  0  0  0  0  0  0  0
   12.9990   14.7600   22.3480 H   0  0  0  0  0  0  0  0  0  0  0  0
   11.7550   15.9210   21.8440 H   0  0  0  0  0  0  0  0  0  0  0  0
    8.7540   13.2930   24.8290 H   0  0  0  0  0  0  0  0  0  0  0  0
    7.3280   10.0770   25.9370 H   0  0  0  0  0  0  0  0  0  0  0  0
    6.6070   13.6470   24.7320 H   0  0  0  0  0  0  0  0  0  0  0  0
    7.8880   13.7980   25.8200 H   0  0  0  0  0  0  0  0  0  0  0  0
    8.4710    8.3340   23.0230 H   0  0  0  0  0  0  0  0  0  0  0  0
    8.8630    8.1560   24.7360 H   0  0  0  0  0  0  0  0  0  0  0  0
   10.1550    8.1660   23.5170 H   0  0  0  0  0  0  0  0  0  0  0  0
  1  2  1  0
  2  3  1  0
  3  4  2  0
  3  5  1  0
  5  6  2  0
  6  7  1  0
  7  8  1  0
  8  9  1  0
  9 10  1  0
  9 11  2  0
  7 12  2  0
 12 13  1  0
 12 14  1  0
 14  5  1  0
  1 15  1  0
  1 16  1  0
  1 17  1  0
  6 18  1  0
  8 19  1  0
 10 20  1  0
 10 21  1  0
 13 22  1  0
 13 23  1  0
 13 24  1  0
A    1
 C1 
A    2
 O1 
A    3
 C2 
A    4
 O2 
A    5
 C3 
A    6
 C4 
A    7
 C5 
A    8
 N1 
A    9
 C6 
A   10
 N2 
A   11
 O3 
A   12
 C7 
A   13
 C8 
A   14
 S1 
A   15
 H1 
A   16
 H2 
A   17
 H3 
A   18
 H4 
A   19
 H5 
A   20
 H6 
A   21
 H7 
A   22
 H8 
A   23
 H9 
A   24
 H10
M  END
>  <ref_pdb>  (169) 
x0554_0A

>  <ref_mols>  (169) 
x0451_0A,x0416_0A,x0554_0A

>  <original SMILES>  (169) 
COC(=O)c1cc(NC(N)=O)c(C)s1

>  <rationale>  (169) 
info cluster #4 (rank 17); hbond:S105; hydroph_interaction:D109; saltbridge:H21; 

>  <cluster_rank>  (169) 
17

>  <N_interactions>  (169) 
3

>  <N_interactions_lost>  (169) 
0

>  <∆∆G>  (169) 
-4.993541

>  <comRMSD>  (169) 
0.975368

>  <N_rotatable_bonds>  (169) 
4

>  <N_unconstrained_atoms>  (169) 
0

>  <N_constrained_atoms>  (169) 
17

$$$$
Z2156733725
     RDKit          3D

 31 31  0  0  0  0  0  0  0  0999 V2000
   10.5390   14.9440   19.2800 C   0  0  0  0  0  0  0  0  0  0  0  0
   10.3540   15.1070   20.7860 C   0  0  0  0  0  0  0  0  0  0  0  0
   10.1150   16.5550   21.0290 N   0  0  0  0  0  0  0  0  0  0  0  0
   11.6260   14.5000   21.4720 C   0  0  0  0  0  0  0  0  0  0  0  0
   12.5570   15.5470   22.0030 C   0  0  0  0  0  0  0  0  0  0  0  0
   11.4050   13.3980   22.4400 N   0  0  0  0  0  0  0  0  0  0  0  0
   10.3330   13.5670   23.4320 C   0  0  0  0  0  0  0  0  0  0  0  0
    9.7030   12.2290   23.7230 C   0  0  0  0  0  0  0  0  0  0  0  0
   10.2140   11.1010   23.1990 N   0  0  0  0  0  0  0  0  0  0  0  0
    9.3990   10.1330   23.6530 N   0  0  0  0  0  0  0  0  0  0  0  0
    9.6550    8.7730   23.2590 C   0  0  0  0  0  0  0  0  0  0  0  0
    8.3980   10.5930   24.4540 C   0  0  0  0  0  0  0  0  0  0  0  0
    8.5650   11.9540   24.5210 C   0  0  0  0  0  0  0  0  0  0  0  0
   10.8260   13.9210   19.0220 H   0  0  0  0  0  0  0  0  0  0  0  0
    9.6230   15.1950   18.7320 H   0  0  0  0  0  0  0  0  0  0  0  0
   11.3380   15.5970   18.9090 H   0  0  0  0  0  0  0  0  0  0  0  0
    9.4580   14.5500   21.0870 H   0  0  0  0  0  0  0  0  0  0  0  0
    9.1020   16.7060   21.1660 H   0  0  0  0  0  0  0  0  0  0  0  0
   10.5500   16.9210   21.8860 H   0  0  0  0  0  0  0  0  0  0  0  0
   12.1850   14.0080   20.6630 H   0  0  0  0  0  0  0  0  0  0  0  0
   11.9880   16.3500   22.4810 H   0  0  0  0  0  0  0  0  0  0  0  0
   13.1900   15.9770   21.2210 H   0  0  0  0  0  0  0  0  0  0  0  0
   13.2040   15.1050   22.7580 H   0  0  0  0  0  0  0  0  0  0  0  0
   11.2020   12.5770   21.8440 H   0  0  0  0  0  0  0  0  0  0  0  0
    9.5870   14.2570   23.0300 H   0  0  0  0  0  0  0  0  0  0  0  0
   10.6860   13.9820   24.3830 H   0  0  0  0  0  0  0  0  0  0  0  0
    8.7940    8.1530   23.5210 H   0  0  0  0  0  0  0  0  0  0  0  0
   10.5490    8.4140   23.7740 H   0  0  0  0  0  0  0  0  0  0  0  0
    9.8220    8.7640   22.1790 H   0  0  0  0  0  0  0  0  0  0  0  0
    7.6650    9.9370   24.8990 H   0  0  0  0  0  0  0  0  0  0  0  0
    7.9530   12.6580   25.0650 H   0  0  0  0  0  0  0  0  0  0  0  0
  1  2  1  0
  2  3  1  0
  2  4  1  0
  4  5  1  0
  4  6  1  0
  6  7  1  0
  7  8  1  0
  8  9  2  0
  9 10  1  0
 10 11  1  0
 10 12  1  0
 12 13  2  0
 13  8  1  0
  1 14  1  0
  1 15  1  0
  1 16  1  0
  2 17  1  0
  3 18  1  0
  3 19  1  0
  4 20  1  0
  5 21  1  0
  5 22  1  0
  5 23  1  0
  6 24  1  0
  7 25  1  0
  7 26  1  0
 11 27  1  0
 11 28  1  0
 11 29  1  0
 12 30  1  0
 13 31  1  0
A    1
 C1 
A    2
 C2 
A    3
 N1 
A    4
 C3 
A    5
 C4 
A    6
 N2 
A    7
 C5 
A    8
 C6 
A    9
 N3 
A   10
 N4 
A   11
 C7 
A   12
 C8 
A   13
 C9 
A   14
 H1 
A   15
 H2 
A   16
 H3 
A   17
 H4 
A   18
 H5 
A   19
 H6 
A   20
 H7 
A   21
 H8 
A   22
 H9 
A   23
 H10
A   24
 H11
A   25
 H12
A   26
 H13
A   27
 H14
A   28
 H15
A   29
 H16
A   30
 H17
A   31
 H18
M  END
>  <ref_pdb>  (170) 
x0554_0A

>  <ref_mols>  (170) 
x0451_0A

>  <original SMILES>  (170) 
CC(N)C(C)NCc1ccn(C)n1

>  <rationale>  (170) 
info cluster #9 (rank 17); hbond:H21+S87; hydroph_interaction:Y89; 

>  <cluster_rank>  (170) 
17

>  <N_interactions>  (170) 
3

>  <N_interactions_lost>  (170) 
1

>  <∆∆G>  (170) 
-8.27403

>  <comRMSD>  (170) 
0.82973

>  <N_rotatable_bonds>  (170) 
8

>  <N_unconstrained_atoms>  (170) 
1

>  <N_constrained_atoms>  (170) 
14

$$$$
Z2454495857
     RDKit          3D

 34 35  0  0  0  0  0  0  0  0999 V2000
   10.2630    8.8620   23.5550 C   0  0  0  0  0  0  0  0  0  0  0  0
    9.5070   10.0490   24.0430 C   0  0  0  0  0  0  0  0  0  0  0  0
    8.4090    9.9170   24.8710 C   0  0  0  0  0  0  0  0  0  0  0  0
    7.6810   11.0180   25.3190 C   0  0  0  0  0  0  0  0  0  0  0  0
    8.0430   12.3210   24.9600 C   0  0  0  0  0  0  0  0  0  0  0  0
    7.2750   13.4410   25.4400 N   0  0  0  0  0  0  0  0  0  0  0  0
    5.9740   13.5450   25.9900 C   0  0  0  0  0  0  0  0  0  0  0  0
    5.3050   14.5760   26.0370 O   0  0  0  0  0  0  0  0  0  0  0  0
    5.3600   12.2570   26.5930 C   0  0  0  0  0  0  0  0  0  0  0  0
    6.1270   11.7980   27.8010 C   0  0  0  0  0  0  0  0  0  0  0  0
    5.4640   12.5370   28.9350 C   0  0  0  0  0  0  0  0  0  0  0  0
    4.0150   12.5110   28.5100 C   0  0  0  0  0  0  0  0  0  0  0  0
    4.0050   12.4270   27.0730 O   0  0  0  0  0  0  0  0  0  0  0  0
    9.2180   12.4530   24.1040 C   0  0  0  0  0  0  0  0  0  0  0  0
    9.8340   13.7270   23.6020 C   0  0  0  0  0  0  0  0  0  0  0  0
   10.3990   13.7570   22.3350 N   0  0  0  0  0  0  0  0  0  0  0  0
    9.8890   14.7310   24.3000 O   0  0  0  0  0  0  0  0  0  0  0  0
    9.9040   11.3130   23.6720 C   0  0  0  0  0  0  0  0  0  0  0  0
    9.5850    8.0130   23.4220 H   0  0  0  0  0  0  0  0  0  0  0  0
   11.0450    8.5930   24.2690 H   0  0  0  0  0  0  0  0  0  0  0  0
   10.7540    9.0780   22.5990 H   0  0  0  0  0  0  0  0  0  0  0  0
    8.1000    8.9370   25.1850 H   0  0  0  0  0  0  0  0  0  0  0  0
    6.8300   10.8140   25.9590 H   0  0  0  0  0  0  0  0  0  0  0  0
    7.7390   14.3490   25.3330 H   0  0  0  0  0  0  0  0  0  0  0  0
    5.3310   11.4850   25.8220 H   0  0  0  0  0  0  0  0  0  0  0  0
    7.1910   12.0070   27.7060 H   0  0  0  0  0  0  0  0  0  0  0  0
    5.9980   10.7170   27.9330 H   0  0  0  0  0  0  0  0  0  0  0  0
    5.6350   12.0810   29.9140 H   0  0  0  0  0  0  0  0  0  0  0  0
    5.8300   13.5700   28.9650 H   0  0  0  0  0  0  0  0  0  0  0  0
    3.5050   11.6260   28.9060 H   0  0  0  0  0  0  0  0  0  0  0  0
    3.4660   13.4020   28.8300 H   0  0  0  0  0  0  0  0  0  0  0  0
   10.9230   14.5610   22.0200 H   0  0  0  0  0  0  0  0  0  0  0  0
   10.6250   12.8640   21.8770 H   0  0  0  0  0  0  0  0  0  0  0  0
   10.7770   11.4140   23.0260 H   0  0  0  0  0  0  0  0  0  0  0  0
  1  2  1  0
  2  3  2  0
  3  4  1  0
  4  5  2  0
  5  6  1  0
  6  7  1  0
  7  8  2  0
  7  9  1  0
  9 10  1  0
 10 11  1  0
 11 12  1  0
 12 13  1  0
  5 14  1  0
 14 15  1  0
 15 16  1  0
 15 17  2  0
 14 18  2  0
 18  2  1  0
 13  9  1  0
  1 19  1  0
  1 20  1  0
  1 21  1  0
  3 22  1  0
  4 23  1  0
  6 24  1  0
  9 25  1  0
 10 26  1  0
 10 27  1  0
 11 28  1  0
 11 29  1  0
 12 30  1  0
 12 31  1  0
 16 32  1  0
 16 33  1  0
 18 34  1  0
A    1
 C1 
A    2
 C2 
A    3
 C3 
A    4
 C4 
A    5
 C5 
A    6
 N1 
A    7
 C6 
A    8
 O1 
A    9
 C7 
A   10
 C8 
A   11
 C9 
A   12
 C10
A   13
 O2 
A   14
 C11
A   15
 C12
A   16
 N2 
A   17
 O3 
A   18
 C13
A   19
 H1 
A   20
 H2 
A   21
 H3 
A   22
 H4 
A   23
 H5 
A   24
 H6 
A   25
 H7 
A   26
 H8 
A   27
 H9 
A   28
 H10
A   29
 H11
A   30
 H12
A   31
 H13
A   32
 H14
A   33
 H15
A   34
 H16
M  END
>  <ref_pdb>  (171) 
x0554_0A

>  <ref_mols>  (171) 
x0416_0A,x0451_0A

>  <original SMILES>  (171) 
Cc1ccc(NC(=O)C2CCCO2)c(C(N)=O)c1

>  <rationale>  (171) 
info cluster #8 (rank 18); hbond:S125; hydroph_interaction:P107+D109+V124; 

>  <cluster_rank>  (171) 
18

>  <N_interactions>  (171) 
4

>  <N_interactions_lost>  (171) 
1

>  <∆∆G>  (171) 
-7.250696

>  <comRMSD>  (171) 
0.644071

>  <N_rotatable_bonds>  (171) 
4

>  <N_unconstrained_atoms>  (171) 
0

>  <N_constrained_atoms>  (171) 
20

$$$$
Z1416026731
     RDKit          3D

 23 23  0  0  0  0  0  0  0  0999 V2000
   11.8400   14.1260   22.3710 C   0  0  0  0  0  0  0  0  0  0  0  0
   11.0940   13.4180   23.4820 C   0  0  0  0  0  0  0  0  0  0  0  0
   11.0300   13.9200   24.5960 O   0  0  0  0  0  0  0  0  0  0  0  0
   10.5310   12.2090   23.1050 N   0  0  0  0  0  0  0  0  0  0  0  0
    9.5270   11.4610   23.8060 C   0  0  0  0  0  0  0  0  0  0  0  0
    9.3910   10.0720   23.7510 C   0  0  0  0  0  0  0  0  0  0  0  0
   10.1950    9.2120   23.0130 C   0  0  0  0  0  0  0  0  0  0  0  0
    8.1110    9.4740   24.6950 S   0  0  0  0  0  0  0  0  0  0  0  0
    7.6530   11.0230   25.2270 C   0  0  0  0  0  0  0  0  0  0  0  0
    6.5040   11.1460   26.1340 C   0  0  0  0  0  0  0  0  0  0  0  0
    6.0180   10.0010   26.6970 N   0  0  0  0  0  0  0  0  0  0  0  0
    5.9310   12.1930   26.4380 O   0  0  0  0  0  0  0  0  0  0  0  0
    8.4970   11.9870   24.6720 C   0  0  0  0  0  0  0  0  0  0  0  0
   11.8500   13.5050   21.4780 H   0  0  0  0  0  0  0  0  0  0  0  0
   12.8670   14.3460   22.6700 H   0  0  0  0  0  0  0  0  0  0  0  0
   11.3460   15.0740   22.1500 H   0  0  0  0  0  0  0  0  0  0  0  0
   10.7600   11.8720   22.1590 H   0  0  0  0  0  0  0  0  0  0  0  0
    9.5560    8.4440   22.5640 H   0  0  0  0  0  0  0  0  0  0  0  0
   10.7850    9.6320   22.2030 H   0  0  0  0  0  0  0  0  0  0  0  0
   10.8990    8.6830   23.6600 H   0  0  0  0  0  0  0  0  0  0  0  0
    5.1080    9.7120   26.3650 H   0  0  0  0  0  0  0  0  0  0  0  0
    6.2740    9.7120   27.6260 H   0  0  0  0  0  0  0  0  0  0  0  0
    8.3800   13.0410   24.8840 H   0  0  0  0  0  0  0  0  0  0  0  0
  1  2  1  0
  2  3  2  0
  2  4  1  0
  4  5  1  0
  5  6  2  0
  6  7  1  0
  6  8  1  0
  8  9  1  0
  9 10  1  0
 10 11  1  0
 10 12  2  0
  9 13  2  0
 13  5  1  0
  1 14  1  0
  1 15  1  0
  1 16  1  0
  4 17  1  0
  7 18  1  0
  7 19  1  0
  7 20  1  0
 11 21  1  0
 11 22  1  0
 13 23  1  0
A    1
 C1 
A    2
 C2 
A    3
 O1 
A    4
 N1 
A    5
 C3 
A    6
 C4 
A    7
 C5 
A    8
 S1 
A    9
 C6 
A   10
 C7 
A   11
 N2 
A   12
 O2 
A   13
 C8 
A   14
 H1 
A   15
 H2 
A   16
 H3 
A   17
 H4 
A   18
 H5 
A   19
 H6 
A   20
 H7 
A   21
 H8 
A   22
 H9 
A   23
 H10
M  END
>  <ref_pdb>  (172) 
x0554_0A

>  <ref_mols>  (172) 
x0556_0A,x0554_0A

>  <original SMILES>  (172) 
CC(=O)Nc1cc(C(N)=O)sc1C

>  <rationale>  (172) 
info cluster #5 (rank 18); hbond:S105+S125; hydroph_interaction:Y89+V124; 

>  <cluster_rank>  (172) 
18

>  <N_interactions>  (172) 
4

>  <N_interactions_lost>  (172) 
2

>  <∆∆G>  (172) 
-8.902944

>  <comRMSD>  (172) 
0.582822

>  <N_rotatable_bonds>  (172) 
4

>  <N_unconstrained_atoms>  (172) 
0

>  <N_constrained_atoms>  (172) 
14

$$$$
Z3563023562
     RDKit          3D

 29 29  0  0  0  0  0  0  0  0999 V2000
    9.0060    8.6450   23.8910 C   0  0  0  0  0  0  0  0  0  0  0  0
    8.7540   10.0880   24.2080 C   0  0  0  0  0  0  0  0  0  0  0  0
    9.5760   11.0270   23.6110 C   0  0  0  0  0  0  0  0  0  0  0  0
    9.4160   12.3870   23.8410 C   0  0  0  0  0  0  0  0  0  0  0  0
   10.2530   13.2900   23.2260 C   0  0  0  0  0  0  0  0  0  0  0  0
    9.4030   14.1220   22.4460 O   0  0  0  0  0  0  0  0  0  0  0  0
   10.0700   15.2060   22.0350 C   0  0  0  0  0  0  0  0  0  0  0  0
   10.7520   15.8730   22.8090 O   0  0  0  0  0  0  0  0  0  0  0  0
    9.9250   15.5480   20.5530 C   0  0  0  0  0  0  0  0  0  0  0  0
   11.0620   14.9220   19.7540 C   0  0  0  0  0  0  0  0  0  0  0  0
    9.8490   17.0570   20.3880 C   0  0  0  0  0  0  0  0  0  0  0  0
    8.4120   12.7990   24.6860 C   0  0  0  0  0  0  0  0  0  0  0  0
    7.5350   11.8760   25.3360 N   0  0  0  0  0  0  0  0  0  0  0  0
    7.7520   10.5960   25.0640 C   0  0  0  0  0  0  0  0  0  0  0  0
    6.5870    9.7540   25.9560 Cl  0  0  0  0  0  0  0  0  0  0  0  0
    8.4770    8.3630   22.9750 H   0  0  0  0  0  0  0  0  0  0  0  0
    8.6650    7.9990   24.7020 H   0  0  0  0  0  0  0  0  0  0  0  0
   10.0760    8.4590   23.7500 H   0  0  0  0  0  0  0  0  0  0  0  0
   10.3720   10.7050   22.9390 H   0  0  0  0  0  0  0  0  0  0  0  0
   11.0250   12.8730   22.5840 H   0  0  0  0  0  0  0  0  0  0  0  0
   10.7380   13.9140   23.9870 H   0  0  0  0  0  0  0  0  0  0  0  0
    8.9640   15.1460   20.2250 H   0  0  0  0  0  0  0  0  0  0  0  0
   11.5840   14.1570   20.3370 H   0  0  0  0  0  0  0  0  0  0  0  0
   10.6650   14.4130   18.8650 H   0  0  0  0  0  0  0  0  0  0  0  0
   11.8210   15.6050   19.3830 H   0  0  0  0  0  0  0  0  0  0  0  0
   10.0560   17.3640   19.3560 H   0  0  0  0  0  0  0  0  0  0  0  0
   10.5740   17.5530   21.0320 H   0  0  0  0  0  0  0  0  0  0  0  0
    8.8540   17.4290   20.6580 H   0  0  0  0  0  0  0  0  0  0  0  0
    8.2290   13.8470   24.9100 H   0  0  0  0  0  0  0  0  0  0  0  0
  1  2  1  0
  2  3  2  0
  3  4  1  0
  4  5  1  0
  5  6  1  0
  6  7  1  0
  7  8  2  0
  7  9  1  0
  9 10  1  0
  9 11  1  0
  4 12  2  0
 12 13  1  0
 13 14  2  0
 14 15  1  0
 14  2  1  0
  1 16  1  0
  1 17  1  0
  1 18  1  0
  3 19  1  0
  5 20  1  0
  5 21  1  0
  9 22  1  0
 10 23  1  0
 10 24  1  0
 10 25  1  0
 11 26  1  0
 11 27  1  0
 11 28  1  0
 12 29  1  0
A    1
 C1 
A    2
 C2 
A    3
 C3 
A    4
 C4 
A    5
 C5 
A    6
 O1 
A    7
 C6 
A    8
 O2 
A    9
 C7 
A   10
 C8 
A   11
 C9 
A   12
 C10
A   13
 N1 
A   14
 C11
A   15
CL1 
A   16
 H1 
A   17
 H2 
A   18
 H3 
A   19
 H4 
A   20
 H5 
A   21
 H6 
A   22
 H7 
A   23
 H8 
A   24
 H9 
A   25
 H10
A   26
 H11
A   27
 H12
A   28
 H13
A   29
 H14
M  END
>  <ref_pdb>  (173) 
x0554_0A

>  <ref_mols>  (173) 
x0416_0A

>  <original SMILES>  (173) 
Cc1cc(COC(=O)C(C)C)cnc1Cl

>  <rationale>  (173) 
info cluster #2 (rank 18); hbond:S87; hydroph_interaction:Y90+D109+V84; 

>  <cluster_rank>  (173) 
18

>  <N_interactions>  (173) 
4

>  <N_interactions_lost>  (173) 
1

>  <∆∆G>  (173) 
-8.592722

>  <comRMSD>  (173) 
0.796174

>  <N_rotatable_bonds>  (173) 
6

>  <N_unconstrained_atoms>  (173) 
3

>  <N_constrained_atoms>  (173) 
12

$$$$
PV_003156159307
     RDKit          3D

 23 24  0  0  0  0  0  0  0  0999 V2000
   12.1130   14.8560   21.9190 C   0  0  0  0  0  0  0  0  0  0  0  0
   11.5750   13.5600   22.4640 C   0  0  0  0  0  0  0  0  0  0  0  0
   10.2620   13.3340   23.1470 C   0  0  0  0  0  0  0  0  0  0  0  0
    9.7970   12.0830   23.6350 C   0  0  0  0  0  0  0  0  0  0  0  0
   10.3210   10.8300   23.2930 C   0  0  0  0  0  0  0  0  0  0  0  0
    9.7500    9.5830   23.8630 C   0  0  0  0  0  0  0  0  0  0  0  0
    8.6860    9.6630   24.7470 C   0  0  0  0  0  0  0  0  0  0  0  0
    8.1570   10.9120   25.0860 C   0  0  0  0  0  0  0  0  0  0  0  0
    8.7160   12.0990   24.5300 C   0  0  0  0  0  0  0  0  0  0  0  0
    8.0350   13.2050   25.0080 N   0  0  0  0  0  0  0  0  0  0  0  0
    6.9790   12.7950   25.9140 C   0  0  0  0  0  0  0  0  0  0  0  0
    7.0810   11.2690   25.9490 C   0  0  0  0  0  0  0  0  0  0  0  0
   12.1740   14.7950   20.8320 H   0  0  0  0  0  0  0  0  0  0  0  0
   13.1050   15.0450   22.3220 H   0  0  0  0  0  0  0  0  0  0  0  0
   11.4570   15.6900   22.1880 H   0  0  0  0  0  0  0  0  0  0  0  0
   12.2270   12.6850   22.3410 H   0  0  0  0  0  0  0  0  0  0  0  0
    9.5380   14.1440   23.3180 H   0  0  0  0  0  0  0  0  0  0  0  0
   11.1590   10.8540   22.5920 H   0  0  0  0  0  0  0  0  0  0  0  0
   10.2220    8.6450   23.5440 H   0  0  0  0  0  0  0  0  0  0  0  0
    8.2740    8.7660   25.1740 H   0  0  0  0  0  0  0  0  0  0  0  0
    8.2500   14.1570   24.7550 H   0  0  0  0  0  0  0  0  0  0  0  0
    6.3230   13.5020   26.4000 H   0  0  0  0  0  0  0  0  0  0  0  0
    6.4550   10.5970   26.5210 H   0  0  0  0  0  0  0  0  0  0  0  0
  1  2  1  0
  2  3  2  0
  3  4  1  0
  4  5  2  0
  5  6  1  0
  6  7  2  0
  7  8  1  0
  8  9  2  0
  9 10  1  0
 10 11  1  0
 11 12  2  0
  9  4  1  0
 12  8  1  0
  1 13  1  0
  1 14  1  0
  1 15  1  0
  2 16  1  0
  3 17  1  0
  5 18  1  0
  6 19  1  0
  7 20  1  0
 10 21  1  0
 11 22  1  0
 12 23  1  0
A    1
 C1 
A    2
 C2 
A    3
 C3 
A    4
 C4 
A    5
 C5 
A    6
 C6 
A    7
 C7 
A    8
 C8 
A    9
 C9 
A   10
 N1 
A   11
 C10
A   12
 C11
A   13
 H1 
A   14
 H2 
A   15
 H3 
A   16
 H4 
A   17
 H5 
A   18
 H6 
A   19
 H7 
A   20
 H8 
A   21
 H9 
A   22
 H10
A   23
 H11
M  END
>  <ref_pdb>  (174) 
x0554_0A

>  <ref_mols>  (174) 
x0554_0A,x0451_0A

>  <original SMILES>  (174) 
C/C=C/c1cccc2cc[nH]c12

>  <rationale>  (174) 
info cluster #6 (rank 18); hydroph_interaction:Y89; 

>  <cluster_rank>  (174) 
18

>  <N_interactions>  (174) 
1

>  <N_interactions_lost>  (174) 
0

>  <∆∆G>  (174) 
-5.92912

>  <comRMSD>  (174) 
0.814937

>  <N_rotatable_bonds>  (174) 
2

>  <N_unconstrained_atoms>  (174) 
0

>  <N_constrained_atoms>  (174) 
15

$$$$
Z1346007342
     RDKit          3D

 20 20  0  0  0  0  0  0  0  0999 V2000
   11.9240   14.3570   22.1370 C   0  0  0  0  0  0  0  0  0  0  0  0
   11.3280   13.5590   23.2610 C   0  0  0  0  0  0  0  0  0  0  0  0
   11.1920   14.0560   24.3760 O   0  0  0  0  0  0  0  0  0  0  0  0
   10.9740   12.2790   22.9030 N   0  0  0  0  0  0  0  0  0  0  0  0
   10.0500   11.5320   23.6290 C   0  0  0  0  0  0  0  0  0  0  0  0
    9.1190   12.2260   24.3790 C   0  0  0  0  0  0  0  0  0  0  0  0
    8.0740   11.5040   25.2180 C   0  0  0  0  0  0  0  0  0  0  0  0
    6.8230   12.4530   26.2280 Br  0  0  0  0  0  0  0  0  0  0  0  0
    8.1140   10.0010   25.1820 C   0  0  0  0  0  0  0  0  0  0  0  0
    9.0630    9.3360   24.4070 C   0  0  0  0  0  0  0  0  0  0  0  0
   10.0660   10.1290   23.6020 C   0  0  0  0  0  0  0  0  0  0  0  0
   10.9940    9.4760   22.8490 O   0  0  0  0  0  0  0  0  0  0  0  0
   12.1100   13.6970   21.2870 H   0  0  0  0  0  0  0  0  0  0  0  0
   12.8720   14.7970   22.4530 H   0  0  0  0  0  0  0  0  0  0  0  0
   11.2310   15.1420   21.8290 H   0  0  0  0  0  0  0  0  0  0  0  0
   11.0850   11.9800   21.9410 H   0  0  0  0  0  0  0  0  0  0  0  0
    9.1370   13.3120   24.3710 H   0  0  0  0  0  0  0  0  0  0  0  0
    7.3960    9.4400   25.7670 H   0  0  0  0  0  0  0  0  0  0  0  0
    9.0490    8.2300   24.4100 H   0  0  0  0  0  0  0  0  0  0  0  0
   10.5360    8.7820   22.3420 H   0  0  0  0  0  0  0  0  0  0  0  0
  1  2  1  0
  2  3  2  0
  2  4  1  0
  4  5  1  0
  5  6  2  0
  6  7  1  0
  7  8  1  0
  7  9  2  0
  9 10  1  0
 10 11  2  0
 11 12  1  0
 11  5  1  0
  1 13  1  0
  1 14  1  0
  1 15  1  0
  4 16  1  0
  6 17  1  0
  9 18  1  0
 10 19  1  0
 12 20  1  0
A    1
 C1 
A    2
 C2 
A    3
 O1 
A    4
 N1 
A    5
 C3 
A    6
 C4 
A    7
 C5 
A    8
BR1 
A    9
 C6 
A   10
 C7 
A   11
 C8 
A   12
 O2 
A   13
 H1 
A   14
 H2 
A   15
 H3 
A   16
 H4 
A   17
 H5 
A   18
 H6 
A   19
 H7 
A   20
 H8 
M  END
>  <ref_pdb>  (175) 
x0554_0A

>  <ref_mols>  (175) 
x0554_0A,x0556_0A

>  <original SMILES>  (175) 
CC(=O)Nc1cc(Br)ccc1O

>  <rationale>  (175) 
info cluster #0 (rank 18); hbond:A110+S125; 

>  <cluster_rank>  (175) 
18

>  <N_interactions>  (175) 
3

>  <N_interactions_lost>  (175) 
1

>  <∆∆G>  (175) 
-5.465522

>  <comRMSD>  (175) 
0.981774

>  <N_rotatable_bonds>  (175) 
3

>  <N_unconstrained_atoms>  (175) 
1

>  <N_constrained_atoms>  (175) 
12

$$$$
Z5290484651
     RDKit          3D

 38 39  0  0  0  0  0  0  0  0999 V2000
   11.6930   14.2610   22.1620 C   0  0  0  0  0  0  0  0  0  0  0  0
   10.3420   13.8150   22.3920 O   0  0  0  0  0  0  0  0  0  0  0  0
    9.9040   13.9370   23.6770 C   0  0  0  0  0  0  0  0  0  0  0  0
   10.0590   14.9230   24.3720 O   0  0  0  0  0  0  0  0  0  0  0  0
    9.2050   12.6420   24.1740 C   0  0  0  0  0  0  0  0  0  0  0  0
    9.9010   11.5310   23.7000 C   0  0  0  0  0  0  0  0  0  0  0  0
    9.4510   10.1160   24.0520 C   0  0  0  0  0  0  0  0  0  0  0  0
   10.1390    8.9900   23.5760 C   0  0  0  0  0  0  0  0  0  0  0  0
    8.3510   10.0420   24.8560 C   0  0  0  0  0  0  0  0  0  0  0  0
    7.6460   11.2000   25.3160 N   0  0  0  0  0  0  0  0  0  0  0  0
    8.0310   12.4520   25.0000 C   0  0  0  0  0  0  0  0  0  0  0  0
    7.2280   13.5210   25.5310 N   0  0  0  0  0  0  0  0  0  0  0  0
    5.8910   13.5460   26.0040 C   0  0  0  0  0  0  0  0  0  0  0  0
    5.1340   14.5090   25.9720 O   0  0  0  0  0  0  0  0  0  0  0  0
    5.4210   12.3540   26.5760 C   0  0  0  0  0  0  0  0  0  0  0  0
    6.1380   11.7900   27.7620 C   0  0  0  0  0  0  0  0  0  0  0  0
    5.4210   12.1770   29.0610 C   0  0  0  0  0  0  0  0  0  0  0  0
    6.2080   13.2210   29.8520 C   0  0  0  0  0  0  0  0  0  0  0  0
    4.1030   12.7210   28.5120 C   0  0  0  0  0  0  0  0  0  0  0  0
    4.0670   12.4840   27.0820 O   0  0  0  0  0  0  0  0  0  0  0  0
   11.7100   15.3530   22.1560 H   0  0  0  0  0  0  0  0  0  0  0  0
   12.0690   13.9000   21.1990 H   0  0  0  0  0  0  0  0  0  0  0  0
   12.3710   13.8920   22.9360 H   0  0  0  0  0  0  0  0  0  0  0  0
   10.7810   11.6670   23.0690 H   0  0  0  0  0  0  0  0  0  0  0  0
    9.4710    8.1240   23.5090 H   0  0  0  0  0  0  0  0  0  0  0  0
   10.9550    8.7230   24.2510 H   0  0  0  0  0  0  0  0  0  0  0  0
   10.5540    9.1950   22.5840 H   0  0  0  0  0  0  0  0  0  0  0  0
    7.9470    9.1030   25.1960 H   0  0  0  0  0  0  0  0  0  0  0  0
    7.6980   14.4200   25.6220 H   0  0  0  0  0  0  0  0  0  0  0  0
    5.3830   11.6070   25.7800 H   0  0  0  0  0  0  0  0  0  0  0  0
    7.1850   12.0900   27.7470 H   0  0  0  0  0  0  0  0  0  0  0  0
    6.1230   10.6960   27.6810 H   0  0  0  0  0  0  0  0  0  0  0  0
    5.2540   11.3100   29.7090 H   0  0  0  0  0  0  0  0  0  0  0  0
    5.5440   14.0100   30.2190 H   0  0  0  0  0  0  0  0  0  0  0  0
    6.7210   12.7820   30.7150 H   0  0  0  0  0  0  0  0  0  0  0  0
    6.9690   13.6890   29.2170 H   0  0  0  0  0  0  0  0  0  0  0  0
    4.0380   13.8050   28.6610 H   0  0  0  0  0  0  0  0  0  0  0  0
    3.2230   12.2630   28.9730 H   0  0  0  0  0  0  0  0  0  0  0  0
  1  2  1  0
  2  3  1  0
  3  4  2  0
  3  5  1  0
  5  6  2  0
  6  7  1  0
  7  8  1  0
  7  9  2  0
  9 10  1  0
 10 11  2  0
 11 12  1  0
 12 13  1  0
 13 14  2  0
 13 15  1  0
 15 16  1  0
 16 17  1  0
 17 18  1  0
 17 19  1  0
 19 20  1  0
 11  5  1  0
 20 15  1  0
  1 21  1  0
  1 22  1  0
  1 23  1  0
  6 24  1  0
  8 25  1  0
  8 26  1  0
  8 27  1  0
  9 28  1  0
 12 29  1  0
 15 30  1  0
 16 31  1  0
 16 32  1  0
 17 33  1  0
 18 34  1  0
 18 35  1  0
 18 36  1  0
 19 37  1  0
 19 38  1  0
A    1
 C1 
A    2
 O1 
A    3
 C2 
A    4
 O2 
A    5
 C3 
A    6
 C4 
A    7
 C5 
A    8
 C6 
A    9
 C7 
A   10
 N1 
A   11
 C8 
A   12
 N2 
A   13
 C9 
A   14
 O3 
A   15
 C10
A   16
 C11
A   17
 C12
A   18
 C13
A   19
 C14
A   20
 O4 
A   21
 H1 
A   22
 H2 
A   23
 H3 
A   24
 H4 
A   25
 H5 
A   26
 H6 
A   27
 H7 
A   28
 H8 
A   29
 H9 
A   30
 H10
A   31
 H11
A   32
 H12
A   33
 H13
A   34
 H14
A   35
 H15
A   36
 H16
A   37
 H17
A   38
 H18
M  END
>  <ref_pdb>  (176) 
x0554_0A

>  <ref_mols>  (176) 
x0416_0A,x0451_0A

>  <original SMILES>  (176) 
COC(=O)c1cc(C)cnc1NC(=O)C1CC(C)CO1

>  <rationale>  (176) 
info cluster #7 (rank 18); hbond:S87; hydroph_interaction:D109+V124; 

>  <cluster_rank>  (176) 
18

>  <N_interactions>  (176) 
3

>  <N_interactions_lost>  (176) 
0

>  <∆∆G>  (176) 
-6.858206

>  <comRMSD>  (176) 
0.617502

>  <N_rotatable_bonds>  (176) 
6

>  <N_unconstrained_atoms>  (176) 
1

>  <N_constrained_atoms>  (176) 
21

$$$$
Z5282317946
     RDKit          3D

 32 33  0  0  0  0  0  0  0  0999 V2000
   11.1090   14.8460   19.7100 C   0  0  0  0  0  0  0  0  0  0  0  0
   10.1730   15.3360   20.8100 C   0  0  0  0  0  0  0  0  0  0  0  0
   10.0480   16.8230   20.7600 N   0  0  0  0  0  0  0  0  0  0  0  0
   10.6140   14.8670   22.1980 C   0  0  0  0  0  0  0  0  0  0  0  0
   10.8770   15.6810   23.0830 O   0  0  0  0  0  0  0  0  0  0  0  0
   10.6640   13.4770   22.2820 N   0  0  0  0  0  0  0  0  0  0  0  0
   10.8860   12.6900   23.4110 C   0  0  0  0  0  0  0  0  0  0  0  0
   10.0230   11.6350   23.7870 C   0  0  0  0  0  0  0  0  0  0  0  0
   10.2080   10.3060   23.3790 C   0  0  0  0  0  0  0  0  0  0  0  0
    9.3620    9.3050   23.7840 C   0  0  0  0  0  0  0  0  0  0  0  0
    8.2040    9.6110   24.6860 C   0  0  0  0  0  0  0  0  0  0  0  0
    8.0090   10.9170   25.0800 C   0  0  0  0  0  0  0  0  0  0  0  0
    8.9050   11.9070   24.6330 C   0  0  0  0  0  0  0  0  0  0  0  0
    8.4630   13.1840   25.1940 N   0  0  0  0  0  0  0  0  0  0  0  0
    7.2930   12.9500   25.9150 C   0  0  0  0  0  0  0  0  0  0  0  0
    6.5870   13.7970   26.4710 O   0  0  0  0  0  0  0  0  0  0  0  0
    6.9350   11.4970   25.9700 C   0  0  0  0  0  0  0  0  0  0  0  0
   10.8510   13.8320   19.3940 H   0  0  0  0  0  0  0  0  0  0  0  0
   11.0260   15.4920   18.8310 H   0  0  0  0  0  0  0  0  0  0  0  0
   12.1520   14.8340   20.0460 H   0  0  0  0  0  0  0  0  0  0  0  0
    9.1790   14.9180   20.6060 H   0  0  0  0  0  0  0  0  0  0  0  0
    9.0560   17.0620   20.6650 H   0  0  0  0  0  0  0  0  0  0  0  0
   10.3470   17.2600   21.6420 H   0  0  0  0  0  0  0  0  0  0  0  0
   10.8580   13.0290   21.3800 H   0  0  0  0  0  0  0  0  0  0  0  0
   11.8790   12.2550   23.2330 H   0  0  0  0  0  0  0  0  0  0  0  0
   11.0260   13.3650   24.2610 H   0  0  0  0  0  0  0  0  0  0  0  0
   11.0530   10.0620   22.7240 H   0  0  0  0  0  0  0  0  0  0  0  0
    9.5500    8.2800   23.4410 H   0  0  0  0  0  0  0  0  0  0  0  0
    7.5500    8.8240   25.0120 H   0  0  0  0  0  0  0  0  0  0  0  0
    8.6840   14.1120   24.8300 H   0  0  0  0  0  0  0  0  0  0  0  0
    7.0150   11.1270   26.9920 H   0  0  0  0  0  0  0  0  0  0  0  0
    5.9310   11.3270   25.5810 H   0  0  0  0  0  0  0  0  0  0  0  0
  1  2  1  0
  2  3  1  0
  2  4  1  0
  4  5  2  0
  4  6  1  0
  6  7  1  0
  7  8  1  0
  8  9  2  0
  9 10  1  0
 10 11  2  0
 11 12  1  0
 12 13  2  0
 13 14  1  0
 14 15  1  0
 15 16  2  0
 15 17  1  0
 13  8  1  0
 17 12  1  0
  1 18  1  0
  1 19  1  0
  1 20  1  0
  2 21  1  0
  3 22  1  0
  3 23  1  0
  6 24  1  0
  7 25  1  0
  7 26  1  0
  9 27  1  0
 10 28  1  0
 11 29  1  0
 14 30  1  0
 17 31  1  0
 17 32  1  0
A    1
 C1 
A    2
 C2 
A    3
 N1 
A    4
 C3 
A    5
 O1 
A    6
 N2 
A    7
 C4 
A    8
 C5 
A    9
 C6 
A   10
 C7 
A   11
 C8 
A   12
 C9 
A   13
 C10
A   14
 N3 
A   15
 C11
A   16
 O2 
A   17
 C12
A   18
 H1 
A   19
 H2 
A   20
 H3 
A   21
 H4 
A   22
 H5 
A   23
 H6 
A   24
 H7 
A   25
 H8 
A   26
 H9 
A   27
 H10
A   28
 H11
A   29
 H12
A   30
 H13
A   31
 H14
A   32
 H15
M  END
>  <ref_pdb>  (177) 
x0554_0A

>  <ref_mols>  (177) 
x0554_0A

>  <original SMILES>  (177) 
CC(N)C(=O)NCc1cccc2c1NC(=O)C2

>  <rationale>  (177) 
info cluster #3 (rank 18); hbond:S87+S125; 

>  <cluster_rank>  (177) 
18

>  <N_interactions>  (177) 
3

>  <N_interactions_lost>  (177) 
1

>  <∆∆G>  (177) 
-8.061207

>  <comRMSD>  (177) 
0.442487

>  <N_rotatable_bonds>  (177) 
5

>  <N_unconstrained_atoms>  (177) 
3

>  <N_constrained_atoms>  (177) 
14

$$$$
Z3953578298
     RDKit          3D

 22 23  0  0  0  0  0  0  0  0999 V2000
    9.4130   15.1330   21.2270 C   0  0  0  0  0  0  0  0  0  0  0  0
    9.0290   14.2440   22.2930 N   0  0  0  0  0  0  0  0  0  0  0  0
   10.2850   13.6670   23.2630 S   0  0  0  0  0  6  0  0  0  0  0  0
   11.4430   13.4850   22.4210 O   0  0  0  0  0  0  0  0  0  0  0  0
   10.3550   14.4960   24.4400 O   0  0  0  0  0  0  0  0  0  0  0  0
    9.7000   12.0820   23.7750 C   0  0  0  0  0  0  0  0  0  0  0  0
   10.3670   10.8530   23.2820 C   0  0  0  0  0  0  0  0  0  0  0  0
    9.9410    9.5960   23.6580 C   0  0  0  0  0  0  0  0  0  0  0  0
    8.7980    9.5060   24.5760 C   0  0  0  0  0  0  0  0  0  0  0  0
    8.1650   10.6560   25.0450 C   0  0  0  0  0  0  0  0  0  0  0  0
    8.5970   11.9590   24.6560 C   0  0  0  0  0  0  0  0  0  0  0  0
    7.8790   12.9880   25.1920 N   0  0  0  0  0  0  0  0  0  0  0  0
    6.8290   12.5030   26.0420 C   0  0  0  0  0  0  0  0  0  0  0  0
    6.7990   10.7920   26.1250 S   0  0  0  0  0  0  0  0  0  0  0  0
    8.5280   15.6340   20.8240 H   0  0  0  0  0  0  0  0  0  0  0  0
   10.0940   15.8920   21.6230 H   0  0  0  0  0  0  0  0  0  0  0  0
    9.9250   14.5880   20.4270 H   0  0  0  0  0  0  0  0  0  0  0  0
    8.2700   14.5380   22.8990 H   0  0  0  0  0  0  0  0  0  0  0  0
   11.2150   10.9320   22.6010 H   0  0  0  0  0  0  0  0  0  0  0  0
   10.3470    8.6320   23.3610 H   0  0  0  0  0  0  0  0  0  0  0  0
    8.5330    8.4810   24.8300 H   0  0  0  0  0  0  0  0  0  0  0  0
    6.1240   13.1470   26.5810 H   0  0  0  0  0  0  0  0  0  0  0  0
  1  2  1  0
  2  3  1  0
  3  4  2  0
  3  5  2  0
  3  6  1  0
  6  7  2  0
  7  8  1  0
  8  9  2  0
  9 10  1  0
 10 11  2  0
 11 12  1  0
 12 13  2  0
 13 14  1  0
 11  6  1  0
 14 10  1  0
  1 15  1  0
  1 16  1  0
  1 17  1  0
  2 18  1  0
  7 19  1  0
  8 20  1  0
  9 21  1  0
 13 22  1  0
A    1
 C1 
A    2
 N1 
A    3
 S1 
A    4
 O1 
A    5
 O2 
A    6
 C2 
A    7
 C3 
A    8
 C4 
A    9
 C5 
A   10
 C6 
A   11
 C7 
A   12
 N2 
A   13
 C8 
A   14
 S2 
A   15
 H1 
A   16
 H2 
A   17
 H3 
A   18
 H4 
A   19
 H5 
A   20
 H6 
A   21
 H7 
A   22
 H8 
M  END
>  <ref_pdb>  (178) 
x0554_0A

>  <ref_mols>  (178) 
x0566_0A,x0451_0A

>  <original SMILES>  (178) 
CNS(=O)(=O)c1cccc2scnc12

>  <rationale>  (178) 
info cluster #1 (rank 18); hbond:T126; 

>  <cluster_rank>  (178) 
18

>  <N_interactions>  (178) 
1

>  <N_interactions_lost>  (178) 
0

>  <∆∆G>  (178) 
-6.134912

>  <comRMSD>  (178) 
0.605104

>  <N_rotatable_bonds>  (178) 
3

>  <N_unconstrained_atoms>  (178) 
0

>  <N_constrained_atoms>  (178) 
15

$$$$
PV_002978046853
     RDKit          3D

 22 22  0  0  0  0  0  0  0  0999 V2000
   12.0280   14.5320   21.8950 C   0  0  0  0  0  0  0  0  0  0  0  0
   10.7340   13.9740   22.1070 O   0  0  0  0  0  0  0  0  0  0  0  0
   10.4890   13.6920   23.4890 C   0  0  0  0  0  0  0  0  0  0  0  0
   10.7030   14.4860   24.3900 O   0  0  0  0  0  0  0  0  0  0  0  0
    9.9180   12.2890   23.7410 C   0  0  0  0  0  0  0  0  0  0  0  0
   10.1770   10.8830   23.3030 C   0  0  0  0  0  0  0  0  0  0  0  0
    9.2200   10.0320   23.9560 N   0  0  0  0  0  0  0  0  0  0  0  0
    9.2290    8.5910   23.7140 C   0  0  0  0  0  0  0  0  0  0  0  0
    8.3980   10.8660   24.7800 C   0  0  0  0  0  0  0  0  0  0  0  0
    7.3670   10.3310   25.5620 C   0  0  0  0  0  0  0  0  0  0  0  0
    8.8040   12.2120   24.6590 C   0  0  0  0  0  0  0  0  0  0  0  0
   12.3950   14.2860   20.8940 H   0  0  0  0  0  0  0  0  0  0  0  0
   12.7120   14.1270   22.6470 H   0  0  0  0  0  0  0  0  0  0  0  0
   12.0170   15.6210   21.9890 H   0  0  0  0  0  0  0  0  0  0  0  0
   10.9830   10.6620   22.5950 H   0  0  0  0  0  0  0  0  0  0  0  0
    8.9440    8.0620   24.6240 H   0  0  0  0  0  0  0  0  0  0  0  0
   10.2370    8.2700   23.4280 H   0  0  0  0  0  0  0  0  0  0  0  0
    8.5270    8.3190   22.9160 H   0  0  0  0  0  0  0  0  0  0  0  0
    7.2390   10.9520   26.4520 H   0  0  0  0  0  0  0  0  0  0  0  0
    7.6950    9.3560   25.9060 H   0  0  0  0  0  0  0  0  0  0  0  0
    6.3830   10.2300   25.1280 H   0  0  0  0  0  0  0  0  0  0  0  0
    8.3370   13.0570   25.1790 H   0  0  0  0  0  0  0  0  0  0  0  0
  1  2  1  0
  2  3  1  0
  3  4  2  0
  3  5  1  0
  5  6  2  0
  6  7  1  0
  7  8  1  0
  7  9  1  0
  9 10  1  0
  9 11  2  0
 11  5  1  0
  1 12  1  0
  1 13  1  0
  1 14  1  0
  6 15  1  0
  8 16  1  0
  8 17  1  0
  8 18  1  0
 10 19  1  0
 10 20  1  0
 10 21  1  0
 11 22  1  0
A    1
 C1 
A    2
 O1 
A    3
 C2 
A    4
 O2 
A    5
 C3 
A    6
 C4 
A    7
 N1 
A    8
 C5 
A    9
 C6 
A   10
 C7 
A   11
 C8 
A   12
 H1 
A   13
 H2 
A   14
 H3 
A   15
 H4 
A   16
 H5 
A   17
 H6 
A   18
 H7 
A   19
 H8 
A   20
 H9 
A   21
 H10
A   22
 H11
M  END
>  <ref_pdb>  (179) 
x0554_0A

>  <ref_mols>  (179) 
x0451_0A,x0310_0A

>  <original SMILES>  (179) 
COC(=O)c1cc(C)n(C)c1

>  <rationale>  (179) 
info cluster #4 (rank 18); saltbridge:H21; 

>  <cluster_rank>  (179) 
18

>  <N_interactions>  (179) 
1

>  <N_interactions_lost>  (179) 
0

>  <∆∆G>  (179) 
-6.800525

>  <comRMSD>  (179) 
0.857902

>  <N_rotatable_bonds>  (179) 
4

>  <N_unconstrained_atoms>  (179) 
0

>  <N_constrained_atoms>  (179) 
13

$$$$
PV_003459463239
     RDKit          3D

 27 27  0  0  0  0  0  0  0  0999 V2000
   11.0070   14.8610   19.9140 C   0  0  0  0  0  0  0  0  0  0  0  0
    9.9100   15.5150   20.7500 C   0  0  0  0  0  0  0  0  0  0  0  0
    9.9180   16.9650   20.5870 N   0  0  0  0  0  0  0  0  0  0  0  0
   10.0820   15.1500   22.2030 C   0  0  0  0  0  0  0  0  0  0  0  0
   10.8220   15.7470   22.9700 O   0  0  0  0  0  0  0  0  0  0  0  0
    9.2940   14.1160   22.5680 N   0  0  0  0  0  0  0  0  0  0  0  0
    9.0070   13.8840   23.8760 C   0  0  0  0  0  0  0  0  0  0  0  0
    8.6540   12.6340   24.3110 C   0  0  0  0  0  0  0  0  0  0  0  0
    9.5070   11.6360   23.8180 C   0  0  0  0  0  0  0  0  0  0  0  0
    9.3780   10.2270   24.1210 N   0  0  0  0  0  0  0  0  0  0  0  0
    8.2500   10.0610   24.9960 C   0  0  0  0  0  0  0  0  0  0  0  0
    7.4080   10.9810   25.4880 N   0  0  0  0  0  0  0  0  0  0  0  0
    7.6170   12.2630   25.1390 C   0  0  0  0  0  0  0  0  0  0  0  0
    6.7270   13.2080   25.6660 N   0  0  0  0  0  0  0  0  0  0  0  0
   11.5390   14.1120   20.5120 H   0  0  0  0  0  0  0  0  0  0  0  0
   10.5920   14.3530   19.0350 H   0  0  0  0  0  0  0  0  0  0  0  0
   11.7410   15.5930   19.5700 H   0  0  0  0  0  0  0  0  0  0  0  0
    8.9480   15.1220   20.4150 H   0  0  0  0  0  0  0  0  0  0  0  0
    9.0410   17.4040   20.3430 H   0  0  0  0  0  0  0  0  0  0  0  0
   10.2240   17.4460   21.4440 H   0  0  0  0  0  0  0  0  0  0  0  0
    8.6260   13.8540   21.8400 H   0  0  0  0  0  0  0  0  0  0  0  0
    8.2110   14.5750   24.1770 H   0  0  0  0  0  0  0  0  0  0  0  0
    9.9060   14.1670   24.4320 H   0  0  0  0  0  0  0  0  0  0  0  0
   10.3180   11.9800   23.1620 H   0  0  0  0  0  0  0  0  0  0  0  0
    8.1170    9.0170   25.2640 H   0  0  0  0  0  0  0  0  0  0  0  0
    7.0640   13.5410   26.5770 H   0  0  0  0  0  0  0  0  0  0  0  0
    5.8190   12.7950   25.8360 H   0  0  0  0  0  0  0  0  0  0  0  0
  1  2  1  0
  2  3  1  0
  2  4  1  0
  4  5  2  0
  4  6  1  0
  6  7  1  0
  7  8  1  0
  8  9  2  0
  9 10  1  0
 10 11  2  0
 11 12  1  0
 12 13  2  0
 13 14  1  0
 13  8  1  0
  1 15  1  0
  1 16  1  0
  1 17  1  0
  2 18  1  0
  3 19  1  0
  3 20  1  0
  6 21  1  0
  7 22  1  0
  7 23  1  0
  9 24  1  0
 11 25  1  0
 14 26  1  0
 14 27  1  0
A    1
 C1 
A    2
 C2 
A    3
 N1 
A    4
 C3 
A    5
 O1 
A    6
 N2 
A    7
 C4 
A    8
 C5 
A    9
 C6 
A   10
 N3 
A   11
 C7 
A   12
 N4 
A   13
 C8 
A   14
 N5 
A   15
 H1 
A   16
 H2 
A   17
 H3 
A   18
 H4 
A   19
 H5 
A   20
 H6 
A   21
 H7 
A   22
 H8 
A   23
 H9 
A   24
 H10
A   25
 H11
A   26
 H12
A   27
 H13
M  END
>  <ref_pdb>  (180) 
x0554_0A

>  <ref_mols>  (180) 
x0416_0A

>  <original SMILES>  (180) 
CC(N)C(=O)NCc1cncnc1N

>  <rationale>  (180) 
info cluster #9 (rank 18); hbond:S87+T126; 

>  <cluster_rank>  (180) 
18

>  <N_interactions>  (180) 
3

>  <N_interactions_lost>  (180) 
1

>  <∆∆G>  (180) 
-6.001997

>  <comRMSD>  (180) 
0.485273

>  <N_rotatable_bonds>  (180) 
6

>  <N_unconstrained_atoms>  (180) 
2

>  <N_constrained_atoms>  (180) 
12

$$$$
Z1356082022
     RDKit          3D

 23 23  0  0  0  0  0  0  0  0999 V2000
   12.1240   14.9480   21.7210 C   0  0  0  0  0  0  0  0  0  0  0  0
   11.0610   14.0010   21.9650 N   0  0  0  0  0  0  0  0  0  0  0  0
   10.3840   14.0380   23.1690 C   0  0  0  0  0  0  0  0  0  0  0  0
   11.1290   14.6390   24.5240 S   0  0  0  0  0  0  0  0  0  0  0  0
    9.1310   13.5960   23.3070 N   0  0  0  0  0  0  0  0  0  0  0  0
    8.7760   12.3690   23.9380 C   0  0  0  0  0  0  0  0  0  0  0  0
    7.7720   12.1840   24.8990 C   0  0  0  0  0  0  0  0  0  0  0  0
    7.4940   10.9900   25.4610 N   0  0  0  0  0  0  0  0  0  0  0  0
    8.2420    9.9460   25.0450 C   0  0  0  0  0  0  0  0  0  0  0  0
    9.2490   10.0200   24.0970 C   0  0  0  0  0  0  0  0  0  0  0  0
   10.0050    8.8540   23.6830 C   0  0  0  0  0  0  0  0  0  0  0  0
    9.5160   11.2510   23.5480 C   0  0  0  0  0  0  0  0  0  0  0  0
   11.7530   15.9680   21.8570 H   0  0  0  0  0  0  0  0  0  0  0  0
   12.4790   14.8400   20.6900 H   0  0  0  0  0  0  0  0  0  0  0  0
   12.9630   14.7760   22.3990 H   0  0  0  0  0  0  0  0  0  0  0  0
   11.1110   13.1060   21.4630 H   0  0  0  0  0  0  0  0  0  0  0  0
    8.4560   14.3430   23.4230 H   0  0  0  0  0  0  0  0  0  0  0  0
    7.1500   12.9970   25.2570 H   0  0  0  0  0  0  0  0  0  0  0  0
    7.9920    9.0020   25.5220 H   0  0  0  0  0  0  0  0  0  0  0  0
   10.4140    8.9920   22.6780 H   0  0  0  0  0  0  0  0  0  0  0  0
    9.3620    7.9700   23.6850 H   0  0  0  0  0  0  0  0  0  0  0  0
   10.8520    8.6830   24.3530 H   0  0  0  0  0  0  0  0  0  0  0  0
   10.3060   11.3440   22.8070 H   0  0  0  0  0  0  0  0  0  0  0  0
  1  2  1  0
  2  3  1  0
  3  4  2  0
  3  5  1  0
  5  6  1  0
  6  7  2  0
  7  8  1  0
  8  9  2  0
  9 10  1  0
 10 11  1  0
 10 12  2  0
 12  6  1  0
  1 13  1  0
  1 14  1  0
  1 15  1  0
  2 16  1  0
  5 17  1  0
  7 18  1  0
  9 19  1  0
 11 20  1  0
 11 21  1  0
 11 22  1  0
 12 23  1  0
A    1
 C1 
A    2
 N1 
A    3
 C2 
A    4
 S1 
A    5
 N2 
A    6
 C3 
A    7
 C4 
A    8
 N3 
A    9
 C5 
A   10
 C6 
A   11
 C7 
A   12
 C8 
A   13
 H1 
A   14
 H2 
A   15
 H3 
A   16
 H4 
A   17
 H5 
A   18
 H6 
A   19
 H7 
A   20
 H8 
A   21
 H9 
A   22
 H10
A   23
 H11
M  END
>  <ref_pdb>  (181) 
x0554_0A

>  <ref_mols>  (181) 
x0416_0A,x0451_0A

>  <original SMILES>  (181) 
CNC(=S)Nc1cncc(C)c1

>  <rationale>  (181) 
info cluster #8 (rank 19); hbond:S125+T126; hydroph_interaction:D109+V124; 

>  <cluster_rank>  (181) 
19

>  <N_interactions>  (181) 
4

>  <N_interactions_lost>  (181) 
1

>  <∆∆G>  (181) 
-7.025181

>  <comRMSD>  (181) 
0.618024

>  <N_rotatable_bonds>  (181) 
3

>  <N_unconstrained_atoms>  (181) 
1

>  <N_constrained_atoms>  (181) 
13

$$$$
Z1437037762
     RDKit          3D

 30 30  0  0  0  0  0  0  0  0999 V2000
    6.6700   12.5430   26.9320 C   0  0  0  0  0  0  0  0  0  0  0  0
    6.4870   11.5840   25.8630 N   0  0  0  0  0  0  0  0  0  0  0  0
    7.5690   11.0940   25.1360 C   0  0  0  0  0  0  0  0  0  0  0  0
    7.7800    9.6210   25.0830 C   0  0  0  0  0  0  0  0  0  0  0  0
    8.8190    9.0950   24.3720 C   0  0  0  0  0  0  0  0  0  0  0  0
    9.7340   10.0440   23.6610 C   0  0  0  0  0  0  0  0  0  0  0  0
   10.7470    9.1930   22.9990 C   0  0  0  0  0  0  0  0  0  0  0  0
    9.5730   11.4340   23.6920 C   0  0  0  0  0  0  0  0  0  0  0  0
   10.4990   12.3160   22.9800 N   0  0  0  0  0  0  0  0  0  0  0  0
   11.0750   13.4630   23.4640 C   0  0  0  0  0  0  0  0  0  0  0  0
   11.8620   14.2990   22.4530 C   0  0  0  0  0  0  0  0  0  0  0  0
   11.0020   13.8540   24.6190 O   0  0  0  0  0  0  0  0  0  0  0  0
    8.4670   11.9640   24.4400 C   0  0  0  0  0  0  0  0  0  0  0  0
    8.2430   13.4080   24.4930 C   0  0  0  0  0  0  0  0  0  0  0  0
    6.4590   12.0560   27.8900 H   0  0  0  0  0  0  0  0  0  0  0  0
    5.9920   13.3970   26.8240 H   0  0  0  0  0  0  0  0  0  0  0  0
    7.6980   12.9170   26.9620 H   0  0  0  0  0  0  0  0  0  0  0  0
    5.7600   11.8610   25.1960 H   0  0  0  0  0  0  0  0  0  0  0  0
    7.1190    8.9520   25.6030 H   0  0  0  0  0  0  0  0  0  0  0  0
    8.9660    8.0180   24.3350 H   0  0  0  0  0  0  0  0  0  0  0  0
   11.6840    9.2970   23.5260 H   0  0  0  0  0  0  0  0  0  0  0  0
   10.9280    9.5190   21.9710 H   0  0  0  0  0  0  0  0  0  0  0  0
   10.4280    8.1520   22.9770 H   0  0  0  0  0  0  0  0  0  0  0  0
   10.8180   12.0260   22.0520 H   0  0  0  0  0  0  0  0  0  0  0  0
   11.4580   15.3080   22.3630 H   0  0  0  0  0  0  0  0  0  0  0  0
   12.9060   14.3540   22.7740 H   0  0  0  0  0  0  0  0  0  0  0  0
   11.8100   13.8190   21.4690 H   0  0  0  0  0  0  0  0  0  0  0  0
    8.7450   13.8380   25.3660 H   0  0  0  0  0  0  0  0  0  0  0  0
    7.1850   13.6830   24.5360 H   0  0  0  0  0  0  0  0  0  0  0  0
    8.6140   13.8810   23.5780 H   0  0  0  0  0  0  0  0  0  0  0  0
  1  2  1  0
  2  3  1  0
  3  4  2  0
  4  5  1  0
  5  6  2  0
  6  7  1  0
  6  8  1  0
  8  9  1  0
  9 10  1  0
 10 11  1  0
 10 12  2  0
  8 13  2  0
 13 14  1  0
 13  3  1  0
  1 15  1  0
  1 16  1  0
  1 17  1  0
  2 18  1  0
  4 19  1  0
  5 20  1  0
  7 21  1  0
  7 22  1  0
  7 23  1  0
  9 24  1  0
 11 25  1  0
 11 26  1  0
 11 27  1  0
 14 28  1  0
 14 29  1  0
 14 30  1  0
A    1
 C1 
A    2
 N1 
A    3
 C2 
A    4
 C3 
A    5
 C4 
A    6
 C5 
A    7
 C6 
A    8
 C7 
A    9
 N2 
A   10
 C8 
A   11
 C9 
A   12
 O1 
A   13
 C10
A   14
 C11
A   15
 H1 
A   16
 H2 
A   17
 H3 
A   18
 H4 
A   19
 H5 
A   20
 H6 
A   21
 H7 
A   22
 H8 
A   23
 H9 
A   24
 H10
A   25
 H11
A   26
 H12
A   27
 H13
A   28
 H14
A   29
 H15
A   30
 H16
M  END
>  <ref_pdb>  (182) 
x0554_0A

>  <ref_mols>  (182) 
x0554_0A,x0310_0A

>  <original SMILES>  (182) 
CNc1ccc(C)c(NC(C)=O)c1C

>  <rationale>  (182) 
info cluster #5 (rank 19); hbond:S125+G127; hydroph_interaction:Y89+A110+V124; 

>  <cluster_rank>  (182) 
19

>  <N_interactions>  (182) 
5

>  <N_interactions_lost>  (182) 
2

>  <∆∆G>  (182) 
-8.887991

>  <comRMSD>  (182) 
0.610543

>  <N_rotatable_bonds>  (182) 
6

>  <N_unconstrained_atoms>  (182) 
2

>  <N_constrained_atoms>  (182) 
13

$$$$
Z4167435496
     RDKit          3D

 37 38  0  0  0  0  0  0  0  0999 V2000
   10.7220   14.8890   19.5420 C   0  0  0  0  0  0  0  0  0  0  0  0
   10.2440   15.3090   20.9290 C   0  0  0  0  0  0  0  0  0  0  0  0
    9.8420   16.7170   20.8990 N   0  0  0  0  0  0  0  0  0  0  0  0
   11.3490   15.0660   21.9450 C   0  0  0  0  0  0  0  0  0  0  0  0
   12.5700   15.3460   21.3750 C   0  0  0  0  0  0  0  0  0  0  0  0
   11.3250   13.6880   22.4820 N   0  0  0  0  0  0  0  0  0  0  0  0
   10.3840   13.5820   23.5960 C   0  0  0  0  0  0  0  0  0  0  0  0
    9.7830   12.2060   23.8170 C   0  0  0  0  0  0  0  0  0  0  0  0
   10.2210   11.0860   23.2130 N   0  0  0  0  0  0  0  0  0  0  0  0
    9.4090   10.1260   23.6970 N   0  0  0  0  0  0  0  0  0  0  0  0
    9.5930    8.7690   23.2470 C   0  0  0  0  0  0  0  0  0  0  0  0
    8.4790   10.5940   24.5900 C   0  0  0  0  0  0  0  0  0  0  0  0
    7.3950    9.9830   25.3930 C   0  0  0  0  0  0  0  0  0  0  0  0
    6.6230   10.7220   26.1990 C   0  0  0  0  0  0  0  0  0  0  0  0
    6.7960   12.1000   26.3320 C   0  0  0  0  0  0  0  0  0  0  0  0
    7.7980   12.7640   25.6160 C   0  0  0  0  0  0  0  0  0  0  0  0
    8.6990   11.9430   24.6810 C   0  0  0  0  0  0  0  0  0  0  0  0
   11.5920   15.4810   19.2330 H   0  0  0  0  0  0  0  0  0  0  0  0
   11.0120   13.8350   19.5240 H   0  0  0  0  0  0  0  0  0  0  0  0
    9.9420   15.0410   18.7870 H   0  0  0  0  0  0  0  0  0  0  0  0
    9.3720   14.7040   21.2020 H   0  0  0  0  0  0  0  0  0  0  0  0
   10.2610   17.2460   21.6770 H   0  0  0  0  0  0  0  0  0  0  0  0
    8.8330   16.7860   21.0040 H   0  0  0  0  0  0  0  0  0  0  0  0
   11.2360   15.7630   22.7860 H   0  0  0  0  0  0  0  0  0  0  0  0
   12.7280   14.7970   20.4470 H   0  0  0  0  0  0  0  0  0  0  0  0
   13.3570   15.0940   22.0760 H   0  0  0  0  0  0  0  0  0  0  0  0
   12.6690   16.3980   21.1620 H   0  0  0  0  0  0  0  0  0  0  0  0
   11.1090   13.0040   21.7460 H   0  0  0  0  0  0  0  0  0  0  0  0
   10.8240   13.9620   24.5220 H   0  0  0  0  0  0  0  0  0  0  0  0
    9.5540   14.2650   23.3720 H   0  0  0  0  0  0  0  0  0  0  0  0
   10.4470    8.3560   23.7840 H   0  0  0  0  0  0  0  0  0  0  0  0
    8.6910    8.1850   23.4440 H   0  0  0  0  0  0  0  0  0  0  0  0
    9.7970    8.7770   22.1730 H   0  0  0  0  0  0  0  0  0  0  0  0
    7.2200    8.9330   25.3380 H   0  0  0  0  0  0  0  0  0  0  0  0
    5.8400   10.2290   26.7670 H   0  0  0  0  0  0  0  0  0  0  0  0
    6.1470   12.6620   26.9980 H   0  0  0  0  0  0  0  0  0  0  0  0
    7.9290   13.8370   25.7240 H   0  0  0  0  0  0  0  0  0  0  0  0
  1  2  1  0
  2  3  1  0
  2  4  1  0
  4  5  1  0
  4  6  1  0
  6  7  1  0
  7  8  1  0
  8  9  2  0
  9 10  1  0
 10 11  1  0
 10 12  1  0
 12 13  2  0
 13 14  1  0
 14 15  2  0
 15 16  1  0
 16 17  2  0
 17  8  1  0
 17 12  1  0
  1 18  1  0
  1 19  1  0
  1 20  1  0
  2 21  1  0
  3 22  1  0
  3 23  1  0
  4 24  1  0
  5 25  1  0
  5 26  1  0
  5 27  1  0
  6 28  1  0
  7 29  1  0
  7 30  1  0
 11 31  1  0
 11 32  1  0
 11 33  1  0
 13 34  1  0
 14 35  1  0
 15 36  1  0
 16 37  1  0
A    1
 C1 
A    2
 C2 
A    3
 N1 
A    4
 C3 
A    5
 C4 
A    6
 N2 
A    7
 C5 
A    8
 C6 
A    9
 N3 
A   10
 N4 
A   11
 C7 
A   12
 C8 
A   13
 C9 
A   14
 C10
A   15
 C11
A   16
 C12
A   17
 C13
A   18
 H1 
A   19
 H2 
A   20
 H3 
A   21
 H4 
A   22
 H5 
A   23
 H6 
A   24
 H7 
A   25
 H8 
A   26
 H9 
A   27
 H10
A   28
 H11
A   29
 H12
A   30
 H13
A   31
 H14
A   32
 H15
A   33
 H16
A   34
 H17
A   35
 H18
A   36
 H19
A   37
 H20
M  END
>  <ref_pdb>  (183) 
x0554_0A

>  <ref_mols>  (183) 
x0451_0A

>  <original SMILES>  (183) 
CC(N)C(C)NCc1nn(C)c2ccccc12

>  <rationale>  (183) 
info cluster #2 (rank 19); hbond:H21+S87; hydroph_interaction:Y89+Y90; 

>  <cluster_rank>  (183) 
19

>  <N_interactions>  (183) 
4

>  <N_interactions_lost>  (183) 
1

>  <∆∆G>  (183) 
-10.661568

>  <comRMSD>  (183) 
0.569435

>  <N_rotatable_bonds>  (183) 
8

>  <N_unconstrained_atoms>  (183) 
1

>  <N_constrained_atoms>  (183) 
18

$$$$
Z3185013611
     RDKit          3D

 29 30  0  0  0  0  0  0  0  0999 V2000
   11.8740   14.4230   22.0840 C   0  0  0  0  0  0  0  0  0  0  0  0
   10.9200   13.3810   22.3980 N   0  0  0  0  0  0  0  0  0  0  0  0
   10.3890   13.3030   23.6800 C   0  0  0  0  0  0  0  0  0  0  0  0
   10.5840   14.2110   24.4900 O   0  0  0  0  0  0  0  0  0  0  0  0
    9.5770   12.1060   24.0390 C   0  0  0  0  0  0  0  0  0  0  0  0
    9.8600   10.8180   23.6220 C   0  0  0  0  0  0  0  0  0  0  0  0
   10.9640   10.3400   22.7990 C   0  0  0  0  0  0  0  0  0  0  0  0
    8.9260    9.9410   24.1050 N   0  0  0  0  0  0  0  0  0  0  0  0
    8.9280    8.5880   23.8460 C   0  0  0  0  0  0  0  0  0  0  0  0
    8.0300   10.6630   24.8790 C   0  0  0  0  0  0  0  0  0  0  0  0
    6.8440   10.1340   25.6370 C   0  0  0  0  0  0  0  0  0  0  0  0
    6.1560   11.1290   26.3130 C   0  0  0  0  0  0  0  0  0  0  0  0
    6.5660   12.5510   26.2740 C   0  0  0  0  0  0  0  0  0  0  0  0
    7.6830   12.9710   25.5470 C   0  0  0  0  0  0  0  0  0  0  0  0
    8.4350   12.0080   24.8330 C   0  0  0  0  0  0  0  0  0  0  0  0
   11.4150   15.4020   22.2420 H   0  0  0  0  0  0  0  0  0  0  0  0
   12.1930   14.3020   21.0420 H   0  0  0  0  0  0  0  0  0  0  0  0
   12.7480   14.3290   22.7340 H   0  0  0  0  0  0  0  0  0  0  0  0
   10.9280   12.5570   21.7860 H   0  0  0  0  0  0  0  0  0  0  0  0
   10.7410    9.7310   21.9330 H   0  0  0  0  0  0  0  0  0  0  0  0
   11.5160    9.6840   23.4820 H   0  0  0  0  0  0  0  0  0  0  0  0
   11.6580   11.1050   22.5180 H   0  0  0  0  0  0  0  0  0  0  0  0
    8.5940    8.0350   24.7300 H   0  0  0  0  0  0  0  0  0  0  0  0
    9.9440    8.2950   23.5580 H   0  0  0  0  0  0  0  0  0  0  0  0
    8.2280    8.4000   23.0270 H   0  0  0  0  0  0  0  0  0  0  0  0
    6.5550    9.0950   25.6600 H   0  0  0  0  0  0  0  0  0  0  0  0
    5.2760   10.8370   26.8940 H   0  0  0  0  0  0  0  0  0  0  0  0
    6.0600   13.3750   26.7870 H   0  0  0  0  0  0  0  0  0  0  0  0
    7.9780   14.0170   25.5220 H   0  0  0  0  0  0  0  0  0  0  0  0
  1  2  1  0
  2  3  1  0
  3  4  2  0
  3  5  1  0
  5  6  2  0
  6  7  1  0
  6  8  1  0
  8  9  1  0
  8 10  1  0
 10 11  2  0
 11 12  1  0
 12 13  2  0
 13 14  1  0
 14 15  2  0
 15  5  1  0
 15 10  1  0
  1 16  1  0
  1 17  1  0
  1 18  1  0
  2 19  1  0
  7 20  1  0
  7 21  1  0
  7 22  1  0
  9 23  1  0
  9 24  1  0
  9 25  1  0
 11 26  1  0
 12 27  1  0
 13 28  1  0
 14 29  1  0
A    1
 C1 
A    2
 N1 
A    3
 C2 
A    4
 O1 
A    5
 C3 
A    6
 C4 
A    7
 C5 
A    8
 N2 
A    9
 C6 
A   10
 C7 
A   11
 C8 
A   12
 C9 
A   13
 C10
A   14
 C11
A   15
 C12
A   16
 H1 
A   17
 H2 
A   18
 H3 
A   19
 H4 
A   20
 H5 
A   21
 H6 
A   22
 H7 
A   23
 H8 
A   24
 H9 
A   25
 H10
A   26
 H11
A   27
 H12
A   28
 H13
A   29
 H14
M  END
>  <ref_pdb>  (184) 
x0554_0A

>  <ref_mols>  (184) 
x0451_0A,x0451_0A

>  <original SMILES>  (184) 
CNC(=O)c1c(C)n(C)c2ccccc12

>  <rationale>  (184) 
info cluster #0 (rank 19); hbond:S125; hydroph_interaction:A110; 

>  <cluster_rank>  (184) 
19

>  <N_interactions>  (184) 
2

>  <N_interactions_lost>  (184) 
1

>  <∆∆G>  (184) 
-8.661571

>  <comRMSD>  (184) 
0.584834

>  <N_rotatable_bonds>  (184) 
4

>  <N_unconstrained_atoms>  (184) 
1

>  <N_constrained_atoms>  (184) 
14

$$$$
Z3853327583
     RDKit          3D

 23 24  0  0  0  0  0  0  0  0999 V2000
   12.1340   14.9250   21.5540 C   0  0  0  0  0  0  0  0  0  0  0  0
   11.5680   13.6970   22.1300 N   0  0  0  0  0  0  0  0  0  0  0  0
   10.1480   13.8910   23.0170 S   0  0  0  0  0  6  0  0  0  0  0  0
   10.4980   14.6700   24.1790 O   0  0  0  0  0  0  0  0  0  0  0  0
    9.0910   14.2740   22.1030 O   0  0  0  0  0  0  0  0  0  0  0  0
    9.6220   12.4090   23.6660 C   0  0  0  0  0  0  0  0  0  0  0  0
   10.1560   11.0180   23.3980 C   0  0  0  0  0  0  0  0  0  0  0  0
    9.4890   10.0830   24.0870 O   0  0  0  0  0  0  0  0  0  0  0  0
    8.5380   10.7870   24.8010 C   0  0  0  0  0  0  0  0  0  0  0  0
    7.5340   10.1420   25.7380 C   0  0  0  0  0  0  0  0  0  0  0  0
    6.6340   11.0830   26.3740 C   0  0  0  0  0  0  0  0  0  0  0  0
    6.7050   12.4500   26.1370 C   0  0  0  0  0  0  0  0  0  0  0  0
    7.6550   12.9980   25.2620 C   0  0  0  0  0  0  0  0  0  0  0  0
    8.5730   12.1840   24.5880 C   0  0  0  0  0  0  0  0  0  0  0  0
   12.2960   14.8040   20.4800 H   0  0  0  0  0  0  0  0  0  0  0  0
   13.1020   15.1150   22.0190 H   0  0  0  0  0  0  0  0  0  0  0  0
   11.4890   15.7830   21.7450 H   0  0  0  0  0  0  0  0  0  0  0  0
   11.4660   12.9170   21.4630 H   0  0  0  0  0  0  0  0  0  0  0  0
   10.9930   10.8670   22.7060 H   0  0  0  0  0  0  0  0  0  0  0  0
    7.4960    9.0870   25.9110 H   0  0  0  0  0  0  0  0  0  0  0  0
    5.8790   10.7030   27.0590 H   0  0  0  0  0  0  0  0  0  0  0  0
    6.0050   13.1130   26.6420 H   0  0  0  0  0  0  0  0  0  0  0  0
    7.6690   14.0750   25.1090 H   0  0  0  0  0  0  0  0  0  0  0  0
  1  2  1  0
  2  3  1  0
  3  4  2  0
  3  5  2  0
  3  6  1  0
  6  7  2  0
  7  8  1  0
  8  9  1  0
  9 10  2  0
 10 11  1  0
 11 12  2  0
 12 13  1  0
 13 14  2  0
 14  6  1  0
 14  9  1  0
  1 15  1  0
  1 16  1  0
  1 17  1  0
  2 18  1  0
  7 19  1  0
 10 20  1  0
 11 21  1  0
 12 22  1  0
 13 23  1  0
A    1
 C1 
A    2
 N1 
A    3
 S1 
A    4
 O1 
A    5
 O2 
A    6
 C2 
A    7
 C3 
A    8
 O3 
A    9
 C4 
A   10
 C5 
A   11
 C6 
A   12
 C7 
A   13
 C8 
A   14
 C9 
A   15
 H1 
A   16
 H2 
A   17
 H3 
A   18
 H4 
A   19
 H5 
A   20
 H6 
A   21
 H7 
A   22
 H8 
A   23
 H9 
M  END
>  <ref_pdb>  (185) 
x0554_0A

>  <ref_mols>  (185) 
x0451_0A,x0566_0A

>  <original SMILES>  (185) 
CNS(=O)(=O)c1coc2ccccc12

>  <rationale>  (185) 
info cluster #6 (rank 19); hbond:H21; 

>  <cluster_rank>  (185) 
19

>  <N_interactions>  (185) 
1

>  <N_interactions_lost>  (185) 
0

>  <∆∆G>  (185) 
-7.030459

>  <comRMSD>  (185) 
0.565874

>  <N_rotatable_bonds>  (185) 
3

>  <N_unconstrained_atoms>  (185) 
0

>  <N_constrained_atoms>  (185) 
14

$$$$
Z3027677748
     RDKit          3D

 34 34  0  0  0  0  0  0  0  0999 V2000
   10.2300    8.7730   23.2090 C   0  0  0  0  0  0  0  0  0  0  0  0
    9.3990    9.9180   23.7450 C   0  0  0  0  0  0  0  0  0  0  0  0
    8.3720    9.5930   24.5970 N   0  0  0  0  0  0  0  0  0  0  0  0
    7.8400   10.8000   24.8780 N   0  0  0  0  0  0  0  0  0  0  0  0
    6.7070   10.8440   25.7770 C   0  0  0  0  0  0  0  0  0  0  0  0
    8.4880   11.8510   24.2340 C   0  0  0  0  0  0  0  0  0  0  0  0
    8.1110   13.3320   24.3340 C   0  0  0  0  0  0  0  0  0  0  0  0
    8.4170   13.9460   23.0420 N   0  0  0  0  0  0  0  0  0  0  0  0
    9.5660   14.6930   22.8360 C   0  0  0  0  0  0  0  0  0  0  0  0
   10.4360   14.9600   23.6520 O   0  0  0  0  0  0  0  0  0  0  0  0
    9.8200   15.3000   21.4500 C   0  0  0  0  0  0  0  0  0  0  0  0
   10.7750   14.8900   20.5460 C   0  0  0  0  0  0  0  0  0  0  0  0
   11.1650   15.3760   19.1980 C   0  0  0  0  0  0  0  0  0  0  0  0
   10.1180   15.2280   18.1040 C   0  0  0  0  0  0  0  0  0  0  0  0
   12.3840   14.6920   18.7900 N   0  0  0  0  0  0  0  0  0  0  0  0
    9.5040   11.2820   23.5120 C   0  0  0  0  0  0  0  0  0  0  0  0
   10.9850    8.4720   23.9330 H   0  0  0  0  0  0  0  0  0  0  0  0
   10.7430    9.0760   22.2930 H   0  0  0  0  0  0  0  0  0  0  0  0
    9.6050    7.9010   22.9880 H   0  0  0  0  0  0  0  0  0  0  0  0
    6.2260   11.8270   25.6820 H   0  0  0  0  0  0  0  0  0  0  0  0
    5.9950   10.0520   25.5320 H   0  0  0  0  0  0  0  0  0  0  0  0
    7.0600   10.6760   26.7970 H   0  0  0  0  0  0  0  0  0  0  0  0
    8.7060   13.8170   25.1160 H   0  0  0  0  0  0  0  0  0  0  0  0
    7.0390   13.4130   24.5660 H   0  0  0  0  0  0  0  0  0  0  0  0
    7.9000   13.6320   22.2210 H   0  0  0  0  0  0  0  0  0  0  0  0
    9.1430   16.1330   21.2510 H   0  0  0  0  0  0  0  0  0  0  0  0
   11.3800   14.0410   20.8850 H   0  0  0  0  0  0  0  0  0  0  0  0
   11.3880   16.4350   19.3100 H   0  0  0  0  0  0  0  0  0  0  0  0
    9.1310   15.2390   18.5460 H   0  0  0  0  0  0  0  0  0  0  0  0
   10.1700   15.9730   17.3070 H   0  0  0  0  0  0  0  0  0  0  0  0
   10.2260   14.2440   17.6440 H   0  0  0  0  0  0  0  0  0  0  0  0
   12.1530   13.8210   18.3030 H   0  0  0  0  0  0  0  0  0  0  0  0
   12.9010   14.4090   19.6290 H   0  0  0  0  0  0  0  0  0  0  0  0
   10.2390   11.8030   22.8770 H   0  0  0  0  0  0  0  0  0  0  0  0
  1  2  1  0
  2  3  2  0
  3  4  1  0
  4  5  1  0
  4  6  1  0
  6  7  1  0
  7  8  1  0
  8  9  1  0
  9 10  2  0
  9 11  1  0
 11 12  2  3
 12 13  1  0
 13 14  1  0
 13 15  1  0
  6 16  2  0
 16  2  1  0
  1 17  1  0
  1 18  1  0
  1 19  1  0
  5 20  1  0
  5 21  1  0
  5 22  1  0
  7 23  1  0
  7 24  1  0
  8 25  1  0
 11 26  1  0
 12 27  1  0
 13 28  1  0
 14 29  1  0
 14 30  1  0
 14 31  1  0
 15 32  1  0
 15 33  1  0
 16 34  1  0
A    1
 C1 
A    2
 C2 
A    3
 N1 
A    4
 N2 
A    5
 C3 
A    6
 C4 
A    7
 C5 
A    8
 N3 
A    9
 C6 
A   10
 O1 
A   11
 C7 
A   12
 C8 
A   13
 C9 
A   14
 C10
A   15
 N4 
A   16
 C11
A   17
 H1 
A   18
 H2 
A   19
 H3 
A   20
 H4 
A   21
 H5 
A   22
 H6 
A   23
 H7 
A   24
 H8 
A   25
 H9 
A   26
 H10
A   27
 H11
A   28
 H12
A   29
 H13
A   30
 H14
A   31
 H15
A   32
 H16
A   33
 H17
A   34
 H18
M  END
>  <ref_pdb>  (186) 
x0554_0A

>  <ref_mols>  (186) 
x0310_0A

>  <original SMILES>  (186) 
Cc1cc(CNC(=O)C=CC(C)N)n(C)n1

>  <rationale>  (186) 
info cluster #7 (rank 19); hbond:S87+S125+T126; hydroph_interaction:D109+V124; 

>  <cluster_rank>  (186) 
19

>  <N_interactions>  (186) 
5

>  <N_interactions_lost>  (186) 
1

>  <∆∆G>  (186) 
-9.367715

>  <comRMSD>  (186) 
0.581761

>  <N_rotatable_bonds>  (186) 
8

>  <N_unconstrained_atoms>  (186) 
4

>  <N_constrained_atoms>  (186) 
13

$$$$
Z3242322328
     RDKit          3D

 34 35  0  0  0  0  0  0  0  0999 V2000
    8.6430   15.5580   21.3460 C   0  0  0  0  0  0  0  0  0  0  0  0
   10.1070   15.5000   21.0430 C   0  0  0  0  0  0  0  0  0  0  0  0
   10.7240   14.8260   19.8790 C   0  0  0  0  0  0  0  0  0  0  0  0
   10.5330   16.8090   20.9540 N   0  0  0  0  0  0  0  0  0  0  0  0
   10.6860   14.8730   22.3290 C   0  0  0  0  0  0  0  0  0  0  0  0
   11.1090   15.5510   23.2590 O   0  0  0  0  0  0  0  0  0  0  0  0
   10.6530   13.4780   22.3290 N   0  0  0  0  0  0  0  0  0  0  0  0
   11.0060   12.7300   23.4990 C   0  0  0  0  0  0  0  0  0  0  0  0
   10.0740   11.7460   23.8530 C   0  0  0  0  0  0  0  0  0  0  0  0
   10.3000   10.4240   23.4150 C   0  0  0  0  0  0  0  0  0  0  0  0
    9.4200    9.2270   23.7310 C   0  0  0  0  0  0  0  0  0  0  0  0
    8.2420    9.6170   24.5890 C   0  0  0  0  0  0  0  0  0  0  0  0
    8.0100   11.0160   25.0290 C   0  0  0  0  0  0  0  0  0  0  0  0
    8.9220   12.0000   24.6440 C   0  0  0  0  0  0  0  0  0  0  0  0
    8.4630   13.1870   25.1890 N   0  0  0  0  0  0  0  0  0  0  0  0
    7.3100   12.9590   25.8850 C   0  0  0  0  0  0  0  0  0  0  0  0
    7.0020   11.6330   25.8100 C   0  0  0  0  0  0  0  0  0  0  0  0
    8.3540   14.7690   22.0480 H   0  0  0  0  0  0  0  0  0  0  0  0
    8.1030   15.4450   20.4220 H   0  0  0  0  0  0  0  0  0  0  0  0
    8.4000   16.5260   21.7970 H   0  0  0  0  0  0  0  0  0  0  0  0
   10.6030   13.7470   19.9360 H   0  0  0  0  0  0  0  0  0  0  0  0
   11.8060   15.0170   19.8220 H   0  0  0  0  0  0  0  0  0  0  0  0
   10.2720   15.1590   18.9360 H   0  0  0  0  0  0  0  0  0  0  0  0
   10.5530   17.2670   21.8690 H   0  0  0  0  0  0  0  0  0  0  0  0
    9.8530   17.3380   20.4030 H   0  0  0  0  0  0  0  0  0  0  0  0
   10.8410   13.0220   21.4290 H   0  0  0  0  0  0  0  0  0  0  0  0
   11.9860   12.2700   23.3190 H   0  0  0  0  0  0  0  0  0  0  0  0
   11.1470   13.4380   24.3220 H   0  0  0  0  0  0  0  0  0  0  0  0
   11.2050   10.3270   22.8090 H   0  0  0  0  0  0  0  0  0  0  0  0
    9.6160    8.2150   23.3880 H   0  0  0  0  0  0  0  0  0  0  0  0
    7.5480    8.8610   24.8970 H   0  0  0  0  0  0  0  0  0  0  0  0
    8.9130   14.0860   25.0860 H   0  0  0  0  0  0  0  0  0  0  0  0
    6.7270   13.7060   26.4150 H   0  0  0  0  0  0  0  0  0  0  0  0
    6.1270   11.1960   26.2850 H   0  0  0  0  0  0  0  0  0  0  0  0
  1  2  1  0
  2  3  1  0
  2  4  1  0
  2  5  1  0
  5  6  2  0
  5  7  1  0
  7  8  1  0
  8  9  1  0
  9 10  2  0
 10 11  1  0
 11 12  2  0
 12 13  1  0
 13 14  2  0
 14 15  1  0
 15 16  1  0
 16 17  2  0
 14  9  1  0
 17 13  1  0
  1 18  1  0
  1 19  1  0
  1 20  1  0
  3 21  1  0
  3 22  1  0
  3 23  1  0
  4 24  1  0
  4 25  1  0
  7 26  1  0
  8 27  1  0
  8 28  1  0
 10 29  1  0
 11 30  1  0
 12 31  1  0
 15 32  1  0
 16 33  1  0
 17 34  1  0
A    1
 C1 
A    2
 C2 
A    3
 C3 
A    4
 N1 
A    5
 C4 
A    6
 O1 
A    7
 N2 
A    8
 C5 
A    9
 C6 
A   10
 C7 
A   11
 C8 
A   12
 C9 
A   13
 C10
A   14
 C11
A   15
 N3 
A   16
 C12
A   17
 C13
A   18
 H1 
A   19
 H2 
A   20
 H3 
A   21
 H4 
A   22
 H5 
A   23
 H6 
A   24
 H7 
A   25
 H8 
A   26
 H9 
A   27
 H10
A   28
 H11
A   29
 H12
A   30
 H13
A   31
 H14
A   32
 H15
A   33
 H16
A   34
 H17
M  END
>  <ref_pdb>  (187) 
x0554_0A

>  <ref_mols>  (187) 
x0554_0A

>  <original SMILES>  (187) 
CC(C)(N)C(=O)NCc1cccc2cc[nH]c12

>  <rationale>  (187) 
info cluster #3 (rank 19); hbond:S87+S125; hydroph_interaction:V84; 

>  <cluster_rank>  (187) 
19

>  <N_interactions>  (187) 
3

>  <N_interactions_lost>  (187) 
1

>  <∆∆G>  (187) 
-9.540654

>  <comRMSD>  (187) 
0.483613

>  <N_rotatable_bonds>  (187) 
6

>  <N_unconstrained_atoms>  (187) 
3

>  <N_constrained_atoms>  (187) 
14

$$$$
Z2443609070
     RDKit          3D

 28 28  0  0  0  0  0  0  0  0999 V2000
    9.3270   16.3230   20.7100 C   0  0  0  0  0  0  0  0  0  0  0  0
   10.3790   15.3870   21.2560 C   0  0  2  0  0  0  0  0  0  0  0  0
   11.3890   14.9430   20.3040 C   0  0  0  0  0  0  0  0  0  0  0  0
   10.8240   13.9990   19.3410 N   0  0  0  0  0  0  0  0  0  0  0  0
    9.7240   14.1940   21.8610 N   0  0  0  0  0  0  0  0  0  0  0  0
   10.6230   13.3480   22.9930 S   0  0  0  0  0  6  0  0  0  0  0  0
   10.7510   14.2910   24.0540 O   0  0  0  0  0  0  0  0  0  0  0  0
   11.8380   12.8700   22.3930 O   0  0  0  0  0  0  0  0  0  0  0  0
    9.7520   11.9820   23.7180 C   0  0  0  0  0  0  0  0  0  0  0  0
   10.1530   10.6760   23.3980 C   0  0  0  0  0  0  0  0  0  0  0  0
    9.4340    9.6920   24.0660 C   0  0  0  0  0  0  0  0  0  0  0  0
    8.3660    9.9370   25.0070 C   0  0  0  0  0  0  0  0  0  0  0  0
    7.9970   11.2290   25.2700 C   0  0  0  0  0  0  0  0  0  0  0  0
    8.6920   12.2560   24.6240 C   0  0  0  0  0  0  0  0  0  0  0  0
    9.4480   16.4440   19.6310 H   0  0  0  0  0  0  0  0  0  0  0  0
    8.3210   15.9460   20.9110 H   0  0  0  0  0  0  0  0  0  0  0  0
    9.3960   17.3070   21.1830 H   0  0  0  0  0  0  0  0  0  0  0  0
   10.9060   15.9310   22.0520 H   0  0  0  0  0  0  0  0  0  0  0  0
   12.2310   14.4690   20.8220 H   0  0  0  0  0  0  0  0  0  0  0  0
   11.7750   15.7960   19.7470 H   0  0  0  0  0  0  0  0  0  0  0  0
   10.7910   13.1130   19.8410 H   0  0  0  0  0  0  0  0  0  0  0  0
   11.4530   13.7830   18.5630 H   0  0  0  0  0  0  0  0  0  0  0  0
    8.8380   13.7990   21.5180 H   0  0  0  0  0  0  0  0  0  0  0  0
   10.9630   10.4410   22.6990 H   0  0  0  0  0  0  0  0  0  0  0  0
    9.6970    8.6460   23.8750 H   0  0  0  0  0  0  0  0  0  0  0  0
    7.9150    9.0780   25.4610 H   0  0  0  0  0  0  0  0  0  0  0  0
    7.1910   11.4480   25.9680 H   0  0  0  0  0  0  0  0  0  0  0  0
    8.4150   13.2860   24.8330 H   0  0  0  0  0  0  0  0  0  0  0  0
  1  2  1  0
  2  3  1  0
  3  4  1  0
  2  5  1  0
  5  6  1  0
  6  7  2  0
  6  8  2  0
  6  9  1  0
  9 10  2  0
 10 11  1  0
 11 12  2  0
 12 13  1  0
 13 14  2  0
 14  9  1  0
  1 15  1  0
  1 16  1  0
  1 17  1  0
  2 18  1  1
  3 19  1  0
  3 20  1  0
  4 21  1  0
  4 22  1  0
  5 23  1  0
 10 24  1  0
 11 25  1  0
 12 26  1  0
 13 27  1  0
 14 28  1  0
A    1
 C1 
A    2
 C2 
A    3
 C3 
A    4
 N1 
A    5
 N2 
A    6
 S1 
A    7
 O1 
A    8
 O2 
A    9
 C4 
A   10
 C5 
A   11
 C6 
A   12
 C7 
A   13
 C8 
A   14
 C9 
A   15
 H1 
A   16
 H2 
A   17
 H3 
A   18
 H4 
A   19
 H5 
A   20
 H6 
A   21
 H7 
A   22
 H8 
A   23
 H9 
A   24
 H10
A   25
 H11
A   26
 H12
A   27
 H13
A   28
 H14
M  END
>  <ref_pdb>  (188) 
x0554_0A

>  <ref_mols>  (188) 
x0566_0A

>  <original SMILES>  (188) 
C[C@H](CN)NS(=O)(=O)c1ccccc1

>  <rationale>  (188) 
info cluster #1 (rank 19); hbond:T126+D39; hydroph_interaction:V84; 

>  <cluster_rank>  (188) 
19

>  <N_interactions>  (188) 
3

>  <N_interactions_lost>  (188) 
0

>  <∆∆G>  (188) 
-6.505825

>  <comRMSD>  (188) 
0.961994

>  <N_rotatable_bonds>  (188) 
6

>  <N_unconstrained_atoms>  (188) 
2

>  <N_constrained_atoms>  (188) 
13

$$$$
Z1041028566
     RDKit          3D

 32 32  0  0  0  0  0  0  0  0999 V2000
   10.6820   16.4130   21.1710 C   0  0  0  0  0  0  0  0  0  0  0  0
   11.3490   15.5890   21.7330 C   0  0  0  0  0  0  0  0  0  0  0  0
   12.0960   14.5640   22.3660 C   0  0  0  0  0  0  0  0  0  0  0  0
   11.6050   14.4410   23.6940 O   0  0  0  0  0  0  0  0  0  0  0  0
   11.0710   13.2620   24.1130 C   0  0  0  0  0  0  0  0  0  0  0  0
   11.3760   12.7070   25.1490 O   0  0  0  0  0  0  0  0  0  0  0  0
   10.1140   12.7870   23.2240 C   0  0  0  0  0  0  0  0  0  0  0  0
    9.2160   13.8090   22.6240 C   0  0  0  0  0  0  0  0  0  0  0  0
    9.3310   11.7560   23.8520 C   0  0  0  0  0  0  0  0  0  0  0  0
    8.1580   11.9160   24.7600 C   0  0  0  0  0  0  0  0  0  0  0  0
    7.7480   13.3300   25.0400 C   0  0  0  0  0  0  0  0  0  0  0  0
    7.7140   10.7100   25.1400 N   0  0  0  0  0  0  0  0  0  0  0  0
    6.6660   10.3870   25.9740 C   0  0  0  0  0  0  0  0  0  0  0  0
    8.4410    9.7090   24.5930 N   0  0  0  0  0  0  0  0  0  0  0  0
    9.4010   10.3080   23.8230 C   0  0  0  0  0  0  0  0  0  0  0  0
   10.3570    9.4080   23.0850 C   0  0  0  0  0  0  0  0  0  0  0  0
   10.0910   17.1420   20.6590 H   0  0  0  0  0  0  0  0  0  0  0  0
   11.9960   13.6180   21.8130 H   0  0  0  0  0  0  0  0  0  0  0  0
   13.1620   14.7040   22.4750 H   0  0  0  0  0  0  0  0  0  0  0  0
   10.6990   12.3560   22.4060 H   0  0  0  0  0  0  0  0  0  0  0  0
    8.1700   13.4880   22.6120 H   0  0  0  0  0  0  0  0  0  0  0  0
    9.2770   14.7570   23.1720 H   0  0  0  0  0  0  0  0  0  0  0  0
    9.5270   14.0250   21.5990 H   0  0  0  0  0  0  0  0  0  0  0  0
    8.6240   13.9740   25.0060 H   0  0  0  0  0  0  0  0  0  0  0  0
    7.2920   13.4390   26.0290 H   0  0  0  0  0  0  0  0  0  0  0  0
    7.0360   13.7090   24.3020 H   0  0  0  0  0  0  0  0  0  0  0  0
    6.9480    9.5400   26.5960 H   0  0  0  0  0  0  0  0  0  0  0  0
    5.7900   10.1060   25.4000 H   0  0  0  0  0  0  0  0  0  0  0  0
    6.4280   11.2600   26.5880 H   0  0  0  0  0  0  0  0  0  0  0  0
    9.7930    8.6400   22.5470 H   0  0  0  0  0  0  0  0  0  0  0  0
   11.0490    8.9080   23.7640 H   0  0  0  0  0  0  0  0  0  0  0  0
   10.9400    9.9530   22.3440 H   0  0  0  0  0  0  0  0  0  0  0  0
  1  2  3  0
  2  3  1  0
  3  4  1  0
  4  5  1  0
  5  6  2  0
  5  7  1  0
  7  8  1  0
  7  9  1  0
  9 10  2  0
 10 11  1  0
 10 12  1  0
 12 13  1  0
 12 14  1  0
 14 15  2  0
 15 16  1  0
 15  9  1  0
  1 17  1  0
  3 18  1  0
  3 19  1  0
  7 20  1  0
  8 21  1  0
  8 22  1  0
  8 23  1  0
 11 24  1  0
 11 25  1  0
 11 26  1  0
 13 27  1  0
 13 28  1  0
 13 29  1  0
 16 30  1  0
 16 31  1  0
 16 32  1  0
A    1
 C1 
A    2
 C2 
A    3
 C3 
A    4
 O1 
A    5
 C4 
A    6
 O2 
A    7
 C5 
A    8
 C6 
A    9
 C7 
A   10
 C8 
A   11
 C9 
A   12
 N1 
A   13
 C10
A   14
 N2 
A   15
 C11
A   16
 C12
A   17
 H1 
A   18
 H2 
A   19
 H3 
A   20
 H4 
A   21
 H5 
A   22
 H6 
A   23
 H7 
A   24
 H8 
A   25
 H9 
A   26
 H10
A   27
 H11
A   28
 H12
A   29
 H13
A   30
 H14
A   31
 H15
A   32
 H16
M  END
>  <ref_pdb>  (189) 
x0554_0A

>  <ref_mols>  (189) 
x0310_0A,x0566_0A

>  <original SMILES>  (189) 
C#CCOC(=O)C(C)c1c(C)nn(C)c1C

>  <rationale>  (189) 
info cluster #4 (rank 19); hydroph_interaction:Y90+V124; saltbridge:H21; 

>  <cluster_rank>  (189) 
19

>  <N_interactions>  (189) 
3

>  <N_interactions_lost>  (189) 
0

>  <∆∆G>  (189) 
-7.867473

>  <comRMSD>  (189) 
0.874764

>  <N_rotatable_bonds>  (189) 
7

>  <N_unconstrained_atoms>  (189) 
1

>  <N_constrained_atoms>  (189) 
16

$$$$
Z1687242291
     RDKit          3D

 26 26  0  0  0  0  0  0  0  0999 V2000
   11.3070   14.6340   19.9450 C   0  0  0  0  0  0  0  0  0  0  0  0
   10.3710   14.9020   21.0000 O   0  0  0  0  0  0  0  0  0  0  0  0
   10.9180   14.9230   22.2480 C   0  0  0  0  0  0  0  0  0  0  0  0
   10.9380   15.9970   23.0680 O   0  0  0  0  0  0  0  0  0  0  0  0
   11.4990   13.6200   22.6250 N   0  0  0  0  0  0  0  0  0  0  0  0
   11.0550   12.9920   23.8500 C   0  0  0  0  0  0  0  0  0  0  0  0
    9.8940   12.1980   23.3220 C   0  0  0  0  0  0  0  0  0  0  0  0
    8.9970   11.3840   24.2140 C   0  0  0  0  0  0  0  0  0  0  0  0
    7.9920   12.1430   25.0290 C   0  0  0  0  0  0  0  0  0  0  0  0
    7.3420   10.9960   25.7150 C   0  0  0  0  0  0  0  0  0  0  0  0
    7.9200    9.6970   25.3280 N   0  0  0  0  0  0  0  0  0  0  0  0
    8.8950   10.0340   24.4290 N   0  0  0  0  0  0  0  0  0  0  0  0
    9.6960    9.0010   23.8050 C   0  0  0  0  0  0  0  0  0  0  0  0
   11.7240   15.5620   19.5370 H   0  0  0  0  0  0  0  0  0  0  0  0
   12.1270   14.0340   20.3500 H   0  0  0  0  0  0  0  0  0  0  0  0
   10.8400   14.0770   19.1270 H   0  0  0  0  0  0  0  0  0  0  0  0
   11.5580   12.9980   21.7980 H   0  0  0  0  0  0  0  0  0  0  0  0
   11.8910   12.4360   24.2660 H   0  0  0  0  0  0  0  0  0  0  0  0
   10.7180   13.7490   24.5680 H   0  0  0  0  0  0  0  0  0  0  0  0
   10.3370   11.5070   22.6060 H   0  0  0  0  0  0  0  0  0  0  0  0
    9.2770   12.8920   22.7420 H   0  0  0  0  0  0  0  0  0  0  0  0
    7.8050   13.2060   25.0910 H   0  0  0  0  0  0  0  0  0  0  0  0
    6.5210   11.1060   26.4300 H   0  0  0  0  0  0  0  0  0  0  0  0
    9.9230    9.2950   22.7730 H   0  0  0  0  0  0  0  0  0  0  0  0
    9.1500    8.0510   23.7910 H   0  0  0  0  0  0  0  0  0  0  0  0
   10.6350    8.8820   24.3530 H   0  0  0  0  0  0  0  0  0  0  0  0
  1  2  1  0
  2  3  1  0
  3  4  2  0
  3  5  1  0
  5  6  1  0
  6  7  1  0
  7  8  1  0
  8  9  2  0
  9 10  1  0
 10 11  2  0
 11 12  1  0
 12 13  1  0
 12  8  1  0
  1 14  1  0
  1 15  1  0
  1 16  1  0
  5 17  1  0
  6 18  1  0
  6 19  1  0
  7 20  1  0
  7 21  1  0
  9 22  1  0
 10 23  1  0
 13 24  1  0
 13 25  1  0
 13 26  1  0
A    1
 C1 
A    2
 O1 
A    3
 C2 
A    4
 O2 
A    5
 N1 
A    6
 C3 
A    7
 C4 
A    8
 C5 
A    9
 C6 
A   10
 C7 
A   11
 N2 
A   12
 N3 
A   13
 C8 
A   14
 H1 
A   15
 H2 
A   16
 H3 
A   17
 H4 
A   18
 H5 
A   19
 H6 
A   20
 H7 
A   21
 H8 
A   22
 H9 
A   23
 H10
A   24
 H11
A   25
 H12
A   26
 H13
M  END
>  <ref_pdb>  (190) 
x0554_0A

>  <ref_mols>  (190) 
x0556_0A

>  <original SMILES>  (190) 
COC(=O)NCCc1ccnn1C

>  <rationale>  (190) 
info cluster #9 (rank 19); hbond:H21+S87; 

>  <cluster_rank>  (190) 
19

>  <N_interactions>  (190) 
2

>  <N_interactions_lost>  (190) 
1

>  <∆∆G>  (190) 
-6.607716

>  <comRMSD>  (190) 
0.572406

>  <N_rotatable_bonds>  (190) 
5

>  <N_unconstrained_atoms>  (190) 
2

>  <N_constrained_atoms>  (190) 
12

$$$$
Z1355715161
     RDKit          3D

 23 23  0  0  0  0  0  0  0  0999 V2000
   12.1170   14.9350   21.6420 C   0  0  0  0  0  0  0  0  0  0  0  0
   11.0830   13.9940   22.0110 N   0  0  0  0  0  0  0  0  0  0  0  0
   10.5680   14.0560   23.2930 C   0  0  0  0  0  0  0  0  0  0  0  0
   11.1970   14.4840   24.2460 O   0  0  0  0  0  0  0  0  0  0  0  0
    9.2860   13.5940   23.3350 N   0  0  0  0  0  0  0  0  0  0  0  0
    8.9130   12.3920   23.9150 C   0  0  0  0  0  0  0  0  0  0  0  0
    7.9080   12.2800   24.8630 C   0  0  0  0  0  0  0  0  0  0  0  0
    7.5380   11.1230   25.4410 N   0  0  0  0  0  0  0  0  0  0  0  0
    8.2180   10.0390   25.0300 C   0  0  0  0  0  0  0  0  0  0  0  0
    9.2390    9.9710   24.0900 C   0  0  0  0  0  0  0  0  0  0  0  0
    9.9320    8.7020   23.6800 C   0  0  0  0  0  0  0  0  0  0  0  0
    9.5760   11.2330   23.5340 C   0  0  0  0  0  0  0  0  0  0  0  0
   11.7420   15.9510   21.7920 H   0  0  0  0  0  0  0  0  0  0  0  0
   12.9800   14.7890   22.2940 H   0  0  0  0  0  0  0  0  0  0  0  0
   12.4090   14.7920   20.6000 H   0  0  0  0  0  0  0  0  0  0  0  0
   11.1290   13.0810   21.5470 H   0  0  0  0  0  0  0  0  0  0  0  0
    8.5840   14.3170   23.3380 H   0  0  0  0  0  0  0  0  0  0  0  0
    7.3470   13.1440   25.2040 H   0  0  0  0  0  0  0  0  0  0  0  0
    7.9660    9.0770   25.4640 H   0  0  0  0  0  0  0  0  0  0  0  0
    9.2360    7.8810   23.8920 H   0  0  0  0  0  0  0  0  0  0  0  0
   10.2240    8.5540   22.6450 H   0  0  0  0  0  0  0  0  0  0  0  0
   10.8520    8.5560   24.2580 H   0  0  0  0  0  0  0  0  0  0  0  0
   10.3760   11.2640   22.7890 H   0  0  0  0  0  0  0  0  0  0  0  0
  1  2  1  0
  2  3  1  0
  3  4  2  0
  3  5  1  0
  5  6  1  0
  6  7  2  0
  7  8  1  0
  8  9  2  0
  9 10  1  0
 10 11  1  0
 10 12  2  0
 12  6  1  0
  1 13  1  0
  1 14  1  0
  1 15  1  0
  2 16  1  0
  5 17  1  0
  7 18  1  0
  9 19  1  0
 11 20  1  0
 11 21  1  0
 11 22  1  0
 12 23  1  0
A    1
 C1 
A    2
 N1 
A    3
 C2 
A    4
 O1 
A    5
 N2 
A    6
 C3 
A    7
 C4 
A    8
 N3 
A    9
 C5 
A   10
 C6 
A   11
 C7 
A   12
 C8 
A   13
 H1 
A   14
 H2 
A   15
 H3 
A   16
 H4 
A   17
 H5 
A   18
 H6 
A   19
 H7 
A   20
 H8 
A   21
 H9 
A   22
 H10
A   23
 H11
M  END
>  <ref_pdb>  (191) 
x0554_0A

>  <ref_mols>  (191) 
x0416_0A,x0451_0A

>  <original SMILES>  (191) 
CNC(=O)Nc1cncc(C)c1

>  <rationale>  (191) 
info cluster #8 (rank 20); hbond:S125+T126; hydroph_interaction:D109+V124; 

>  <cluster_rank>  (191) 
20

>  <N_interactions>  (191) 
4

>  <N_interactions_lost>  (191) 
1

>  <∆∆G>  (191) 
-6.556692

>  <comRMSD>  (191) 
0.713652

>  <N_rotatable_bonds>  (191) 
3

>  <N_unconstrained_atoms>  (191) 
0

>  <N_constrained_atoms>  (191) 
14

$$$$
Z1431736677
     RDKit          3D

 40 41  0  0  0  0  0  0  0  0999 V2000
   11.9240   14.3170   22.0860 C   0  0  0  0  0  0  0  0  0  0  0  0
   11.3170   13.5340   23.2440 C   0  0  0  0  0  0  0  0  0  0  0  0
   11.2860   13.8710   24.4210 O   0  0  0  0  0  0  0  0  0  0  0  0
   10.7210   12.3270   23.0100 N   0  0  0  0  0  0  0  0  0  0  0  0
    9.6800   11.7750   23.7780 C   0  0  0  0  0  0  0  0  0  0  0  0
    8.7760   12.6840   24.3450 C   0  0  0  0  0  0  0  0  0  0  0  0
    7.6940   12.3030   25.1440 C   0  0  0  0  0  0  0  0  0  0  0  0
    6.9060   13.3830   25.6210 N   0  0  0  0  0  0  0  0  0  0  0  0
    5.5920   13.4370   26.0910 C   0  0  0  0  0  0  0  0  0  0  0  0
    4.8710   14.4280   26.0450 O   0  0  0  0  0  0  0  0  0  0  0  0
    5.1020   12.1550   26.7020 C   0  0  0  0  0  0  0  0  0  0  0  0
    5.9910   11.7160   27.8340 C   0  0  0  0  0  0  0  0  0  0  0  0
    5.2690   12.1950   29.0570 C   0  0  0  0  0  0  0  0  0  0  0  0
    3.8730   12.6020   28.7260 C   0  0  0  0  0  0  0  0  0  0  0  0
    2.8660   12.0890   29.5520 C   0  0  0  0  0  0  0  0  0  0  0  0
    3.7870   12.2740   27.3080 O   0  0  0  0  0  0  0  0  0  0  0  0
    7.4980   10.9500   25.3940 C   0  0  0  0  0  0  0  0  0  0  0  0
    8.4790    9.9480   24.7790 C   0  0  0  0  0  0  0  0  0  0  0  0
    9.5390   10.3880   23.9850 C   0  0  0  0  0  0  0  0  0  0  0  0
   10.4830    9.3110   23.3920 C   0  0  0  0  0  0  0  0  0  0  0  0
   12.1130   13.6710   21.2270 H   0  0  0  0  0  0  0  0  0  0  0  0
   12.8780   14.7590   22.3850 H   0  0  0  0  0  0  0  0  0  0  0  0
   11.2520   15.1350   21.8080 H   0  0  0  0  0  0  0  0  0  0  0  0
   10.8850   11.9740   22.0670 H   0  0  0  0  0  0  0  0  0  0  0  0
    8.9090   13.7480   24.1680 H   0  0  0  0  0  0  0  0  0  0  0  0
    7.3830   14.2750   25.5860 H   0  0  0  0  0  0  0  0  0  0  0  0
    5.0320   11.3800   25.9320 H   0  0  0  0  0  0  0  0  0  0  0  0
    6.0860   10.6260   27.8370 H   0  0  0  0  0  0  0  0  0  0  0  0
    6.9870   12.1690   27.7840 H   0  0  0  0  0  0  0  0  0  0  0  0
    5.8260   13.0170   29.5230 H   0  0  0  0  0  0  0  0  0  0  0  0
    5.2470   11.3900   29.8000 H   0  0  0  0  0  0  0  0  0  0  0  0
    3.8100   13.6950   28.7790 H   0  0  0  0  0  0  0  0  0  0  0  0
    2.9510   11.0490   29.8550 H   0  0  0  0  0  0  0  0  0  0  0  0
    2.6660   12.6420   30.4680 H   0  0  0  0  0  0  0  0  0  0  0  0
    1.9250   12.1590   28.9950 H   0  0  0  0  0  0  0  0  0  0  0  0
    6.6850   10.5710   26.0040 H   0  0  0  0  0  0  0  0  0  0  0  0
    8.3430    8.8930   24.9690 H   0  0  0  0  0  0  0  0  0  0  0  0
   11.3240    9.1400   24.0690 H   0  0  0  0  0  0  0  0  0  0  0  0
    9.9710    8.3500   23.2620 H   0  0  0  0  0  0  0  0  0  0  0  0
   10.8480    9.6200   22.4080 H   0  0  0  0  0  0  0  0  0  0  0  0
  1  2  1  0
  2  3  2  0
  2  4  1  0
  4  5  1  0
  5  6  2  0
  6  7  1  0
  7  8  1  0
  8  9  1  0
  9 10  2  0
  9 11  1  0
 11 12  1  0
 12 13  1  0
 13 14  1  0
 14 15  1  0
 14 16  1  0
  7 17  2  0
 17 18  1  0
 18 19  2  0
 19 20  1  0
 19  5  1  0
 16 11  1  0
  1 21  1  0
  1 22  1  0
  1 23  1  0
  4 24  1  0
  6 25  1  0
  8 26  1  0
 11 27  1  0
 12 28  1  0
 12 29  1  0
 13 30  1  0
 13 31  1  0
 14 32  1  0
 15 33  1  0
 15 34  1  0
 15 35  1  0
 17 36  1  0
 18 37  1  0
 20 38  1  0
 20 39  1  0
 20 40  1  0
A    1
 C1 
A    2
 C2 
A    3
 O1 
A    4
 N1 
A    5
 C3 
A    6
 C4 
A    7
 C5 
A    8
 N2 
A    9
 C6 
A   10
 O2 
A   11
 C7 
A   12
 C8 
A   13
 C9 
A   14
 C10
A   15
 C11
A   16
 O3 
A   17
 C12
A   18
 C13
A   19
 C14
A   20
 C15
A   21
 H1 
A   22
 H2 
A   23
 H3 
A   24
 H4 
A   25
 H5 
A   26
 H6 
A   27
 H7 
A   28
 H8 
A   29
 H9 
A   30
 H10
A   31
 H11
A   32
 H12
A   33
 H13
A   34
 H14
A   35
 H15
A   36
 H16
A   37
 H17
A   38
 H18
A   39
 H19
A   40
 H20
M  END
>  <ref_pdb>  (192) 
x0554_0A

>  <ref_mols>  (192) 
x0416_0A,x0554_0A

>  <original SMILES>  (192) 
CC(=O)Nc1cc(NC(=O)C2CCC(C)O2)ccc1C

>  <rationale>  (192) 
info cluster #5 (rank 20); hbond:S125; hydroph_interaction:Y89+P107+A110+V124; 

>  <cluster_rank>  (192) 
20

>  <N_interactions>  (192) 
5

>  <N_interactions_lost>  (192) 
2

>  <∆∆G>  (192) 
-8.072996

>  <comRMSD>  (192) 
0.457836

>  <N_rotatable_bonds>  (192) 
6

>  <N_unconstrained_atoms>  (192) 
1

>  <N_constrained_atoms>  (192) 
19

$$$$
Z89307585
     RDKit          3D

 29 30  0  0  0  0  0  0  0  0999 V2000
   11.9760   14.9280   20.2550 C   0  0  0  0  0  0  0  0  0  0  0  0
   11.8130   14.7160   21.7340 C   0  0  0  0  0  0  0  0  0  0  0  0
   10.9340   13.7150   22.0820 N   0  0  0  0  0  0  0  0  0  0  0  0
   10.5520   13.5270   23.4710 C   0  0  0  0  0  0  0  0  0  0  0  0
   10.7770   14.3260   24.3680 O   0  0  0  0  0  0  0  0  0  0  0  0
    9.8030   12.2380   23.8150 C   0  0  0  0  0  0  0  0  0  0  0  0
   10.1740   10.9050   23.2480 C   0  0  0  0  0  0  0  0  0  0  0  0
    9.2750    9.9370   23.7770 N   0  0  0  0  0  0  0  0  0  0  0  0
    9.3410    8.5380   23.4320 C   0  0  0  0  0  0  0  0  0  0  0  0
    8.4050   10.5600   24.6170 C   0  0  0  0  0  0  0  0  0  0  0  0
    7.3810   10.0540   25.3590 C   0  0  0  0  0  0  0  0  0  0  0  0
    6.5210   10.8900   26.2280 C   0  0  0  0  0  0  0  0  0  0  0  0
    6.7490   12.2670   26.3130 C   0  0  0  0  0  0  0  0  0  0  0  0
    7.7890   12.8330   25.5760 C   0  0  0  0  0  0  0  0  0  0  0  0
    8.6840   11.9540   24.6690 C   0  0  0  0  0  0  0  0  0  0  0  0
   12.9050   15.4680   20.0820 H   0  0  0  0  0  0  0  0  0  0  0  0
   11.1450   15.4980   19.8320 H   0  0  0  0  0  0  0  0  0  0  0  0
   12.0160   13.9570   19.7510 H   0  0  0  0  0  0  0  0  0  0  0  0
   11.4560   15.6220   22.2290 H   0  0  0  0  0  0  0  0  0  0  0  0
   12.7860   14.4790   22.1690 H   0  0  0  0  0  0  0  0  0  0  0  0
   11.1110   12.9040   21.4800 H   0  0  0  0  0  0  0  0  0  0  0  0
   11.0000   10.7410   22.5460 H   0  0  0  0  0  0  0  0  0  0  0  0
    9.0020    7.9360   24.2760 H   0  0  0  0  0  0  0  0  0  0  0  0
    8.6670    8.3320   22.6000 H   0  0  0  0  0  0  0  0  0  0  0  0
   10.3760    8.2810   23.1750 H   0  0  0  0  0  0  0  0  0  0  0  0
    7.1740    8.9960   25.3290 H   0  0  0  0  0  0  0  0  0  0  0  0
    5.7170   10.4400   26.7980 H   0  0  0  0  0  0  0  0  0  0  0  0
    6.1220   12.8900   26.9490 H   0  0  0  0  0  0  0  0  0  0  0  0
    7.9760   13.9020   25.6370 H   0  0  0  0  0  0  0  0  0  0  0  0
  1  2  1  0
  2  3  1  0
  3  4  1  0
  4  5  2  0
  4  6  1  0
  6  7  2  0
  7  8  1  0
  8  9  1  0
  8 10  1  0
 10 11  2  0
 11 12  1  0
 12 13  2  0
 13 14  1  0
 14 15  2  0
 15  6  1  0
 15 10  1  0
  1 16  1  0
  1 17  1  0
  1 18  1  0
  2 19  1  0
  2 20  1  0
  3 21  1  0
  7 22  1  0
  9 23  1  0
  9 24  1  0
  9 25  1  0
 11 26  1  0
 12 27  1  0
 13 28  1  0
 14 29  1  0
A    1
 C1 
A    2
 C2 
A    3
 N1 
A    4
 C3 
A    5
 O1 
A    6
 C4 
A    7
 C5 
A    8
 N2 
A    9
 C6 
A   10
 C7 
A   11
 C8 
A   12
 C9 
A   13
 C10
A   14
 C11
A   15
 C12
A   16
 H1 
A   17
 H2 
A   18
 H3 
A   19
 H4 
A   20
 H5 
A   21
 H6 
A   22
 H7 
A   23
 H8 
A   24
 H9 
A   25
 H10
A   26
 H11
A   27
 H12
A   28
 H13
A   29
 H14
M  END
>  <ref_pdb>  (193) 
x0554_0A

>  <ref_mols>  (193) 
x0451_0A,x0451_0A

>  <original SMILES>  (193) 
CCNC(=O)c1cn(C)c2ccccc12

>  <rationale>  (193) 
info cluster #2 (rank 20); hbond:S125; hydroph_interaction:Y90; 

>  <cluster_rank>  (193) 
20

>  <N_interactions>  (193) 
2

>  <N_interactions_lost>  (193) 
1

>  <∆∆G>  (193) 
-9.069376

>  <comRMSD>  (193) 
0.369689

>  <N_rotatable_bonds>  (193) 
4

>  <N_unconstrained_atoms>  (193) 
1

>  <N_constrained_atoms>  (193) 
14

$$$$
Z198194884
     RDKit          3D

 21 21  0  0  0  0  0  0  0  0999 V2000
   10.0140    9.1730   23.5280 C   0  0  0  0  0  0  0  0  0  0  0  0
    9.3020   10.3640   24.1620 C   0  0  0  0  0  0  0  0  0  0  0  0
    8.2650   10.0920   25.1050 C   0  0  0  0  0  0  0  0  0  0  0  0
    7.5530   11.1020   25.7360 C   0  0  0  0  0  0  0  0  0  0  0  0
    7.8880   12.4880   25.4220 C   0  0  0  0  0  0  0  0  0  0  0  0
    7.1130   13.5330   26.1280 N   0  0  0  0  0  0  0  0  0  0  0  0
    5.6470   13.4420   26.1610 C   0  0  0  0  0  0  0  0  0  0  0  0
    5.1820   12.1500   26.1230 N   0  0  0  0  0  0  0  0  0  0  0  0
    4.8400   14.3660   26.2270 O   0  0  0  0  0  0  0  0  0  0  0  0
    8.9150   12.7110   24.4940 C   0  0  0  0  0  0  0  0  0  0  0  0
    9.6020   11.6800   23.8830 C   0  0  0  0  0  0  0  0  0  0  0  0
   10.5700   11.9840   23.0180 F   0  0  0  0  0  0  0  0  0  0  0  0
    9.3250    8.3310   23.3840 H   0  0  0  0  0  0  0  0  0  0  0  0
   10.4140    9.4450   22.5440 H   0  0  0  0  0  0  0  0  0  0  0  0
   10.8200    8.8360   24.1860 H   0  0  0  0  0  0  0  0  0  0  0  0
    8.0350    9.0710   25.3320 H   0  0  0  0  0  0  0  0  0  0  0  0
    6.7730   10.8400   26.4440 H   0  0  0  0  0  0  0  0  0  0  0  0
    7.6170   14.3580   26.4090 H   0  0  0  0  0  0  0  0  0  0  0  0
    5.0470   11.8700   25.1520 H   0  0  0  0  0  0  0  0  0  0  0  0
    5.7040   11.4710   26.6630 H   0  0  0  0  0  0  0  0  0  0  0  0
    9.2030   13.7270   24.2310 H   0  0  0  0  0  0  0  0  0  0  0  0
  1  2  1  0
  2  3  2  0
  3  4  1  0
  4  5  2  0
  5  6  1  0
  6  7  1  0
  7  8  1  0
  7  9  2  0
  5 10  1  0
 10 11  2  0
 11 12  1  0
 11  2  1  0
  1 13  1  0
  1 14  1  0
  1 15  1  0
  3 16  1  0
  4 17  1  0
  6 18  1  0
  8 19  1  0
  8 20  1  0
 10 21  1  0
A    1
 C1 
A    2
 C2 
A    3
 C3 
A    4
 C4 
A    5
 C5 
A    6
 N1 
A    7
 C6 
A    8
 N2 
A    9
 O1 
A   10
 C7 
A   11
 C8 
A   12
 F1 
A   13
 H1 
A   14
 H2 
A   15
 H3 
A   16
 H4 
A   17
 H5 
A   18
 H6 
A   19
 H7 
A   20
 H8 
A   21
 H9 
M  END
>  <ref_pdb>  (194) 
x0554_0A

>  <ref_mols>  (194) 
x0416_0A,x0310_0A

>  <original SMILES>  (194) 
Cc1ccc(NC(N)=O)cc1F

>  <rationale>  (194) 
info cluster #6 (rank 20); halogenbond:S125; 

>  <cluster_rank>  (194) 
20

>  <N_interactions>  (194) 
1

>  <N_interactions_lost>  (194) 
0

>  <∆∆G>  (194) 
-5.243327

>  <comRMSD>  (194) 
0.707579

>  <N_rotatable_bonds>  (194) 
2

>  <N_unconstrained_atoms>  (194) 
1

>  <N_constrained_atoms>  (194) 
12

$$$$
Z1578595689
     RDKit          3D

 23 23  0  0  0  0  0  0  0  0999 V2000
   11.8700   14.1240   22.3420 C   0  0  0  0  0  0  0  0  0  0  0  0
   11.1540   13.4050   23.4770 C   0  0  0  0  0  0  0  0  0  0  0  0
   11.1320   13.8940   24.5990 O   0  0  0  0  0  0  0  0  0  0  0  0
   10.5760   12.2040   23.0800 N   0  0  0  0  0  0  0  0  0  0  0  0
    9.5720   11.4300   23.7540 C   0  0  0  0  0  0  0  0  0  0  0  0
    9.6500   10.0220   23.7080 C   0  0  0  0  0  0  0  0  0  0  0  0
   10.7250    9.2560   23.0010 C   0  0  0  0  0  0  0  0  0  0  0  0
    8.6970    9.2540   24.3520 C   0  0  0  0  0  0  0  0  0  0  0  0
    7.5470    9.8750   25.1240 C   0  0  0  0  0  0  0  0  0  0  0  0
    7.5460   11.2510   25.1180 C   0  0  0  0  0  0  0  0  0  0  0  0
    8.5100   12.0050   24.4630 C   0  0  0  0  0  0  0  0  0  0  0  0
    8.4290   13.2430   24.5060 O   0  0  0  0  0  0  0  0  0  0  0  0
   12.7400   14.6760   22.7120 H   0  0  0  0  0  0  0  0  0  0  0  0
   12.2280   13.4180   21.5890 H   0  0  0  0  0  0  0  0  0  0  0  0
   11.1970   14.8340   21.8540 H   0  0  0  0  0  0  0  0  0  0  0  0
   10.8250   11.9030   22.1340 H   0  0  0  0  0  0  0  0  0  0  0  0
   11.6570    9.3650   23.5500 H   0  0  0  0  0  0  0  0  0  0  0  0
   10.8770    9.6190   21.9870 H   0  0  0  0  0  0  0  0  0  0  0  0
   10.4790    8.1890   22.9850 H   0  0  0  0  0  0  0  0  0  0  0  0
    8.7550    8.1700   24.3190 H   0  0  0  0  0  0  0  0  0  0  0  0
    6.7920    9.2860   25.6350 H   0  0  0  0  0  0  0  0  0  0  0  0
    6.7090   11.6740   25.6790 H   0  0  0  0  0  0  0  0  0  0  0  0
    9.2500   13.6100   24.1450 H   0  0  0  0  0  0  0  0  0  0  0  0
  1  2  1  0
  2  3  2  0
  2  4  1  0
  4  5  1  0
  5  6  2  0
  6  7  1  0
  6  8  1  0
  8  9  2  0
  9 10  1  0
 10 11  2  0
 11 12  1  0
 11  5  1  0
  1 13  1  0
  1 14  1  0
  1 15  1  0
  4 16  1  0
  7 17  1  0
  7 18  1  0
  7 19  1  0
  8 20  1  0
  9 21  1  0
 10 22  1  0
 12 23  1  0
A    1
 C1 
A    2
 C2 
A    3
 O1 
A    4
 N1 
A    5
 C3 
A    6
 C4 
A    7
 C5 
A    8
 C6 
A    9
 C7 
A   10
 C8 
A   11
 C9 
A   12
 O2 
A   13
 H1 
A   14
 H2 
A   15
 H3 
A   16
 H4 
A   17
 H5 
A   18
 H6 
A   19
 H7 
A   20
 H8 
A   21
 H9 
A   22
 H10
A   23
 H11
M  END
>  <ref_pdb>  (195) 
x0554_0A

>  <ref_mols>  (195) 
x0554_0A,x0310_0A

>  <original SMILES>  (195) 
CC(=O)Nc1c(C)cccc1O

>  <rationale>  (195) 
info cluster #0 (rank 20); hbond:S125; hydroph_interaction:A110+V124; 

>  <cluster_rank>  (195) 
20

>  <N_interactions>  (195) 
3

>  <N_interactions_lost>  (195) 
1

>  <∆∆G>  (195) 
-7.920945

>  <comRMSD>  (195) 
0.721419

>  <N_rotatable_bonds>  (195) 
4

>  <N_unconstrained_atoms>  (195) 
1

>  <N_constrained_atoms>  (195) 
13

$$$$
Z2796535830
     RDKit          3D

 32 32  0  0  0  0  0  0  0  0999 V2000
    9.9340    8.6820   23.0040 C   0  0  0  0  0  0  0  0  0  0  0  0
    9.2840    9.7610   23.8150 C   0  0  0  0  0  0  0  0  0  0  0  0
    8.0930    9.4630   24.4070 N   0  0  0  0  0  0  0  0  0  0  0  0
    7.7680   10.5940   25.0430 N   0  0  0  0  0  0  0  0  0  0  0  0
    6.5510   10.6740   25.8180 C   0  0  0  0  0  0  0  0  0  0  0  0
    8.6890   11.5970   24.8750 C   0  0  0  0  0  0  0  0  0  0  0  0
    8.5060   12.8680   25.4620 C   0  0  0  0  0  0  0  0  0  0  0  0
    9.7030   11.0640   24.0830 C   0  0  0  0  0  0  0  0  0  0  0  0
   10.8700   11.6090   23.6300 C   0  0  0  0  0  0  0  0  0  0  0  0
   10.8910   13.1150   23.6630 C   0  0  0  0  0  0  0  0  0  0  0  0
   11.2050   13.6740   22.3750 N   0  0  0  0  0  0  0  0  0  0  0  0
   10.8610   14.9850   22.1500 C   0  0  0  0  0  0  0  0  0  0  0  0
   10.8340   15.8510   23.0130 O   0  0  0  0  0  0  0  0  0  0  0  0
   10.4840   15.3300   20.7230 C   0  0  0  0  0  0  0  0  0  0  0  0
   10.9120   14.5240   19.7160 N   0  0  0  0  0  0  0  0  0  0  0  0
    9.7010   16.5210   20.6220 O   0  0  0  0  0  0  0  0  0  0  0  0
   10.2250    9.0630   22.0240 H   0  0  0  0  0  0  0  0  0  0  0  0
    9.2260    7.8600   22.8600 H   0  0  0  0  0  0  0  0  0  0  0  0
   10.8190    8.3270   23.5310 H   0  0  0  0  0  0  0  0  0  0  0  0
    5.8220    9.9390   25.4760 H   0  0  0  0  0  0  0  0  0  0  0  0
    6.7840   10.4860   26.8730 H   0  0  0  0  0  0  0  0  0  0  0  0
    6.1300   11.6810   25.7750 H   0  0  0  0  0  0  0  0  0  0  0  0
    7.7920   12.9630   26.2900 H   0  0  0  0  0  0  0  0  0  0  0  0
    8.1890   13.5620   24.6770 H   0  0  0  0  0  0  0  0  0  0  0  0
    9.4660   13.2320   25.8410 H   0  0  0  0  0  0  0  0  0  0  0  0
   11.0260   11.2560   22.6140 H   0  0  0  0  0  0  0  0  0  0  0  0
   11.6920   11.2450   24.2540 H   0  0  0  0  0  0  0  0  0  0  0  0
   11.6420   13.4820   24.3750 H   0  0  0  0  0  0  0  0  0  0  0  0
    9.9140   13.4920   23.9780 H   0  0  0  0  0  0  0  0  0  0  0  0
   11.1300   13.0170   21.5840 H   0  0  0  0  0  0  0  0  0  0  0  0
   10.4020   14.5570   18.8480 H   0  0  0  0  0  0  0  0  0  0  0  0
   11.8490   14.1400   19.7430 H   0  0  0  0  0  0  0  0  0  0  0  0
  1  2  1  0
  2  3  2  0
  3  4  1  0
  4  5  1  0
  4  6  1  0
  6  7  1  0
  6  8  2  0
  8  9  1  0
  9 10  1  0
 10 11  1  0
 11 12  1  0
 12 13  2  0
 12 14  1  0
 14 15  1  0
 14 16  2  0
  8  2  1  0
  1 17  1  0
  1 18  1  0
  1 19  1  0
  5 20  1  0
  5 21  1  0
  5 22  1  0
  7 23  1  0
  7 24  1  0
  7 25  1  0
  9 26  1  0
  9 27  1  0
 10 28  1  0
 10 29  1  0
 11 30  1  0
 15 31  1  0
 15 32  1  0
A    1
 C1 
A    2
 C2 
A    3
 N1 
A    4
 N2 
A    5
 C3 
A    6
 C4 
A    7
 C5 
A    8
 C6 
A    9
 C7 
A   10
 C8 
A   11
 N3 
A   12
 C9 
A   13
 O1 
A   14
 C10
A   15
 N4 
A   16
 O2 
A   17
 H1 
A   18
 H2 
A   19
 H3 
A   20
 H4 
A   21
 H5 
A   22
 H6 
A   23
 H7 
A   24
 H8 
A   25
 H9 
A   26
 H10
A   27
 H11
A   28
 H12
A   29
 H13
A   30
 H14
A   31
 H15
A   32
 H16
M  END
>  <ref_pdb>  (196) 
x0554_0A

>  <ref_mols>  (196) 
x0310_0A

>  <original SMILES>  (196) 
Cc1nn(C)c(C)c1CCNC(=O)C(N)=O

>  <rationale>  (196) 
info cluster #7 (rank 20); hbond:S87+S125; hydroph_interaction:D109+V124; 

>  <cluster_rank>  (196) 
20

>  <N_interactions>  (196) 
5

>  <N_interactions_lost>  (196) 
2

>  <∆∆G>  (196) 
-8.769479

>  <comRMSD>  (196) 
0.581607

>  <N_rotatable_bonds>  (196) 
6

>  <N_unconstrained_atoms>  (196) 
2

>  <N_constrained_atoms>  (196) 
14

$$$$
Z5485759543
     RDKit          3D

 28 29  0  0  0  0  0  0  0  0999 V2000
    9.8010    8.8750   23.5830 C   0  0  0  0  0  0  0  0  0  0  0  0
    9.5730   10.2770   23.8030 N   0  0  0  0  0  0  0  0  0  0  0  0
   10.3080   11.1820   23.1340 N   0  0  0  0  0  0  0  0  0  0  0  0
    9.8240   12.3710   23.5470 C   0  0  0  0  0  0  0  0  0  0  0  0
   10.3980   13.6570   22.9870 C   0  0  0  0  0  0  0  0  0  0  0  0
    9.3820   14.2770   22.1110 N   0  0  0  0  0  0  0  0  0  0  0  0
    9.7540   15.3280   20.8520 S   0  0  0  0  0  4  0  0  0  0  0  0
   11.2180   14.5150   20.1450 C   0  0  0  0  0  0  0  0  0  0  0  0
   10.1330   16.7290   21.2350 O   0  0  0  0  0  0  0  0  0  0  0  0
    8.7760   12.1980   24.5030 C   0  0  0  0  0  0  0  0  0  0  0  0
    7.9240   13.0300   25.2580 C   0  0  0  0  0  0  0  0  0  0  0  0
    6.9820   12.4550   26.1230 C   0  0  0  0  0  0  0  0  0  0  0  0
    6.8830   11.0760   26.2460 C   0  0  0  0  0  0  0  0  0  0  0  0
    7.7170   10.2400   25.5140 C   0  0  0  0  0  0  0  0  0  0  0  0
    8.6460   10.8230   24.6490 C   0  0  0  0  0  0  0  0  0  0  0  0
    9.1810    8.3110   24.2840 H   0  0  0  0  0  0  0  0  0  0  0  0
   10.8550    8.6480   23.7520 H   0  0  0  0  0  0  0  0  0  0  0  0
    9.5330    8.6390   22.5510 H   0  0  0  0  0  0  0  0  0  0  0  0
   11.3100   13.4470   22.4170 H   0  0  0  0  0  0  0  0  0  0  0  0
   10.6500   14.3180   23.8260 H   0  0  0  0  0  0  0  0  0  0  0  0
    8.5710   14.4660   22.7050 H   0  0  0  0  0  0  0  0  0  0  0  0
   11.9320   15.2630   19.7950 H   0  0  0  0  0  0  0  0  0  0  0  0
   10.9220   13.8670   19.3170 H   0  0  0  0  0  0  0  0  0  0  0  0
   11.6920   13.9130   20.9210 H   0  0  0  0  0  0  0  0  0  0  0  0
    7.9880   14.1140   25.1760 H   0  0  0  0  0  0  0  0  0  0  0  0
    6.3240   13.0960   26.7020 H   0  0  0  0  0  0  0  0  0  0  0  0
    6.1490   10.6420   26.9230 H   0  0  0  0  0  0  0  0  0  0  0  0
    7.6410    9.1740   25.6200 H   0  0  0  0  0  0  0  0  0  0  0  0
  1  2  1  0
  2  3  1  0
  3  4  2  0
  4  5  1  0
  5  6  1  0
  6  7  1  0
  7  8  1  0
  7  9  2  0
  4 10  1  0
 10 11  2  0
 11 12  1  0
 12 13  2  0
 13 14  1  0
 14 15  2  0
 15  2  1  0
 15 10  1  0
  1 16  1  0
  1 17  1  0
  1 18  1  0
  5 19  1  0
  5 20  1  0
  6 21  1  0
  8 22  1  0
  8 23  1  0
  8 24  1  0
 11 25  1  0
 12 26  1  0
 13 27  1  0
 14 28  1  0
A    1
 C1 
A    2
 N1 
A    3
 N2 
A    4
 C2 
A    5
 C3 
A    6
 N3 
A    7
 S1 
A    8
 C4 
A    9
 O1 
A   10
 C5 
A   11
 C6 
A   12
 C7 
A   13
 C8 
A   14
 C9 
A   15
 C10
A   16
 H1 
A   17
 H2 
A   18
 H3 
A   19
 H4 
A   20
 H5 
A   21
 H6 
A   22
 H7 
A   23
 H8 
A   24
 H9 
A   25
 H10
A   26
 H11
A   27
 H12
A   28
 H13
M  END
>  <ref_pdb>  (197) 
x0554_0A

>  <ref_mols>  (197) 
x0451_0A,x0566_0A

>  <original SMILES>  (197) 
Cn1nc(CNS(C)=O)c2ccccc21

>  <rationale>  (197) 
info cluster #1 (rank 20); hbond:S87+T126; 

>  <cluster_rank>  (197) 
20

>  <N_interactions>  (197) 
2

>  <N_interactions_lost>  (197) 
1

>  <∆∆G>  (197) 
-8.737377

>  <comRMSD>  (197) 
0.767377

>  <N_rotatable_bonds>  (197) 
5

>  <N_unconstrained_atoms>  (197) 
0

>  <N_constrained_atoms>  (197) 
16

$$$$
Z3241311221
     RDKit          3D

 35 36  0  0  0  0  0  0  0  0999 V2000
    9.6490   16.5220   20.9670 C   0  0  0  0  0  0  0  0  0  0  0  0
    9.9710   15.0610   21.2710 C   0  0  0  0  0  0  0  0  0  0  0  0
   11.0670   14.6070   20.4010 C   0  0  0  0  0  0  0  0  0  0  0  0
   10.3120   14.8490   22.7540 C   0  0  0  0  0  0  0  0  0  0  0  0
   10.7350   15.7750   23.4470 O   0  0  0  0  0  0  0  0  0  0  0  0
   10.1420   13.5570   23.2540 N   0  0  0  0  0  0  0  0  0  0  0  0
   11.2500   12.7190   23.1900 C   0  0  0  0  0  0  0  0  0  0  0  0
   10.9560   11.2560   23.2970 C   0  0  0  0  0  0  0  0  0  0  0  0
    9.6620   10.9370   23.9940 C   0  0  0  0  0  0  0  0  0  0  0  0
    8.7940   11.9980   24.5990 C   0  0  0  0  0  0  0  0  0  0  0  0
    9.2310   13.3510   24.4420 C   0  0  0  0  0  0  0  0  0  0  0  0
    7.7010   11.2340   25.2170 C   0  0  0  0  0  0  0  0  0  0  0  0
    6.4380   11.5830   26.0720 C   0  0  0  0  0  0  0  0  0  0  0  0
    5.8460   12.6450   26.1810 O   0  0  0  0  0  0  0  0  0  0  0  0
    5.9820   10.5160   26.7930 O   0  0  0  0  0  0  0  0  0  0  0  0
    7.9080    9.9040   24.9400 N   0  0  0  0  0  0  0  0  0  0  0  0
    9.0450    9.8130   24.2290 N   0  0  0  0  0  0  0  0  0  0  0  0
    9.3410    8.5730   23.8980 C   0  0  0  0  0  0  0  0  0  0  0  0
    8.7250   16.8560   21.4520 H   0  0  0  0  0  0  0  0  0  0  0  0
    9.5260   16.6780   19.8890 H   0  0  0  0  0  0  0  0  0  0  0  0
   10.4550   17.1750   21.3100 H   0  0  0  0  0  0  0  0  0  0  0  0
    9.0820   14.4650   21.0620 H   0  0  0  0  0  0  0  0  0  0  0  0
   10.7140   13.9490   19.6020 H   0  0  0  0  0  0  0  0  0  0  0  0
   11.8360   14.0660   20.9660 H   0  0  0  0  0  0  0  0  0  0  0  0
   11.5690   15.4530   19.9230 H   0  0  0  0  0  0  0  0  0  0  0  0
   11.9570   12.9590   23.9860 H   0  0  0  0  0  0  0  0  0  0  0  0
   11.7870   12.9070   22.2550 H   0  0  0  0  0  0  0  0  0  0  0  0
   11.7910   10.7830   23.8240 H   0  0  0  0  0  0  0  0  0  0  0  0
   10.8920   10.7790   22.3290 H   0  0  0  0  0  0  0  0  0  0  0  0
    8.3640   14.0040   24.2820 H   0  0  0  0  0  0  0  0  0  0  0  0
    9.7450   13.6800   25.3530 H   0  0  0  0  0  0  0  0  0  0  0  0
    5.1330   10.3120   26.3470 H   0  0  0  0  0  0  0  0  0  0  0  0
    8.9330    7.8960   24.6470 H   0  0  0  0  0  0  0  0  0  0  0  0
    8.9050    8.3700   22.9130 H   0  0  0  0  0  0  0  0  0  0  0  0
   10.4260    8.4600   23.8420 H   0  0  0  0  0  0  0  0  0  0  0  0
  1  2  1  0
  2  3  1  0
  2  4  1  0
  4  5  2  0
  4  6  1  0
  6  7  1  0
  7  8  1  0
  8  9  1  0
  9 10  2  0
 10 11  1  0
 10 12  1  0
 12 13  1  0
 13 14  2  0
 13 15  1  0
 12 16  2  0
 16 17  1  0
 17 18  1  0
 11  6  1  0
 17  9  1  0
  1 19  1  0
  1 20  1  0
  1 21  1  0
  2 22  1  0
  3 23  1  0
  3 24  1  0
  3 25  1  0
  7 26  1  0
  7 27  1  0
  8 28  1  0
  8 29  1  0
 11 30  1  0
 11 31  1  0
 15 32  1  0
 18 33  1  0
 18 34  1  0
 18 35  1  0
A    1
 C1 
A    2
 C2 
A    3
 C3 
A    4
 C4 
A    5
 O1 
A    6
 N1 
A    7
 C5 
A    8
 C6 
A    9
 C7 
A   10
 C8 
A   11
 C9 
A   12
 C10
A   13
 C11
A   14
 O2 
A   15
 O3 
A   16
 N2 
A   17
 N3 
A   18
 C12
A   19
 H1 
A   20
 H2 
A   21
 H3 
A   22
 H4 
A   23
 H5 
A   24
 H6 
A   25
 H7 
A   26
 H8 
A   27
 H9 
A   28
 H10
A   29
 H11
A   30
 H12
A   31
 H13
A   32
 H14
A   33
 H15
A   34
 H16
A   35
 H17
M  END
>  <ref_pdb>  (198) 
x0554_0A

>  <ref_mols>  (198) 
x0556_0A

>  <original SMILES>  (198) 
CC(C)C(=O)N1CCc2c(c(C(=O)O)nn2C)C1

>  <rationale>  (198) 
info cluster #3 (rank 20); hbond:S87+S105; hydroph_interaction:A110+V84; 

>  <cluster_rank>  (198) 
20

>  <N_interactions>  (198) 
4

>  <N_interactions_lost>  (198) 
2

>  <∆∆G>  (198) 
-7.876211

>  <comRMSD>  (198) 
0.770103

>  <N_rotatable_bonds>  (198) 
5

>  <N_unconstrained_atoms>  (198) 
3

>  <N_constrained_atoms>  (198) 
15

$$$$
PV_006913967883
     RDKit          3D

 22 22  0  0  0  0  0  0  0  0999 V2000
    6.6030   11.9830   26.2010 C   0  0  0  0  0  0  0  0  0  0  0  0
    7.3300   10.8280   25.5710 C   0  0  0  0  0  0  0  0  0  0  0  0
    8.5220   11.0790   24.7260 C   0  0  0  0  0  0  0  0  0  0  0  0
    9.3070   10.1660   23.9980 C   0  0  0  0  0  0  0  0  0  0  0  0
    9.1760    8.7910   23.8640 C   0  0  0  0  0  0  0  0  0  0  0  0
   10.5650   11.0080   23.2170 S   0  0  0  0  0  0  0  0  0  0  0  0
   10.0450   12.5320   23.8280 C   0  0  0  0  0  0  0  0  0  0  0  0
   10.7390   13.7690   23.5040 C   0  0  0  0  0  0  0  0  0  0  0  0
   11.0800   14.6230   24.3000 O   0  0  0  0  0  0  0  0  0  0  0  0
   10.9490   13.8670   22.1550 O   0  0  0  0  0  0  0  0  0  0  0  0
   12.0640   14.6870   21.7960 C   0  0  0  0  0  0  0  0  0  0  0  0
    8.9330   12.3970   24.6260 C   0  0  0  0  0  0  0  0  0  0  0  0
    6.9510   13.0080   26.0330 H   0  0  0  0  0  0  0  0  0  0  0  0
    5.7250   11.8020   26.8260 H   0  0  0  0  0  0  0  0  0  0  0  0
    6.9750    9.8170   25.7480 H   0  0  0  0  0  0  0  0  0  0  0  0
   10.1460    8.3270   23.6550 H   0  0  0  0  0  0  0  0  0  0  0  0
    8.5070    8.4530   23.0800 H   0  0  0  0  0  0  0  0  0  0  0  0
    8.8330    8.3870   24.8200 H   0  0  0  0  0  0  0  0  0  0  0  0
   12.8810   14.5010   22.4970 H   0  0  0  0  0  0  0  0  0  0  0  0
   11.8090   15.7510   21.8250 H   0  0  0  0  0  0  0  0  0  0  0  0
   12.4020   14.4500   20.7820 H   0  0  0  0  0  0  0  0  0  0  0  0
    8.4470   13.2510   25.1140 H   0  0  0  0  0  0  0  0  0  0  0  0
  1  2  2  0
  2  3  1  0
  3  4  2  0
  4  5  1  0
  4  6  1  0
  6  7  1  0
  7  8  1  0
  8  9  2  0
  8 10  1  0
 10 11  1  0
  7 12  2  0
 12  3  1  0
  1 13  1  0
  1 14  1  0
  2 15  1  0
  5 16  1  0
  5 17  1  0
  5 18  1  0
 11 19  1  0
 11 20  1  0
 11 21  1  0
 12 22  1  0
A    1
 C1 
A    2
 C2 
A    3
 C3 
A    4
 C4 
A    5
 C5 
A    6
 S1 
A    7
 C6 
A    8
 C7 
A    9
 O1 
A   10
 O2 
A   11
 C8 
A   12
 C9 
A   13
 H1 
A   14
 H2 
A   15
 H3 
A   16
 H4 
A   17
 H5 
A   18
 H6 
A   19
 H7 
A   20
 H8 
A   21
 H9 
A   22
 H10
M  END
>  <ref_pdb>  (199) 
x0554_0A

>  <ref_mols>  (199) 
x0451_0A,x0554_0A

>  <original SMILES>  (199) 
C=Cc1cc(C(=O)OC)sc1C

>  <rationale>  (199) 
info cluster #4 (rank 20); saltbridge:H21; 

>  <cluster_rank>  (199) 
20

>  <N_interactions>  (199) 
1

>  <N_interactions_lost>  (199) 
0

>  <∆∆G>  (199) 
-6.217099

>  <comRMSD>  (199) 
0.800459

>  <N_rotatable_bonds>  (199) 
4

>  <N_unconstrained_atoms>  (199) 
0

>  <N_constrained_atoms>  (199) 
14

$$$$
Z2435155586
     RDKit          3D

 30 30  0  0  0  0  0  0  0  0999 V2000
   11.0490   14.8190   19.8410 C   0  0  0  0  0  0  0  0  0  0  0  0
   10.7460   15.5840   21.1110 C   0  0  1  0  0  0  0  0  0  0  0  0
    9.9510   16.6560   21.0100 N   0  0  0  0  0  0  0  0  0  0  0  0
   10.2770   14.7160   22.2020 C   0  0  0  0  0  0  0  0  0  0  0  0
    9.4150   13.8840   22.0600 O   0  0  0  0  0  0  0  0  0  0  0  0
   10.8490   14.8860   23.4020 N   0  0  0  0  0  0  0  0  0  0  0  0
   10.9030   13.6870   24.2180 C   0  0  0  0  0  0  0  0  0  0  0  0
   10.9660   12.2840   23.5560 C   0  0  0  0  0  0  0  0  0  0  0  0
    9.8250   11.3080   23.9400 C   0  0  0  0  0  0  0  0  0  0  0  0
    8.6970   11.6600   24.8550 C   0  0  0  0  0  0  0  0  0  0  0  0
    7.8320   10.6530   25.0530 N   0  0  0  0  0  0  0  0  0  0  0  0
    6.6430   10.6040   25.8690 C   0  0  0  0  0  0  0  0  0  0  0  0
    8.3010    9.5340   24.2810 N   0  0  0  0  0  0  0  0  0  0  0  0
    9.4840    9.9560   23.6310 C   0  0  0  0  0  0  0  0  0  0  0  0
   10.5690   15.3060   18.9870 H   0  0  0  0  0  0  0  0  0  0  0  0
   12.1320   14.7590   19.6860 H   0  0  0  0  0  0  0  0  0  0  0  0
   10.6550   13.8070   19.9270 H   0  0  0  0  0  0  0  0  0  0  0  0
   11.7130   15.9890   21.4360 H   0  0  0  0  0  0  0  0  0  0  0  0
    9.0250   16.3900   21.3290 H   0  0  0  0  0  0  0  0  0  0  0  0
   10.2510   17.3260   21.7080 H   0  0  0  0  0  0  0  0  0  0  0  0
   11.5810   15.5730   23.5120 H   0  0  0  0  0  0  0  0  0  0  0  0
   11.7580   13.8020   24.8950 H   0  0  0  0  0  0  0  0  0  0  0  0
   10.0040   13.7110   24.8400 H   0  0  0  0  0  0  0  0  0  0  0  0
   11.9280   11.8120   23.7810 H   0  0  0  0  0  0  0  0  0  0  0  0
   10.9580   12.4300   22.4720 H   0  0  0  0  0  0  0  0  0  0  0  0
    8.6710   12.6690   25.2780 H   0  0  0  0  0  0  0  0  0  0  0  0
    6.9000   10.1540   26.8280 H   0  0  0  0  0  0  0  0  0  0  0  0
    5.8880    9.9980   25.3740 H   0  0  0  0  0  0  0  0  0  0  0  0
    6.2840   11.6110   26.0130 H   0  0  0  0  0  0  0  0  0  0  0  0
   10.0080    9.2590   22.9890 H   0  0  0  0  0  0  0  0  0  0  0  0
  1  2  1  0
  2  3  1  0
  2  4  1  0
  4  5  2  0
  4  6  1  0
  6  7  1  0
  7  8  1  0
  8  9  1  0
  9 10  2  0
 10 11  1  0
 11 12  1  0
 11 13  1  0
 13 14  2  0
 14  9  1  0
  1 15  1  0
  1 16  1  0
  1 17  1  0
  2 18  1  1
  3 19  1  0
  3 20  1  0
  6 21  1  0
  7 22  1  0
  7 23  1  0
  8 24  1  0
  8 25  1  0
 10 26  1  0
 12 27  1  0
 12 28  1  0
 12 29  1  0
 14 30  1  0
A    1
 C1 
A    2
 C2 
A    3
 N1 
A    4
 C3 
A    5
 O1 
A    6
 N2 
A    7
 C4 
A    8
 C5 
A    9
 C6 
A   10
 C7 
A   11
 N3 
A   12
 C8 
A   13
 N4 
A   14
 C9 
A   15
 H1 
A   16
 H2 
A   17
 H3 
A   18
 H4 
A   19
 H5 
A   20
 H6 
A   21
 H7 
A   22
 H8 
A   23
 H9 
A   24
 H10
A   25
 H11
A   26
 H12
A   27
 H13
A   28
 H14
A   29
 H15
A   30
 H16
M  END
>  <ref_pdb>  (200) 
x0554_0A

>  <ref_mols>  (200) 
x0310_0A

>  <original SMILES>  (200) 
C[C@@H](N)C(=O)NCCc1cnn(C)c1

>  <rationale>  (200) 
info cluster #9 (rank 20); hbond:S87; 

>  <cluster_rank>  (200) 
20

>  <N_interactions>  (200) 
3

>  <N_interactions_lost>  (200) 
1

>  <∆∆G>  (200) 
-7.140637

>  <comRMSD>  (200) 
0.745727

>  <N_rotatable_bonds>  (200) 
7

>  <N_unconstrained_atoms>  (200) 
2

>  <N_constrained_atoms>  (200) 
14

$$$$
