x0451S1
     RDKit          3D

  4  3  0  0  0  0  0  0  0  0999 V2000
   10.2220   13.4960   23.7980 C   0  0  0  0  0  0  0  0  0  0  0  0
   11.2080   13.5620   22.9100 N   0  0  0  0  0  0  0  0  0  0  0  0
    9.9670   14.4100   24.5610 O   0  0  0  0  0  0  0  0  0  0  0  0
   11.4380   14.7440   22.1000 C   0  0  0  0  0  0  0  0  0  0  0  0
  2  1  1  0
  1  3  2  0
  4  2  1  0
M  END
>  <id>  (1) 
A71EV2A-x0451_A_201_1_A71EV2A-x0526+A+147+1

$$$$
x0487S1
     RDKit          3D

  4  3  0  0  0  0  0  0  0  0999 V2000
   10.1120   12.3990   23.1510 N   0  0  0  0  0  0  0  0  0  0  0  0
   10.9290   13.3970   23.5700 C   0  0  0  0  0  0  0  0  0  0  0  0
   11.8190   13.9830   22.5240 C   0  0  0  0  0  0  0  0  0  0  0  0
   10.9250   13.8090   24.7280 O   0  0  0  0  0  0  0  0  0  0  0  0
  1  2  1  0
  3  2  1  0
  2  4  2  0
M  END
>  <id>  (2) 
A71EV2A-x0487_A_250_1_A71EV2A-x0526+A+147+1

$$$$
x0501S1
     RDKit          3D

  5  5  0  0  0  0  0  0  0  0999 V2000
    9.4860   12.8040   23.9810 C   0  0  0  0  0  0  0  0  0  0  0  0
    9.8880   12.6680   22.7630 N   0  0  0  0  0  0  0  0  0  0  0  0
   10.1680   13.7780   24.6440 O   0  0  0  0  0  0  0  0  0  0  0  0
   10.9310   13.5630   22.5910 N   0  0  0  0  0  0  0  0  0  0  0  0
   11.0740   14.2210   23.7360 C   0  0  0  0  0  0  0  0  0  0  0  0
  1  2  2  0
  3  1  1  0
  2  4  1  0
  5  3  1  0
  4  5  2  0
M  END
>  <id>  (3) 
A71EV2A-x0501_A_151_1_A71EV2A-x0526+A+147+1

$$$$
x0501S1
     RDKit          3D

  5  5  0  0  0  0  0  0  0  0999 V2000
    9.5620   12.9980   23.4780 C   0  0  0  0  0  0  0  0  0  0  0  0
    9.1880   14.0540   22.8330 N   0  0  0  0  0  0  0  0  0  0  0  0
   10.8920   12.7310   23.3170 O   0  0  0  0  0  0  0  0  0  0  0  0
   10.3150   14.5340   22.1920 N   0  0  0  0  0  0  0  0  0  0  0  0
   11.3300   13.7210   22.4990 C   0  0  0  0  0  0  0  0  0  0  0  0
  1  2  2  0
  3  1  1  0
  2  4  1  0
  5  3  1  0
  4  5  2  0
M  END
>  <id>  (4) 
A71EV2A-x0501_A_152_1_A71EV2A-x0526+A+147+1

$$$$
x0515S1
     RDKit          3D

  4  3  0  0  0  0  0  0  0  0999 V2000
    8.9680   10.7560   23.9240 C   0  0  0  0  0  0  0  0  0  0  0  0
    8.8160    9.4390   23.9230 O   0  0  0  0  0  0  0  0  0  0  0  0
    9.8070   11.3110   23.2720 O   0  0  0  0  0  0  0  0  0  0  0  0
    9.6630    8.7170   22.9970 C   0  0  0  0  0  0  0  0  0  0  0  0
  2  1  1  0
  1  3  2  0
  4  2  1  0
M  END
>  <id>  (5) 
A71EV2A-x0515_A_201_1_A71EV2A-x0526+A+147+1

$$$$
x0528S1
     RDKit          3D

  7  7  0  0  0  0  0  0  0  0999 V2000
   10.4130   14.1910   22.6530 C   0  0  0  0  0  0  0  0  0  0  0  0
   11.8710   13.9820   23.0990 C   0  0  0  0  0  0  0  0  0  0  0  0
   10.3900   15.6220   22.1300 C   0  0  0  0  0  0  0  0  0  0  0  0
   12.6160   15.2700   22.7760 C   0  0  0  0  0  0  0  0  0  0  0  0
   11.6600   16.0100   21.9760 N   0  0  0  0  0  0  0  0  0  0  0  0
    9.4060   16.2960   21.8750 O   0  0  0  0  0  0  0  0  0  0  0  0
   12.0800   17.0660   21.0670 C   0  0  0  0  0  0  0  0  0  0  0  0
  1  2  1  1
  1  3  1  0
  4  2  1  0
  5  3  1  0
  3  6  2  0
  5  4  1  0
  7  5  1  0
M  END
>  <id>  (6) 
A71EV2A-x0528_A_147_1_A71EV2A-x0526+A+147+1

$$$$
x0528S4
     RDKit          3D

  8  8  0  0  0  0  0  0  0  0999 V2000
    9.5150   14.0420   23.7680 O   0  0  0  0  0  0  0  0  0  0  0  0
   10.4130   14.1910   22.6530 C   0  0  2  0  0  0  0  0  0  0  0  0
   11.8710   13.9820   23.0990 C   0  0  0  0  0  0  0  0  0  0  0  0
   10.3900   15.6220   22.1300 C   0  0  0  0  0  0  0  0  0  0  0  0
   12.6160   15.2700   22.7760 C   0  0  0  0  0  0  0  0  0  0  0  0
   11.6600   16.0100   21.9760 N   0  0  0  0  0  0  0  0  0  0  0  0
    9.4060   16.2960   21.8750 O   0  0  0  0  0  0  0  0  0  0  0  0
   12.0800   17.0660   21.0670 C   0  0  0  0  0  0  0  0  0  0  0  0
  2  1  1  1
  3  2  1  0
  2  4  1  0
  5  3  1  0
  6  4  1  0
  4  7  2  0
  6  5  1  0
  8  6  1  0
M  END
>  <id>  (7) 
A71EV2A-x0528_A_147_1_A71EV2A-x0526+A+147+1

$$$$
x0554S1
     RDKit          3D

  4  3  0  0  0  0  0  0  0  0999 V2000
   10.0520   12.6760   22.9470 N   0  0  0  0  0  0  0  0  0  0  0  0
   10.6150   13.7870   23.4880 C   0  0  0  0  0  0  0  0  0  0  0  0
   11.4300   14.6220   22.5400 C   0  0  0  0  0  0  0  0  0  0  0  0
   10.5020   14.0750   24.6680 O   0  0  0  0  0  0  0  0  0  0  0  0
  1  2  1  0
  3  2  1  0
  2  4  2  0
M  END
>  <id>  (8) 
A71EV2A-x0554_A_201_1_A71EV2A-x0526+A+147+1

$$$$
x0566S1
     RDKit          3D

  4  3  0  0  0  0  0  0  0  0999 V2000
   10.7200   13.9580   23.6730 C   0  0  0  0  0  0  0  0  0  0  0  0
   10.5460   14.9620   22.8230 N   0  0  0  0  0  0  0  0  0  0  0  0
   11.7050   13.9590   24.4110 O   0  0  0  0  0  0  0  0  0  0  0  0
   11.6680   15.7370   22.3290 C   0  0  0  0  0  0  0  0  0  0  0  0
  2  1  1  0
  1  3  2  0
  4  2  1  0
M  END
>  <id>  (9) 
A71EV2A-x0566_A_147_1_A71EV2A-x0526+A+147+1

$$$$
x0310S1
     RDKit          3D

  5  4  0  0  0  0  0  0  0  0999 V2000
   10.6900   13.1000   23.4770 C   0  0  0  0  0  0  0  0  0  0  0  0
   10.4880   13.4620   24.6210 O   0  0  0  0  0  0  0  0  0  0  0  0
   11.6990   13.8010   22.5880 C   0  0  0  0  0  0  0  0  0  0  0  0
   11.8540   15.1980   22.9830 C   0  0  0  0  0  0  0  0  0  0  0  0
   11.8990   16.2910   23.2910 N   0  0  0  0  0  0  0  0  0  0  0  0
  2  1  2  0
  1  3  1  0
  3  4  1  0
  4  5  3  0
M  END
>  <id>  (10) 
A71EV2A-x0310_A_147_1_A71EV2A-x0526+A+147+1

$$$$
x0310S3
     RDKit          3D

  6  5  0  0  0  0  0  0  0  0999 V2000
   10.0030   12.0810   22.9080 N   0  0  0  0  0  0  0  0  0  0  0  0
   10.6900   13.1000   23.4770 C   0  0  0  0  0  0  0  0  0  0  0  0
   10.4880   13.4620   24.6210 O   0  0  0  0  0  0  0  0  0  0  0  0
   11.6990   13.8010   22.5880 C   0  0  0  0  0  0  0  0  0  0  0  0
   11.8540   15.1980   22.9830 C   0  0  0  0  0  0  0  0  0  0  0  0
   11.8990   16.2910   23.2910 N   0  0  0  0  0  0  0  0  0  0  0  0
  1  2  1  0
  3  2  2  0
  2  4  1  0
  4  5  1  0
  5  6  3  0
M  END
>  <id>  (11) 
A71EV2A-x0310_A_147_1_A71EV2A-x0526+A+147+1

$$$$
x0375S1
     RDKit          3D

  4  3  0  0  0  0  0  0  0  0999 V2000
    9.8090   13.3430   23.3590 N   0  0  0  0  0  0  0  0  0  0  0  0
   11.0600   13.5750   23.7890 C   0  0  0  0  0  0  0  0  0  0  0  0
   11.5480   13.0530   25.3180 S   0  0  0  0  0  0  0  0  0  0  0  0
   11.8710   14.2060   22.9680 N   0  0  0  0  0  0  0  0  0  0  0  0
  1  2  1  0
  2  3  2  0
  4  2  1  0
M  END
>  <id>  (12) 
A71EV2A-x0375_A_301_1_A71EV2A-x0526+A+147+1

$$$$
x0719S2
     RDKit          3D

  7  6  0  0  0  0  0  0  0  0999 V2000
    7.5470   14.1430   25.2600 C   0  0  0  0  0  0  0  0  0  0  0  0
    7.0580   14.2760   26.7000 C   0  0  0  0  0  0  0  0  0  0  0  0
    6.4630   14.6940   24.3170 C   0  0  0  0  0  0  0  0  0  0  0  0
    6.8320   14.6330   22.5840 S   0  0  0  0  0  0  0  0  0  0  0  0
    7.9310   15.5000   22.3060 O   0  0  0  0  0  0  0  0  0  0  0  0
    6.8840   13.2580   22.2060 O   0  0  0  0  0  0  0  0  0  0  0  0
    5.4930   15.2890   21.9980 N   0  0  0  0  0  0  0  0  0  0  0  0
  1  2  1  1
  1  3  1  0
  3  4  1  0
  5  4  2  0
  4  6  2  0
  7  4  1  0
M  END
>  <id>  (13) 
A71EV2A-x0719_A_301_1_A71EV2A-x0526+A+147+1

$$$$
x0875
     RDKit          3D

 14 14  0  0  0  0  0  0  0  0999 V2000
   15.3870   11.8520   24.2920 O   0  0  0  0  0  0  0  0  0  0  0  0
   14.3880   11.2760   24.5760 C   0  0  0  0  0  0  0  0  0  0  0  0
   14.3350   10.1740   25.2740 O   0  0  0  0  0  0  0  0  0  0  0  0
   13.0790   11.8920   24.1940 C   0  0  0  0  0  0  0  0  0  0  0  0
   12.8940   13.1220   25.0630 C   0  0  0  0  0  0  0  0  0  0  0  0
   11.5600   13.1010   25.7530 C   0  0  0  0  0  0  0  0  0  0  0  0
   11.8740   10.9720   24.3010 C   0  0  0  0  0  0  0  0  0  0  0  0
   10.6750   11.7990   23.8680 C   0  0  0  0  0  0  0  0  0  0  0  0
   10.5420   13.0140   24.6970 N   0  0  0  0  0  0  0  0  0  0  0  0
    9.1360   13.7680   24.9940 S   0  0  0  0  0  0  0  0  0  0  0  0
    9.0170   14.8110   24.0220 O   0  0  0  0  0  0  0  0  0  0  0  0
    9.1440   14.1180   26.3780 O   0  0  0  0  0  0  0  0  0  0  0  0
    7.8370   12.5800   24.6710 C   0  0  0  0  0  0  0  0  0  0  0  0
    7.9120   11.3540   25.5120 C   0  0  0  0  0  0  0  0  0  0  0  0
 14 13  1  0
 13 10  1  0
 11 10  2  0
 12 10  2  0
 10  9  1  0
  9  6  1  0
  6  5  1  0
  5  4  1  0
  7  4  1  0
  8  7  1  0
  9  8  1  0
  4  2  1  0
  2  1  2  0
  3  2  1  0
M  END
>  <id>  (14) 
A71EV2A-x0875_A_201_1_A71EV2A-x0526+A+147+1

$$$$
x0875S2
     RDKit          3D

  9  9  0  0  0  0  0  0  0  0999 V2000
   10.5420   13.0140   24.6970 N   0  0  0  0  0  0  0  0  0  0  0  0
   11.5600   13.1010   25.7530 C   0  0  0  0  0  0  0  0  0  0  0  0
   10.6750   11.7990   23.8680 C   0  0  0  0  0  0  0  0  0  0  0  0
   12.8940   13.1220   25.0630 C   0  0  0  0  0  0  0  0  0  0  0  0
   11.8740   10.9720   24.3010 C   0  0  0  0  0  0  0  0  0  0  0  0
   13.0790   11.8920   24.1940 C   0  0  0  0  0  0  0  0  0  0  0  0
   14.3880   11.2760   24.5760 C   0  0  0  0  0  0  0  0  0  0  0  0
   15.3870   11.8520   24.2920 O   0  0  0  0  0  0  0  0  0  0  0  0
   14.3350   10.1740   25.2740 O   0  0  0  0  0  0  0  0  0  0  0  0
  1  2  1  0
  1  3  1  0
  2  4  1  0
  3  5  1  0
  4  6  1  0
  5  6  1  0
  6  7  1  0
  7  8  2  0
  9  7  1  0
M  END
>  <id>  (15) 
A71EV2A-x0875_A_201_1_A71EV2A-x0526+A+147+1

$$$$
x0884S1
     RDKit          3D

  4  3  0  0  0  0  0  0  0  0999 V2000
   10.2850   12.8540   22.8560 N   0  0  0  0  0  0  0  0  0  0  0  0
   11.0520   13.9240   23.2460 C   0  0  0  0  0  0  0  0  0  0  0  0
   11.8290   14.4980   22.4620 O   0  0  0  0  0  0  0  0  0  0  0  0
   10.9580   14.2620   24.5260 N   0  0  0  0  0  0  0  0  0  0  0  0
  1  2  1  0
  2  3  2  0
  4  2  1  0
M  END
>  <id>  (16) 
A71EV2A-x0884_A_147_1_A71EV2A-x0526+A+147+1

$$$$
x0922S1
     RDKit          3D

  6  5  0  0  0  0  0  0  0  0999 V2000
   11.3140   13.1860   22.4570 C   0  0  0  0  0  0  0  0  0  0  0  0
   10.2930   14.1070   21.8090 C   0  0  0  0  0  0  0  0  0  0  0  0
   10.7210   15.2670   21.2830 N   0  0  0  0  0  0  0  0  0  0  0  0
    9.1160   13.7820   21.7680 O   0  0  0  0  0  0  0  0  0  0  0  0
   12.1150   15.6970   21.2930 C   0  0  0  0  0  0  0  0  0  0  0  0
    9.7930   16.1750   20.6150 C   0  0  0  0  0  0  0  0  0  0  0  0
  1  2  1  0
  3  2  1  0
  2  4  2  0
  5  3  1  0
  6  3  1  0
M  END
>  <id>  (17) 
A71EV2A-x0922_A_147_1_A71EV2A-x0540+A+147+1

$$$$
x0922S3
     RDKit          3D

  7  6  0  0  0  0  0  0  0  0999 V2000
   10.7310   11.9170   22.7550 O   0  0  0  0  0  0  0  0  0  0  0  0
   11.3140   13.1860   22.4570 C   0  0  0  0  0  0  0  0  0  0  0  0
   10.2930   14.1070   21.8090 C   0  0  0  0  0  0  0  0  0  0  0  0
   10.7210   15.2670   21.2830 N   0  0  0  0  0  0  0  0  0  0  0  0
    9.1160   13.7820   21.7680 O   0  0  0  0  0  0  0  0  0  0  0  0
   12.1150   15.6970   21.2930 C   0  0  0  0  0  0  0  0  0  0  0  0
    9.7930   16.1750   20.6150 C   0  0  0  0  0  0  0  0  0  0  0  0
  1  2  1  0
  2  3  1  0
  4  3  1  0
  3  5  2  0
  6  4  1  0
  7  4  1  0
M  END
>  <id>  (18) 
A71EV2A-x0922_A_147_1_A71EV2A-x0540+A+147+1

$$$$
x0926
     RDKit          3D

 14 14  0  0  0  0  0  0  0  0999 V2000
    9.5830   16.4380   19.6530 O   0  0  0  0  0  0  0  0  0  0  0  0
    9.9710   15.2800   19.8130 C   0  0  0  0  0  0  0  0  0  0  0  0
   10.3380   14.5040   18.8070 N   0  0  0  0  0  0  0  0  0  0  0  0
   10.0110   14.6480   21.1930 C   0  0  1  0  0  0  0  0  0  0  0  0
   11.1010   15.2730   22.0740 C   0  0  0  0  0  0  0  0  0  0  0  0
   11.1170   14.6050   23.4430 C   0  0  0  0  0  0  0  0  0  0  0  0
    9.7600   14.7300   24.0750 C   0  0  0  0  0  0  0  0  0  0  0  0
    8.6660   14.7820   21.9040 C   0  0  0  0  0  0  0  0  0  0  0  0
    8.7520   14.1180   23.2050 N   0  0  0  0  0  0  0  0  0  0  0  0
    8.0280   13.0380   23.5580 C   0  0  0  0  0  0  0  0  0  0  0  0
    7.0660   12.6630   22.9050 O   0  0  0  0  0  0  0  0  0  0  0  0
    8.5030   12.2940   24.7970 C   0  0  0  0  0  0  0  0  0  0  0  0
    7.7420   11.1400   25.1340 O   0  0  0  0  0  0  0  0  0  0  0  0
    6.4580   11.4460   25.6750 C   0  0  0  0  0  0  0  0  0  0  0  0
 14 13  1  0
 13 12  1  0
 12 10  1  0
 11 10  2  0
 10  9  1  0
  9  7  1  0
  7  6  1  0
  6  5  1  0
  5  4  1  0
  8  4  1  0
  9  8  1  0
  4  2  1  6
  2  1  2  0
  3  2  1  0
M  END
>  <id>  (19) 
A71EV2A-x0926_A_250_1_A71EV2A-x0526+A+147+1

$$$$
x0926S2
     RDKit          3D

  9  9  0  0  0  0  0  0  0  0999 V2000
    8.7520   14.1180   23.2050 N   0  0  0  0  0  0  0  0  0  0  0  0
    9.7600   14.7300   24.0750 C   0  0  0  0  0  0  0  0  0  0  0  0
    8.6660   14.7820   21.9040 C   0  0  0  0  0  0  0  0  0  0  0  0
   11.1170   14.6050   23.4430 C   0  0  0  0  0  0  0  0  0  0  0  0
   10.0110   14.6480   21.1930 C   0  0  2  0  0  0  0  0  0  0  0  0
   11.1010   15.2730   22.0740 C   0  0  0  0  0  0  0  0  0  0  0  0
    9.9710   15.2800   19.8130 C   0  0  0  0  0  0  0  0  0  0  0  0
    9.5830   16.4380   19.6530 O   0  0  0  0  0  0  0  0  0  0  0  0
   10.3380   14.5040   18.8070 N   0  0  0  0  0  0  0  0  0  0  0  0
  1  2  1  0
  1  3  1  0
  2  4  1  0
  3  5  1  0
  4  6  1  0
  6  5  1  0
  5  7  1  6
  7  8  2  0
  9  7  1  0
M  END
>  <id>  (20) 
A71EV2A-x0926_A_250_1_A71EV2A-x0526+A+147+1

$$$$
x1019S1
     RDKit          3D

  4  3  0  0  0  0  0  0  0  0999 V2000
   11.4130   13.1030   24.1020 C   0  0  0  0  0  0  0  0  0  0  0  0
   12.5630   12.6570   24.9650 C   0  0  0  0  0  0  0  0  0  0  0  0
   13.5490   12.1290   24.2990 O   0  0  0  0  0  0  0  0  0  0  0  0
   12.5620   12.7810   26.1710 O   0  0  0  0  0  0  0  0  0  0  0  0
  1  2  1  0
  3  2  1  0
  2  4  2  0
M  END
>  <id>  (21) 
A71EV2A-x1019_A_147_1_A71EV2A-x0526+A+147+1

$$$$
x1140S1
     RDKit          3D

  5  5  0  0  0  0  0  0  0  0999 V2000
   14.0580   12.9540   24.7990 N   0  0  0  0  0  0  0  0  0  0  0  0
   15.1590   12.0370   24.4540 C   0  0  0  0  0  0  0  0  0  0  0  0
   13.8420   12.7530   26.2400 C   0  0  0  0  0  0  0  0  0  0  0  0
   15.6170   11.4390   25.7930 C   0  0  0  0  0  0  0  0  0  0  0  0
   15.1950   12.3440   26.7550 C   0  0  0  0  0  0  0  0  0  0  0  0
  1  2  1  0
  3  1  1  0
  2  4  1  0
  5  3  1  0
  4  5  1  0
M  END
>  <id>  (22) 
A71EV2A-x1140_A_147_1_A71EV2A-x0526+A+147+1

$$$$
x1140S4
     RDKit          3D

  8  8  0  0  0  0  0  0  0  0999 V2000
   12.1340   11.4300   24.2490 C   0  0  0  0  0  0  0  0  0  0  0  0
   12.7780   10.4030   24.3770 O   0  0  0  0  0  0  0  0  0  0  0  0
   12.8470   12.7500   23.9900 C   0  0  0  0  0  0  0  0  0  0  0  0
   14.0580   12.9540   24.7990 N   0  0  0  0  0  0  0  0  0  0  0  0
   15.1590   12.0370   24.4540 C   0  0  0  0  0  0  0  0  0  0  0  0
   13.8420   12.7530   26.2400 C   0  0  0  0  0  0  0  0  0  0  0  0
   15.6170   11.4390   25.7930 C   0  0  0  0  0  0  0  0  0  0  0  0
   15.1950   12.3440   26.7550 C   0  0  0  0  0  0  0  0  0  0  0  0
  1  2  2  0
  3  1  1  0
  4  3  1  0
  4  5  1  0
  6  4  1  0
  5  7  1  0
  8  6  1  0
  7  8  1  0
M  END
>  <id>  (23) 
A71EV2A-x1140_A_147_1_A71EV2A-x0526+A+147+1

$$$$
x1346S1
     RDKit          3D

  4  3  0  0  0  0  0  0  0  0999 V2000
    7.2590   14.6010   21.9600 C   0  0  0  0  0  0  0  0  0  0  0  0
    7.0630   13.4040   21.8150 O   0  0  0  0  0  0  0  0  0  0  0  0
    8.6310   15.1490   21.6240 C   0  0  0  0  0  0  0  0  0  0  0  0
    8.6890   16.8200   21.0270 Cl  0  0  0  0  0  0  0  0  0  0  0  0
  2  1  2  0
  1  3  1  0
  3  4  1  0
M  END
>  <id>  (24) 
A71EV2A-x1346_A_250_1_A71EV2A-x0526+A+147+1

$$$$
x1346S4
     RDKit          3D

 18 19  0  0  0  0  0  0  0  0999 V2000
    6.0780   13.9250   25.0210 N   0  0  0  0  0  0  0  0  0  0  0  0
    5.1590   14.9580   24.5460 C   0  0  1  0  0  0  0  0  0  0  0  0
    5.0750   14.9650   23.0120 C   0  0  0  0  0  0  0  0  0  0  0  0
    3.8000   14.9120   25.2190 C   0  0  0  0  0  0  0  0  0  0  0  0
    6.3290   15.4290   22.4320 N   0  0  0  0  0  0  0  0  0  0  0  0
    2.9490   16.0090   25.1290 C   0  0  0  0  0  0  0  0  0  0  0  0
    3.3890   13.8070   25.9190 C   0  0  0  0  0  0  0  0  0  0  0  0
    7.2590   14.6010   21.9600 C   0  0  0  0  0  0  0  0  0  0  0  0
    1.7090   15.9960   25.6990 C   0  0  0  0  0  0  0  0  0  0  0  0
    2.1210   13.7570   26.5460 C   0  0  0  0  0  0  0  0  0  0  0  0
    7.0630   13.4040   21.8150 O   0  0  0  0  0  0  0  0  0  0  0  0
    8.6310   15.1490   21.6240 C   0  0  0  0  0  0  0  0  0  0  0  0
    1.2570   14.8730   26.4270 C   0  0  0  0  0  0  0  0  0  0  0  0
    1.6920   12.6450   27.3150 C   0  0  0  0  0  0  0  0  0  0  0  0
    8.6890   16.8200   21.0270 Cl  0  0  0  0  0  0  0  0  0  0  0  0
   -0.0070   14.8300   27.0680 C   0  0  0  0  0  0  0  0  0  0  0  0
    0.4700   12.6500   27.9260 C   0  0  0  0  0  0  0  0  0  0  0  0
   -0.3790   13.7400   27.8020 C   0  0  0  0  0  0  0  0  0  0  0  0
  2  1  1  6
  2  3  1  0
  4  2  1  0
  3  5  1  0
  4  6  2  0
  7  4  1  0
  5  8  1  0
  6  9  1  0
 10  7  2  0
 11  8  2  0
  8 12  1  0
  9 13  2  0
 14 10  1  0
 13 10  1  0
 12 15  1  0
 13 16  1  0
 17 14  2  0
 16 18  2  0
 18 17  1  0
M  END
>  <id>  (25) 
A71EV2A-x1346_A_250_1_A71EV2A-x0526+A+147+1

$$$$
x1346S6
     RDKit          3D

  5  4  0  0  0  0  0  0  0  0999 V2000
    6.3290   15.4290   22.4320 N   0  0  0  0  0  0  0  0  0  0  0  0
    7.2590   14.6010   21.9600 C   0  0  0  0  0  0  0  0  0  0  0  0
    7.0630   13.4040   21.8150 O   0  0  0  0  0  0  0  0  0  0  0  0
    8.6310   15.1490   21.6240 C   0  0  0  0  0  0  0  0  0  0  0  0
    8.6890   16.8200   21.0270 Cl  0  0  0  0  0  0  0  0  0  0  0  0
  1  2  1  0
  3  2  2  0
  2  4  1  0
  4  5  1  0
M  END
>  <id>  (26) 
A71EV2A-x1346_A_250_1_A71EV2A-x0526+A+147+1

$$$$
x1346S9
     RDKit          3D

 17 18  0  0  0  0  0  0  0  0999 V2000
    5.1590   14.9580   24.5460 C   0  0  0  0  0  0  0  0  0  0  0  0
    5.0750   14.9650   23.0120 C   0  0  0  0  0  0  0  0  0  0  0  0
    3.8000   14.9120   25.2190 C   0  0  0  0  0  0  0  0  0  0  0  0
    6.3290   15.4290   22.4320 N   0  0  0  0  0  0  0  0  0  0  0  0
    2.9490   16.0090   25.1290 C   0  0  0  0  0  0  0  0  0  0  0  0
    3.3890   13.8070   25.9190 C   0  0  0  0  0  0  0  0  0  0  0  0
    7.2590   14.6010   21.9600 C   0  0  0  0  0  0  0  0  0  0  0  0
    1.7090   15.9960   25.6990 C   0  0  0  0  0  0  0  0  0  0  0  0
    2.1210   13.7570   26.5460 C   0  0  0  0  0  0  0  0  0  0  0  0
    7.0630   13.4040   21.8150 O   0  0  0  0  0  0  0  0  0  0  0  0
    8.6310   15.1490   21.6240 C   0  0  0  0  0  0  0  0  0  0  0  0
    1.2570   14.8730   26.4270 C   0  0  0  0  0  0  0  0  0  0  0  0
    1.6920   12.6450   27.3150 C   0  0  0  0  0  0  0  0  0  0  0  0
    8.6890   16.8200   21.0270 Cl  0  0  0  0  0  0  0  0  0  0  0  0
   -0.0070   14.8300   27.0680 C   0  0  0  0  0  0  0  0  0  0  0  0
    0.4700   12.6500   27.9260 C   0  0  0  0  0  0  0  0  0  0  0  0
   -0.3790   13.7400   27.8020 C   0  0  0  0  0  0  0  0  0  0  0  0
  1  2  1  6
  3  1  1  0
  2  4  1  0
  3  5  2  0
  6  3  1  0
  4  7  1  0
  5  8  1  0
  9  6  2  0
 10  7  2  0
  7 11  1  0
  8 12  2  0
 13  9  1  0
 12  9  1  0
 11 14  1  0
 12 15  1  0
 16 13  2  0
 15 17  2  0
 17 16  1  0
M  END
>  <id>  (27) 
A71EV2A-x1346_A_250_1_A71EV2A-x0526+A+147+1

$$$$
x1346S16
     RDKit          3D

 21 22  0  0  0  0  0  0  0  0999 V2000
    7.5850   12.8830   26.6280 C   0  0  0  0  0  0  0  0  0  0  0  0
    6.8810   14.1040   26.0760 C   0  0  0  0  0  0  0  0  0  0  0  0
    7.0340   15.2000   26.6090 O   0  0  0  0  0  0  0  0  0  0  0  0
    6.0780   13.9250   25.0210 N   0  0  0  0  0  0  0  0  0  0  0  0
    5.1590   14.9580   24.5460 C   0  0  1  0  0  0  0  0  0  0  0  0
    5.0750   14.9650   23.0120 C   0  0  0  0  0  0  0  0  0  0  0  0
    3.8000   14.9120   25.2190 C   0  0  0  0  0  0  0  0  0  0  0  0
    6.3290   15.4290   22.4320 N   0  0  0  0  0  0  0  0  0  0  0  0
    2.9490   16.0090   25.1290 C   0  0  0  0  0  0  0  0  0  0  0  0
    3.3890   13.8070   25.9190 C   0  0  0  0  0  0  0  0  0  0  0  0
    7.2590   14.6010   21.9600 C   0  0  0  0  0  0  0  0  0  0  0  0
    1.7090   15.9960   25.6990 C   0  0  0  0  0  0  0  0  0  0  0  0
    2.1210   13.7570   26.5460 C   0  0  0  0  0  0  0  0  0  0  0  0
    7.0630   13.4040   21.8150 O   0  0  0  0  0  0  0  0  0  0  0  0
    8.6310   15.1490   21.6240 C   0  0  0  0  0  0  0  0  0  0  0  0
    1.2570   14.8730   26.4270 C   0  0  0  0  0  0  0  0  0  0  0  0
    1.6920   12.6450   27.3150 C   0  0  0  0  0  0  0  0  0  0  0  0
    8.6890   16.8200   21.0270 Cl  0  0  0  0  0  0  0  0  0  0  0  0
   -0.0070   14.8300   27.0680 C   0  0  0  0  0  0  0  0  0  0  0  0
    0.4700   12.6500   27.9260 C   0  0  0  0  0  0  0  0  0  0  0  0
   -0.3790   13.7400   27.8020 C   0  0  0  0  0  0  0  0  0  0  0  0
  1  2  1  0
  3  2  2  0
  2  4  1  0
  4  5  1  0
  5  6  1  6
  7  5  1  0
  6  8  1  0
  7  9  2  0
 10  7  1  0
  8 11  1  0
  9 12  1  0
 13 10  2  0
 14 11  2  0
 11 15  1  0
 12 16  2  0
 17 13  1  0
 16 13  1  0
 15 18  1  0
 16 19  1  0
 20 17  2  0
 19 21  2  0
 21 20  1  0
M  END
>  <id>  (28) 
A71EV2A-x1346_A_250_1_A71EV2A-x0526+A+147+1

$$$$
x1346S19
     RDKit          3D

  8  7  0  0  0  0  0  0  0  0999 V2000
    5.1590   14.9580   24.5460 C   0  0  0  0  0  0  0  0  0  0  0  0
    6.0780   13.9250   25.0210 N   0  0  0  0  0  0  0  0  0  0  0  0
    5.0750   14.9650   23.0120 C   0  0  0  0  0  0  0  0  0  0  0  0
    6.3290   15.4290   22.4320 N   0  0  0  0  0  0  0  0  0  0  0  0
    7.2590   14.6010   21.9600 C   0  0  0  0  0  0  0  0  0  0  0  0
    7.0630   13.4040   21.8150 O   0  0  0  0  0  0  0  0  0  0  0  0
    8.6310   15.1490   21.6240 C   0  0  0  0  0  0  0  0  0  0  0  0
    8.6890   16.8200   21.0270 Cl  0  0  0  0  0  0  0  0  0  0  0  0
  1  2  1  6
  1  3  1  0
  3  4  1  0
  4  5  1  0
  6  5  2  0
  5  7  1  0
  7  8  1  0
M  END
>  <id>  (29) 
A71EV2A-x1346_A_250_1_A71EV2A-x0526+A+147+1

$$$$
x1346S24
     RDKit          3D

  7  6  0  0  0  0  0  0  0  0999 V2000
    5.1590   14.9580   24.5460 C   0  0  0  0  0  0  0  0  0  0  0  0
    5.0750   14.9650   23.0120 C   0  0  0  0  0  0  0  0  0  0  0  0
    6.3290   15.4290   22.4320 N   0  0  0  0  0  0  0  0  0  0  0  0
    7.2590   14.6010   21.9600 C   0  0  0  0  0  0  0  0  0  0  0  0
    7.0630   13.4040   21.8150 O   0  0  0  0  0  0  0  0  0  0  0  0
    8.6310   15.1490   21.6240 C   0  0  0  0  0  0  0  0  0  0  0  0
    8.6890   16.8200   21.0270 Cl  0  0  0  0  0  0  0  0  0  0  0  0
  1  2  1  6
  2  3  1  0
  3  4  1  0
  5  4  2  0
  4  6  1  0
  6  7  1  0
M  END
>  <id>  (30) 
A71EV2A-x1346_A_250_1_A71EV2A-x0526+A+147+1

$$$$
x1346S25
     RDKit          3D

 11 10  0  0  0  0  0  0  0  0999 V2000
    7.5850   12.8830   26.6280 C   0  0  0  0  0  0  0  0  0  0  0  0
    6.8810   14.1040   26.0760 C   0  0  0  0  0  0  0  0  0  0  0  0
    6.0780   13.9250   25.0210 N   0  0  0  0  0  0  0  0  0  0  0  0
    7.0340   15.2000   26.6090 O   0  0  0  0  0  0  0  0  0  0  0  0
    5.1590   14.9580   24.5460 C   0  0  0  0  0  0  0  0  0  0  0  0
    5.0750   14.9650   23.0120 C   0  0  0  0  0  0  0  0  0  0  0  0
    6.3290   15.4290   22.4320 N   0  0  0  0  0  0  0  0  0  0  0  0
    7.2590   14.6010   21.9600 C   0  0  0  0  0  0  0  0  0  0  0  0
    7.0630   13.4040   21.8150 O   0  0  0  0  0  0  0  0  0  0  0  0
    8.6310   15.1490   21.6240 C   0  0  0  0  0  0  0  0  0  0  0  0
    8.6890   16.8200   21.0270 Cl  0  0  0  0  0  0  0  0  0  0  0  0
  1  2  1  0
  2  3  1  0
  4  2  2  0
  3  5  1  0
  5  6  1  1
  6  7  1  0
  7  8  1  0
  9  8  2  0
  8 10  1  0
 10 11  1  0
M  END
>  <id>  (31) 
A71EV2A-x1346_A_250_1_A71EV2A-x0526+A+147+1

$$$$
x1346S28
     RDKit          3D

 17 17  0  0  0  0  0  0  0  0999 V2000
    8.6890   16.8200   21.0270 Cl  0  0  0  0  0  0  0  0  0  0  0  0
    8.6310   15.1490   21.6240 C   0  0  0  0  0  0  0  0  0  0  0  0
    7.2590   14.6010   21.9600 C   0  0  0  0  0  0  0  0  0  0  0  0
    7.0630   13.4040   21.8150 O   0  0  0  0  0  0  0  0  0  0  0  0
    6.3290   15.4290   22.4320 N   0  0  0  0  0  0  0  0  0  0  0  0
    5.0750   14.9650   23.0120 C   0  0  0  0  0  0  0  0  0  0  0  0
    5.1590   14.9580   24.5460 C   0  0  1  0  0  0  0  0  0  0  0  0
    3.8000   14.9120   25.2190 C   0  0  0  0  0  0  0  0  0  0  0  0
    3.3890   13.8070   25.9190 C   0  0  0  0  0  0  0  0  0  0  0  0
    2.1210   13.7570   26.5460 C   0  0  0  0  0  0  0  0  0  0  0  0
    1.2570   14.8730   26.4270 C   0  0  0  0  0  0  0  0  0  0  0  0
    1.7090   15.9960   25.6990 C   0  0  0  0  0  0  0  0  0  0  0  0
    2.9490   16.0090   25.1290 C   0  0  0  0  0  0  0  0  0  0  0  0
    6.0780   13.9250   25.0210 N   0  0  0  0  0  0  0  0  0  0  0  0
    6.8810   14.1040   26.0760 C   0  0  0  0  0  0  0  0  0  0  0  0
    7.0340   15.2000   26.6090 O   0  0  0  0  0  0  0  0  0  0  0  0
    7.5850   12.8830   26.6280 C   0  0  0  0  0  0  0  0  0  0  0  0
 17 15  1  0
 16 15  2  0
 15 14  1  0
 14  7  1  0
  7  6  1  6
  6  5  1  0
  5  3  1  0
  4  3  2  0
  3  2  1  0
  2  1  1  0
  8  7  1  0
  8 13  2  0
 13 12  1  0
 12 11  2  0
 11 10  1  0
 10  9  2  0
  9  8  1  0
M  END
>  <id>  (32) 
A71EV2A-x1346_A_250_1_A71EV2A-x0526+A+147+1

$$$$
x1431S1
     RDKit          3D

  5  4  0  0  0  0  0  0  0  0999 V2000
    8.8530   13.4260   23.4720 C   0  0  0  0  0  0  0  0  0  0  0  0
    7.7070   13.8200   23.2710 O   0  0  0  0  0  0  0  0  0  0  0  0
   10.0710   14.1980   23.0020 C   0  0  0  0  0  0  0  0  0  0  0  0
   11.1630   14.0860   23.9650 C   0  0  0  0  0  0  0  0  0  0  0  0
   12.0460   14.0280   24.6820 N   0  0  0  0  0  0  0  0  0  0  0  0
  2  1  2  0
  3  1  1  0
  4  3  1  0
  5  4  3  0
M  END
>  <id>  (33) 
A71EV2A-x1431_B_201_1_A71EV2A-x0526+A+147+1

$$$$
x1431S3
     RDKit          3D

  6  5  0  0  0  0  0  0  0  0999 V2000
    9.1460   12.2580   24.0960 N   0  0  0  0  0  0  0  0  0  0  0  0
    8.8530   13.4260   23.4720 C   0  0  0  0  0  0  0  0  0  0  0  0
    7.7070   13.8200   23.2710 O   0  0  0  0  0  0  0  0  0  0  0  0
   10.0710   14.1980   23.0020 C   0  0  0  0  0  0  0  0  0  0  0  0
   11.1630   14.0860   23.9650 C   0  0  0  0  0  0  0  0  0  0  0  0
   12.0460   14.0280   24.6820 N   0  0  0  0  0  0  0  0  0  0  0  0
  2  1  1  0
  3  2  2  0
  4  2  1  0
  5  4  1  0
  6  5  3  0
M  END
>  <id>  (34) 
A71EV2A-x1431_B_201_1_A71EV2A-x0526+A+147+1

$$$$
x1778S3
     RDKit          3D

  8  8  0  0  0  0  0  0  0  0999 V2000
    6.4380   10.3670   25.9490 O   0  0  0  0  0  0  0  0  0  0  0  0
    6.6130   11.5730   26.0760 C   0  0  0  0  0  0  0  0  0  0  0  0
    5.5700   12.4350   26.7260 C   0  0  0  0  0  0  0  0  0  0  0  0
    7.7410   12.2090   25.6050 N   0  0  0  0  0  0  0  0  0  0  0  0
    8.7820   11.6260   24.8300 C   0  0  0  0  0  0  0  0  0  0  0  0
    7.9590   13.6640   25.6750 C   0  0  0  0  0  0  0  0  0  0  0  0
    9.3810   13.8950   25.1720 C   0  0  0  0  0  0  0  0  0  0  0  0
    9.7410   12.5880   24.5150 C   0  0  0  0  0  0  0  0  0  0  0  0
  5  8  2  0
  8  7  1  0
  7  6  1  0
  6  4  1  0
  5  4  1  0
  4  2  1  0
  3  2  1  0
  2  1  2  0
M  END
>  <id>  (35) 
A71EV2A-x1778_A_201_1_A71EV2A-x0526+A+147+1

$$$$
