ver_1.2
     RDKit          3D

 14 15  0  0  0  0  0  0  0  0999 V2000
    2.8742    1.7939   -0.0225 C   0  0  0  0  0  0  0  0  0  0  0  0
    2.1431    0.5249   -0.0060 N   0  0  0  0  0  0  0  0  0  0  0  0
    2.6718   -0.7109    0.0108 C   0  0  0  0  0  0  0  0  0  0  0  0
    1.6896   -1.6292    0.0225 N   0  0  0  0  0  0  0  0  0  0  0  0
    0.4985   -1.0050    0.0136 C   0  0  0  0  0  0  0  0  0  0  0  0
    0.8120    0.3390   -0.0041 C   0  0  0  0  0  0  0  0  0  0  0  0
   -0.2141    1.2838   -0.0172 C   0  0  0  0  0  0  0  0  0  0  0  0
    0.0677    2.5110   -0.0334 O   0  0  0  0  0  0  0  0  0  0  0  0
   -1.4703    0.8087   -0.0115 N   0  0  0  0  0  0  0  0  0  0  0  0
   -1.7399   -0.5063    0.0059 C   0  0  0  0  0  0  0  0  0  0  0  0
   -2.9485   -0.8949    0.0105 O   0  0  0  0  0  0  0  0  0  0  0  0
   -0.7764   -1.4420    0.0188 N   0  0  0  0  0  0  0  0  0  0  0  0
   -1.0645   -2.8724    0.0378 C   0  0  0  0  0  0  0  0  0  0  0  0
   -2.5432    1.7995   -0.0252 C   0  0  0  0  0  0  0  0  0  0  0  0
  1  2  1  0
  2  3  1  0
  3  4  2  0
  4  5  1  0
  5  6  2  0
  6  7  1  0
  7  8  2  0
  7  9  1  0
  9 10  1  0
 10 11  2  0
 10 12  1  0
 12 13  1  0
  9 14  1  0
  6  2  1  0
 12  5  1  0
M  END
>  <ref_url>  (1) 
https://github.com/matteoferla/EV-A71-2A-elaborations

>  <submitter_name>  (1) 
Matteo Ferla

>  <submitter_email>  (1) 
matteo.ferla@stats.ox.ac.uk

>  <submitter_institution>  (1) 
University of Oxford

>  <generation_date>  (1) 
2024-02-23

>  <method>  (1) 
A71-Fragmenstein-iter2-hybrid

>  <rationale>  (1) 
rationale

>  <intxn_cluster>  (1) 
intxn_cluster

>  <intxn_cluster_rank>  (1) 
intxn_cluster_rank

>  <N_interactions>  (1) 
N_interactions

>  <∆∆G>  (1) 
∆∆G

>  <$/mg>  (1) 
$/mg

>  <comRMSD>  (1) 
comRMSD

>  <N_rotatable_bonds>  (1) 
N_rotatable_bonds

>  <N_analogues_07>  (1) 
N_analogues_07

>  <deep_P1_sidechain>  (1) 
deep_P1_sidechain

>  <farthest_distance_to_substrate>  (1) 
farthest_distance_to_substrate

>  <hbond:SER:7>  (1) 
hbond:SER:7

>  <halogenbond:SER:7>  (1) 
halogenbond:SER:7

>  <hbond:GLY:8>  (1) 
hbond:GLY:8

>  <hydroph_interaction:ASN:19>  (1) 
hydroph_interaction:ASN:19

>  <hbond:ASN:19>  (1) 
hbond:ASN:19

>  <halogenbond:ASN:19>  (1) 
halogenbond:ASN:19

>  <hbond:ARG:20>  (1) 
hbond:ARG:20

>  <hydroph_interaction:ARG:20>  (1) 
hydroph_interaction:ARG:20

>  <saltbridge:ARG:20>  (1) 
saltbridge:ARG:20

>  <halogenbond:ARG:20>  (1) 
halogenbond:ARG:20

>  <pication:ARG:20>  (1) 
pication:ARG:20

>  <hbond:HIS:21>  (1) 
hbond:HIS:21

>  <hydroph_interaction:HIS:21>  (1) 
hydroph_interaction:HIS:21

>  <saltbridge:HIS:21>  (1) 
saltbridge:HIS:21

>  <pistack:HIS:21>  (1) 
pistack:HIS:21

>  <pication:HIS:21>  (1) 
pication:HIS:21

>  <halogenbond:HIS:21>  (1) 
halogenbond:HIS:21

>  <hydroph_interaction:LEU:22>  (1) 
hydroph_interaction:LEU:22

>  <hbond:LEU:22>  (1) 
hbond:LEU:22

>  <hydroph_interaction:TRP:28>  (1) 
hydroph_interaction:TRP:28

>  <hbond:SER:36>  (1) 
hbond:SER:36

>  <halogenbond:SER:36>  (1) 
halogenbond:SER:36

>  <hbond:ARG:38>  (1) 
hbond:ARG:38

>  <halogenbond:ARG:38>  (1) 
halogenbond:ARG:38

>  <hbond:ASP:39>  (1) 
hbond:ASP:39

>  <saltbridge:ASP:39>  (1) 
saltbridge:ASP:39

>  <hydroph_interaction:ASP:39>  (1) 
hydroph_interaction:ASP:39

>  <halogenbond:ASP:39>  (1) 
halogenbond:ASP:39

>  <hydroph_interaction:LEU:40>  (1) 
hydroph_interaction:LEU:40

>  <hydroph_interaction:TYR:63>  (1) 
hydroph_interaction:TYR:63

>  <pistack:TYR:63>  (1) 
pistack:TYR:63

>  <hbond:TYR:63>  (1) 
hbond:TYR:63

>  <hbond:TYR:64>  (1) 
hbond:TYR:64

>  <halogenbond:TYR:64>  (1) 
halogenbond:TYR:64

>  <hydroph_interaction:TYR:64>  (1) 
hydroph_interaction:TYR:64

>  <hbond:CYS:65>  (1) 
hbond:CYS:65

>  <halogenbond:CYS:65>  (1) 
halogenbond:CYS:65

>  <hbond:SER:66>  (1) 
hbond:SER:66

>  <hbond:SER:67>  (1) 
hbond:SER:67

>  <halogenbond:SER:67>  (1) 
halogenbond:SER:67

>  <hydroph_interaction:ARG:68>  (1) 
hydroph_interaction:ARG:68

>  <hbond:ARG:68>  (1) 
hbond:ARG:68

>  <saltbridge:ARG:68>  (1) 
saltbridge:ARG:68

>  <pication:ARG:68>  (1) 
pication:ARG:68

>  <hydroph_interaction:TYR:72>  (1) 
hydroph_interaction:TYR:72

>  <hydroph_interaction:VAL:74>  (1) 
hydroph_interaction:VAL:74

>  <hydroph_interaction:PHE:76>  (1) 
hydroph_interaction:PHE:76

>  <hbond:SER:77>  (1) 
hbond:SER:77

>  <hbond:SER:80>  (1) 
hbond:SER:80

>  <hbond:LEU:81>  (1) 
hbond:LEU:81

>  <halogenbond:LEU:81>  (1) 
halogenbond:LEU:81

>  <hydroph_interaction:LEU:81>  (1) 
hydroph_interaction:LEU:81

>  <hydroph_interaction:ILE:82>  (1) 
hydroph_interaction:ILE:82

>  <hbond:ILE:82>  (1) 
hbond:ILE:82

>  <hydroph_interaction:PHE:83>  (1) 
hydroph_interaction:PHE:83

>  <hbond:PHE:83>  (1) 
hbond:PHE:83

>  <halogenbond:PHE:83>  (1) 
halogenbond:PHE:83

>  <pistack:PHE:83>  (1) 
pistack:PHE:83

>  <hydroph_interaction:VAL:84>  (1) 
hydroph_interaction:VAL:84

>  <hbond:VAL:84>  (1) 
hbond:VAL:84

>  <halogenbond:VAL:84>  (1) 
halogenbond:VAL:84

>  <hydroph_interaction:GLU:85>  (1) 
hydroph_interaction:GLU:85

>  <hbond:GLU:85>  (1) 
hbond:GLU:85

>  <saltbridge:GLU:85>  (1) 
saltbridge:GLU:85

>  <halogenbond:GLU:85>  (1) 
halogenbond:GLU:85

>  <hbond:ALA:86>  (1) 
hbond:ALA:86

>  <halogenbond:ALA:86>  (1) 
halogenbond:ALA:86

>  <hydroph_interaction:ALA:86>  (1) 
hydroph_interaction:ALA:86

>  <hbond:SER:87>  (1) 
hbond:SER:87

>  <halogenbond:SER:87>  (1) 
halogenbond:SER:87

>  <hbond:GLU:88>  (1) 
hbond:GLU:88

>  <hydroph_interaction:GLU:88>  (1) 
hydroph_interaction:GLU:88

>  <halogenbond:GLU:88>  (1) 
halogenbond:GLU:88

>  <saltbridge:GLU:88>  (1) 
saltbridge:GLU:88

>  <hydroph_interaction:TYR:89>  (1) 
hydroph_interaction:TYR:89

>  <pistack:TYR:89>  (1) 
pistack:TYR:89

>  <hbond:TYR:89>  (1) 
hbond:TYR:89

>  <halogenbond:TYR:89>  (1) 
halogenbond:TYR:89

>  <hbond:TYR:90>  (1) 
hbond:TYR:90

>  <hydroph_interaction:TYR:90>  (1) 
hydroph_interaction:TYR:90

>  <pistack:TYR:90>  (1) 
pistack:TYR:90

>  <halogenbond:TYR:90>  (1) 
halogenbond:TYR:90

>  <pication:TYR:90>  (1) 
pication:TYR:90

>  <hydroph_interaction:PRO:91>  (1) 
hydroph_interaction:PRO:91

>  <halogenbond:PRO:91>  (1) 
halogenbond:PRO:91

>  <hbond:PRO:91>  (1) 
hbond:PRO:91

>  <hydroph_interaction:ALA:92>  (1) 
hydroph_interaction:ALA:92

>  <hbond:ARG:93>  (1) 
hbond:ARG:93

>  <pication:ARG:93>  (1) 
pication:ARG:93

>  <saltbridge:ARG:93>  (1) 
saltbridge:ARG:93

>  <hydroph_interaction:ARG:93>  (1) 
hydroph_interaction:ARG:93

>  <halogenbond:ARG:93>  (1) 
halogenbond:ARG:93

>  <hydroph_interaction:TYR:94>  (1) 
hydroph_interaction:TYR:94

>  <hbond:TYR:94>  (1) 
hbond:TYR:94

>  <halogenbond:GLN:95>  (1) 
halogenbond:GLN:95

>  <hbond:GLN:95>  (1) 
hbond:GLN:95

>  <hydroph_interaction:GLN:95>  (1) 
hydroph_interaction:GLN:95

>  <hbond:SER:96>  (1) 
hbond:SER:96

>  <hydroph_interaction:LEU:98>  (1) 
hydroph_interaction:LEU:98

>  <hbond:LEU:98>  (1) 
hbond:LEU:98

>  <hbond:MET:99>  (1) 
hbond:MET:99

>  <hydroph_interaction:MET:99>  (1) 
hydroph_interaction:MET:99

>  <halogenbond:MET:99>  (1) 
halogenbond:MET:99

>  <hydroph_interaction:LEU:100>  (1) 
hydroph_interaction:LEU:100

>  <hbond:LEU:100>  (1) 
hbond:LEU:100

>  <hbond:ALA:101>  (1) 
hbond:ALA:101

>  <hydroph_interaction:ALA:101>  (1) 
hydroph_interaction:ALA:101

>  <hydroph_interaction:VAL:102>  (1) 
hydroph_interaction:VAL:102

>  <hbond:VAL:102>  (1) 
hbond:VAL:102

>  <hbond:GLY:103>  (1) 
hbond:GLY:103

>  <halogenbond:GLY:103>  (1) 
halogenbond:GLY:103

>  <hydroph_interaction:HIS:104>  (1) 
hydroph_interaction:HIS:104

>  <hbond:HIS:104>  (1) 
hbond:HIS:104

>  <saltbridge:HIS:104>  (1) 
saltbridge:HIS:104

>  <pication:HIS:104>  (1) 
pication:HIS:104

>  <pistack:HIS:104>  (1) 
pistack:HIS:104

>  <halogenbond:HIS:104>  (1) 
halogenbond:HIS:104

>  <hbond:SER:105>  (1) 
hbond:SER:105

>  <halogenbond:SER:105>  (1) 
halogenbond:SER:105

>  <hbond:GLU:106>  (1) 
hbond:GLU:106

>  <hydroph_interaction:GLU:106>  (1) 
hydroph_interaction:GLU:106

>  <saltbridge:GLU:106>  (1) 
saltbridge:GLU:106

>  <halogenbond:GLU:106>  (1) 
halogenbond:GLU:106

>  <hydroph_interaction:PRO:107>  (1) 
hydroph_interaction:PRO:107

>  <hbond:PRO:107>  (1) 
hbond:PRO:107

>  <halogenbond:PRO:107>  (1) 
halogenbond:PRO:107

>  <hbond:GLY:108>  (1) 
hbond:GLY:108

>  <halogenbond:GLY:108>  (1) 
halogenbond:GLY:108

>  <hbond:ASP:109>  (1) 
hbond:ASP:109

>  <hydroph_interaction:ASP:109>  (1) 
hydroph_interaction:ASP:109

>  <saltbridge:ASP:109>  (1) 
saltbridge:ASP:109

>  <hbond:CYS:110>  (1) 
hbond:CYS:110

>  <halogenbond:CYS:110>  (1) 
halogenbond:CYS:110

>  <hbond:GLY:111>  (1) 
hbond:GLY:111

>  <hbond:GLY:112>  (1) 
hbond:GLY:112

>  <hbond:ILE:113>  (1) 
hbond:ILE:113

>  <hydroph_interaction:LEU:114>  (1) 
hydroph_interaction:LEU:114

>  <hbond:LEU:114>  (1) 
hbond:LEU:114

>  <hydroph_interaction:ILE:123>  (1) 
hydroph_interaction:ILE:123

>  <hbond:ILE:123>  (1) 
hbond:ILE:123

>  <hydroph_interaction:VAL:124>  (1) 
hydroph_interaction:VAL:124

>  <hbond:VAL:124>  (1) 
hbond:VAL:124

>  <halogenbond:VAL:124>  (1) 
halogenbond:VAL:124

>  <hbond:SER:125>  (1) 
hbond:SER:125

>  <halogenbond:SER:125>  (1) 
halogenbond:SER:125

>  <hydroph_interaction:THR:126>  (1) 
hydroph_interaction:THR:126

>  <hbond:THR:126>  (1) 
hbond:THR:126

>  <halogenbond:THR:126>  (1) 
halogenbond:THR:126

>  <hbond:GLY:127>  (1) 
hbond:GLY:127

>  <halogenbond:GLY:127>  (1) 
halogenbond:GLY:127

>  <hydroph_interaction:GLY:127>  (1) 
hydroph_interaction:GLY:127

>  <hbond:GLY:128>  (1) 
hbond:GLY:128

>  <halogenbond:GLY:128>  (1) 
halogenbond:GLY:128

>  <hydroph_interaction:GLY:128>  (1) 
hydroph_interaction:GLY:128

>  <hbond:ASN:129>  (1) 
hbond:ASN:129

>  <hydroph_interaction:ASN:129>  (1) 
hydroph_interaction:ASN:129

>  <halogenbond:ASN:129>  (1) 
halogenbond:ASN:129

>  <hbond:GLY:130>  (1) 
hbond:GLY:130

>  <hydroph_interaction:LEU:131>  (1) 
hydroph_interaction:LEU:131

>  <hbond:LEU:131>  (1) 
hbond:LEU:131

>  <halogenbond:LEU:131>  (1) 
halogenbond:LEU:131

>  <hydroph_interaction:VAL:132>  (1) 
hydroph_interaction:VAL:132

>  <hbond:VAL:132>  (1) 
hbond:VAL:132

>  <hbond:GLY:133>  (1) 
hbond:GLY:133

>  <halogenbond:GLY:133>  (1) 
halogenbond:GLY:133

>  <hydroph_interaction:PHE:134>  (1) 
hydroph_interaction:PHE:134

>  <hbond:PHE:134>  (1) 
hbond:PHE:134

>  <pistack:PHE:134>  (1) 
pistack:PHE:134

>  <pication:PHE:134>  (1) 
pication:PHE:134

>  <hydroph_interaction:ALA:135>  (1) 
hydroph_interaction:ALA:135

>  <hbond:ALA:135>  (1) 
hbond:ALA:135

$$$$
Z4629053596
     RDKit          3D

 26 26  0  0  0  0  0  0  0  0999 V2000
   -0.2780   12.2330   16.9520 C   0  0  0  0  0  0  0  0  0  0  0  0
   -0.7430   13.5810   17.4640 C   0  0  0  0  0  0  0  0  0  0  0  0
   -1.9240   13.9250   17.4720 O   0  0  0  0  0  0  0  0  0  0  0  0
    0.2730   14.3840   17.8930 N   0  0  0  0  0  0  0  0  0  0  0  0
    0.9180   14.2140   19.1520 C   0  0  0  0  0  0  0  0  0  0  0  0
    1.8990   13.0340   19.1190 C   0  0  0  0  0  0  0  0  0  0  0  0
    2.7090   13.1840   17.8390 C   0  0  0  0  0  0  0  0  0  0  0  0
    3.7190   12.0220   17.7720 C   0  0  0  0  0  0  0  0  0  0  0  0
    3.8520   10.9170   18.8320 C   0  0  0  0  0  0  0  0  0  0  0  0
    3.0500   10.9380   19.9060 C   0  0  0  0  0  0  0  0  0  0  0  0
    3.1500    9.9870   20.8450 O   0  0  0  0  0  0  0  0  0  0  0  0
    2.0320   12.0560   20.0370 C   0  0  0  0  0  0  0  0  0  0  0  0
    1.1690   11.9790   21.3080 C   0  0  0  0  0  0  0  0  0  0  0  0
    0.1240   12.3360   15.9390 H   0  0  0  0  0  0  0  0  0  0  0  0
   -1.1120   11.5270   16.9080 H   0  0  0  0  0  0  0  0  0  0  0  0
    0.5090   11.7950   17.5750 H   0  0  0  0  0  0  0  0  0  0  0  0
    0.7590   14.9640   17.2110 H   0  0  0  0  0  0  0  0  0  0  0  0
    0.1330   14.1040   19.9030 H   0  0  0  0  0  0  0  0  0  0  0  0
    1.4260   15.1570   19.3700 H   0  0  0  0  0  0  0  0  0  0  0  0
    2.6010   13.9650   17.1050 H   0  0  0  0  0  0  0  0  0  0  0  0
    4.4210   11.9060   16.9480 H   0  0  0  0  0  0  0  0  0  0  0  0
    4.5830   10.1080   18.7370 H   0  0  0  0  0  0  0  0  0  0  0  0
    2.4260   10.0830   21.5110 H   0  0  0  0  0  0  0  0  0  0  0  0
    0.5590   11.0770   21.2790 H   0  0  0  0  0  0  0  0  0  0  0  0
    0.5160   12.8500   21.4060 H   0  0  0  0  0  0  0  0  0  0  0  0
    1.8180   11.9720   22.1650 H   0  0  0  0  0  0  0  0  0  0  0  0
  1  2  1  0
  2  3  2  0
  2  4  1  0
  4  5  1  0
  5  6  1  0
  6  7  2  0
  7  8  1  0
  8  9  2  0
  9 10  1  0
 10 11  1  0
 10 12  2  0
 12 13  1  0
 12  6  1  0
  1 14  1  0
  1 15  1  0
  1 16  1  0
  4 17  1  0
  5 18  1  0
  5 19  1  0
  7 20  1  0
  8 21  1  0
  9 22  1  0
 11 23  1  0
 13 24  1  0
 13 25  1  0
 13 26  1  0
A    1
 C1 
A    2
 C2 
A    3
 O1 
A    4
 N1 
A    5
 C3 
A    6
 C4 
A    7
 C5 
A    8
 C6 
A    9
 C7 
A   10
 C8 
A   11
 O2 
A   12
 C9 
A   13
 C10
A   14
 H1 
A   15
 H2 
A   16
 H3 
A   17
 H4 
A   18
 H5 
A   19
 H6 
A   20
 H7 
A   21
 H8 
A   22
 H9 
A   23
 H10
A   24
 H11
A   25
 H12
A   26
 H13
M  END
>  <ref_pdb>  (1) 
x0310_0A

>  <ref_mols>  (1) 
x0473_0A,x0812_0A

>  <original SMILES>  (1) 
CC(=O)NCc1cccc(O)c1C

>  <rationale>  (1) 
info hbond:L131+F83; hydroph_interaction:V84+I82+L100+L131+L98+N129; 

>  <intxn_cluster>  (1) 
201

>  <intxn_cluster_rank>  (1) 
1

>  <N_interactions>  (1) 
10

>  <∆∆G>  (1) 
-6.434812

>  <$/mg>  (1) 
163.0

>  <comRMSD>  (1) 
0.970945

>  <N_rotatable_bonds>  (1) 
5

>  <N_analogues_07>  (1) 
0

>  <deep_P1_sidechain>  (1) 
False

>  <farthest_distance_to_substrate>  (1) 
4.883413

>  <hbond:SER:7>  (1) 
hbond:SER:7    0
hbond:SER:7    0
Name: 0, dtype: object

>  <halogenbond:SER:7>  (1) 
halogenbond:SER:7    0
halogenbond:SER:7    0
Name: 0, dtype: object

>  <hbond:GLY:8>  (1) 
hbond:GLY:8    0
hbond:GLY:8    0
Name: 0, dtype: object

>  <hydroph_interaction:ASN:19>  (1) 
hydroph_interaction:ASN:19    0
hydroph_interaction:ASN:19    0
Name: 0, dtype: object

>  <hbond:ASN:19>  (1) 
hbond:ASN:19    0
hbond:ASN:19    0
Name: 0, dtype: object

>  <halogenbond:ASN:19>  (1) 
halogenbond:ASN:19    0
halogenbond:ASN:19    0
Name: 0, dtype: object

>  <hbond:ARG:20>  (1) 
hbond:ARG:20    0
hbond:ARG:20    0
Name: 0, dtype: object

>  <hydroph_interaction:ARG:20>  (1) 
hydroph_interaction:ARG:20    0
hydroph_interaction:ARG:20    0
Name: 0, dtype: object

>  <saltbridge:ARG:20>  (1) 
saltbridge:ARG:20    0
saltbridge:ARG:20    0
Name: 0, dtype: object

>  <halogenbond:ARG:20>  (1) 
halogenbond:ARG:20    0
halogenbond:ARG:20    0
Name: 0, dtype: object

>  <pication:ARG:20>  (1) 
pication:ARG:20    0
pication:ARG:20    0
Name: 0, dtype: object

>  <hbond:HIS:21>  (1) 
hbond:HIS:21    0
hbond:HIS:21    0
Name: 0, dtype: object

>  <hydroph_interaction:HIS:21>  (1) 
hydroph_interaction:HIS:21    0
hydroph_interaction:HIS:21    0
Name: 0, dtype: object

>  <saltbridge:HIS:21>  (1) 
saltbridge:HIS:21    0
saltbridge:HIS:21    0
Name: 0, dtype: object

>  <pistack:HIS:21>  (1) 
pistack:HIS:21    0
pistack:HIS:21    0
Name: 0, dtype: object

>  <pication:HIS:21>  (1) 
pication:HIS:21    0
pication:HIS:21    0
Name: 0, dtype: object

>  <halogenbond:HIS:21>  (1) 
halogenbond:HIS:21    0
halogenbond:HIS:21    0
Name: 0, dtype: object

>  <hydroph_interaction:LEU:22>  (1) 
hydroph_interaction:LEU:22    0
hydroph_interaction:LEU:22    0
Name: 0, dtype: object

>  <hbond:LEU:22>  (1) 
hbond:LEU:22    0
hbond:LEU:22    0
Name: 0, dtype: object

>  <hydroph_interaction:TRP:28>  (1) 
hydroph_interaction:TRP:28    0
hydroph_interaction:TRP:28    0
Name: 0, dtype: object

>  <hbond:SER:36>  (1) 
hbond:SER:36    0
hbond:SER:36    0
Name: 0, dtype: object

>  <halogenbond:SER:36>  (1) 
halogenbond:SER:36    0
halogenbond:SER:36    0
Name: 0, dtype: object

>  <hbond:ARG:38>  (1) 
hbond:ARG:38    0
hbond:ARG:38    0
Name: 0, dtype: object

>  <halogenbond:ARG:38>  (1) 
halogenbond:ARG:38    0
halogenbond:ARG:38    0
Name: 0, dtype: object

>  <hbond:ASP:39>  (1) 
hbond:ASP:39    0
hbond:ASP:39    0
Name: 0, dtype: object

>  <saltbridge:ASP:39>  (1) 
saltbridge:ASP:39    0
saltbridge:ASP:39    0
Name: 0, dtype: object

>  <hydroph_interaction:ASP:39>  (1) 
hydroph_interaction:ASP:39    0
hydroph_interaction:ASP:39    0
Name: 0, dtype: object

>  <halogenbond:ASP:39>  (1) 
halogenbond:ASP:39    0
halogenbond:ASP:39    0
Name: 0, dtype: object

>  <hydroph_interaction:LEU:40>  (1) 
hydroph_interaction:LEU:40    0
hydroph_interaction:LEU:40    0
Name: 0, dtype: object

>  <hydroph_interaction:TYR:63>  (1) 
hydroph_interaction:TYR:63    0
hydroph_interaction:TYR:63    0
Name: 0, dtype: object

>  <pistack:TYR:63>  (1) 
pistack:TYR:63    0
pistack:TYR:63    0
Name: 0, dtype: object

>  <hbond:TYR:63>  (1) 
hbond:TYR:63    0
hbond:TYR:63    0
Name: 0, dtype: object

>  <hbond:TYR:64>  (1) 
hbond:TYR:64    0
hbond:TYR:64    0
Name: 0, dtype: object

>  <halogenbond:TYR:64>  (1) 
halogenbond:TYR:64    0
halogenbond:TYR:64    0
Name: 0, dtype: object

>  <hydroph_interaction:TYR:64>  (1) 
hydroph_interaction:TYR:64    0
hydroph_interaction:TYR:64    0
Name: 0, dtype: object

>  <hbond:CYS:65>  (1) 
hbond:CYS:65    0
hbond:CYS:65    0
Name: 0, dtype: object

>  <halogenbond:CYS:65>  (1) 
halogenbond:CYS:65    0
halogenbond:CYS:65    0
Name: 0, dtype: object

>  <hbond:SER:66>  (1) 
hbond:SER:66    0
hbond:SER:66    0
Name: 0, dtype: object

>  <hbond:SER:67>  (1) 
hbond:SER:67    0
hbond:SER:67    0
Name: 0, dtype: object

>  <halogenbond:SER:67>  (1) 
halogenbond:SER:67    0
halogenbond:SER:67    0
Name: 0, dtype: object

>  <hydroph_interaction:ARG:68>  (1) 
hydroph_interaction:ARG:68    0
hydroph_interaction:ARG:68    0
Name: 0, dtype: object

>  <hbond:ARG:68>  (1) 
hbond:ARG:68    0
hbond:ARG:68    0
Name: 0, dtype: object

>  <saltbridge:ARG:68>  (1) 
saltbridge:ARG:68    0
saltbridge:ARG:68    0
Name: 0, dtype: object

>  <pication:ARG:68>  (1) 
pication:ARG:68    0
pication:ARG:68    0
Name: 0, dtype: object

>  <hydroph_interaction:TYR:72>  (1) 
hydroph_interaction:TYR:72    0
hydroph_interaction:TYR:72    0
Name: 0, dtype: object

>  <hydroph_interaction:VAL:74>  (1) 
hydroph_interaction:VAL:74    0
hydroph_interaction:VAL:74    0
Name: 0, dtype: object

>  <hydroph_interaction:PHE:76>  (1) 
hydroph_interaction:PHE:76    0
hydroph_interaction:PHE:76    0
Name: 0, dtype: object

>  <hbond:SER:77>  (1) 
hbond:SER:77    0
hbond:SER:77    0
Name: 0, dtype: object

>  <hbond:SER:80>  (1) 
hbond:SER:80    0
hbond:SER:80    0
Name: 0, dtype: object

>  <hbond:LEU:81>  (1) 
hbond:LEU:81    0
hbond:LEU:81    0
Name: 0, dtype: object

>  <halogenbond:LEU:81>  (1) 
halogenbond:LEU:81    0
halogenbond:LEU:81    0
Name: 0, dtype: object

>  <hydroph_interaction:LEU:81>  (1) 
hydroph_interaction:LEU:81    0
hydroph_interaction:LEU:81    0
Name: 0, dtype: object

>  <hydroph_interaction:ILE:82>  (1) 
hydroph_interaction:ILE:82    1
hydroph_interaction:ILE:82    1
Name: 0, dtype: object

>  <hbond:ILE:82>  (1) 
hbond:ILE:82    0
hbond:ILE:82    0
Name: 0, dtype: object

>  <hydroph_interaction:PHE:83>  (1) 
hydroph_interaction:PHE:83    0
hydroph_interaction:PHE:83    0
Name: 0, dtype: object

>  <hbond:PHE:83>  (1) 
hbond:PHE:83    1
hbond:PHE:83    1
Name: 0, dtype: object

>  <halogenbond:PHE:83>  (1) 
halogenbond:PHE:83    0
halogenbond:PHE:83    0
Name: 0, dtype: object

>  <pistack:PHE:83>  (1) 
pistack:PHE:83    0
pistack:PHE:83    0
Name: 0, dtype: object

>  <hydroph_interaction:VAL:84>  (1) 
hydroph_interaction:VAL:84    1
hydroph_interaction:VAL:84    1
Name: 0, dtype: object

>  <hbond:VAL:84>  (1) 
hbond:VAL:84    0
hbond:VAL:84    0
Name: 0, dtype: object

>  <halogenbond:VAL:84>  (1) 
halogenbond:VAL:84    0
halogenbond:VAL:84    0
Name: 0, dtype: object

>  <hydroph_interaction:GLU:85>  (1) 
hydroph_interaction:GLU:85    0
hydroph_interaction:GLU:85    0
Name: 0, dtype: object

>  <hbond:GLU:85>  (1) 
hbond:GLU:85    0
hbond:GLU:85    0
Name: 0, dtype: object

>  <saltbridge:GLU:85>  (1) 
saltbridge:GLU:85    0
saltbridge:GLU:85    0
Name: 0, dtype: object

>  <halogenbond:GLU:85>  (1) 
halogenbond:GLU:85    0
halogenbond:GLU:85    0
Name: 0, dtype: object

>  <hbond:ALA:86>  (1) 
hbond:ALA:86    0
hbond:ALA:86    0
Name: 0, dtype: object

>  <halogenbond:ALA:86>  (1) 
halogenbond:ALA:86    0
halogenbond:ALA:86    0
Name: 0, dtype: object

>  <hydroph_interaction:ALA:86>  (1) 
hydroph_interaction:ALA:86    0
hydroph_interaction:ALA:86    0
Name: 0, dtype: object

>  <hbond:SER:87>  (1) 
hbond:SER:87    0
hbond:SER:87    0
Name: 0, dtype: object

>  <halogenbond:SER:87>  (1) 
halogenbond:SER:87    0
halogenbond:SER:87    0
Name: 0, dtype: object

>  <hbond:GLU:88>  (1) 
hbond:GLU:88    0
hbond:GLU:88    0
Name: 0, dtype: object

>  <hydroph_interaction:GLU:88>  (1) 
hydroph_interaction:GLU:88    0
hydroph_interaction:GLU:88    0
Name: 0, dtype: object

>  <halogenbond:GLU:88>  (1) 
halogenbond:GLU:88    0
halogenbond:GLU:88    0
Name: 0, dtype: object

>  <saltbridge:GLU:88>  (1) 
saltbridge:GLU:88    0
saltbridge:GLU:88    0
Name: 0, dtype: object

>  <hydroph_interaction:TYR:89>  (1) 
hydroph_interaction:TYR:89    0
hydroph_interaction:TYR:89    0
Name: 0, dtype: object

>  <pistack:TYR:89>  (1) 
pistack:TYR:89    0
pistack:TYR:89    0
Name: 0, dtype: object

>  <hbond:TYR:89>  (1) 
hbond:TYR:89    0
hbond:TYR:89    0
Name: 0, dtype: object

>  <halogenbond:TYR:89>  (1) 
halogenbond:TYR:89    0
halogenbond:TYR:89    0
Name: 0, dtype: object

>  <hbond:TYR:90>  (1) 
hbond:TYR:90    0
hbond:TYR:90    0
Name: 0, dtype: object

>  <hydroph_interaction:TYR:90>  (1) 
hydroph_interaction:TYR:90    0
hydroph_interaction:TYR:90    0
Name: 0, dtype: object

>  <pistack:TYR:90>  (1) 
pistack:TYR:90    0
pistack:TYR:90    0
Name: 0, dtype: object

>  <halogenbond:TYR:90>  (1) 
halogenbond:TYR:90    0
halogenbond:TYR:90    0
Name: 0, dtype: object

>  <pication:TYR:90>  (1) 
pication:TYR:90    0
pication:TYR:90    0
Name: 0, dtype: object

>  <hydroph_interaction:PRO:91>  (1) 
hydroph_interaction:PRO:91    0
hydroph_interaction:PRO:91    0
Name: 0, dtype: object

>  <halogenbond:PRO:91>  (1) 
halogenbond:PRO:91    0
halogenbond:PRO:91    0
Name: 0, dtype: object

>  <hbond:PRO:91>  (1) 
hbond:PRO:91    0
hbond:PRO:91    0
Name: 0, dtype: object

>  <hydroph_interaction:ALA:92>  (1) 
hydroph_interaction:ALA:92    0
hydroph_interaction:ALA:92    0
Name: 0, dtype: object

>  <hbond:ARG:93>  (1) 
hbond:ARG:93    0
hbond:ARG:93    0
Name: 0, dtype: object

>  <pication:ARG:93>  (1) 
pication:ARG:93    0
pication:ARG:93    0
Name: 0, dtype: object

>  <saltbridge:ARG:93>  (1) 
saltbridge:ARG:93    0
saltbridge:ARG:93    0
Name: 0, dtype: object

>  <hydroph_interaction:ARG:93>  (1) 
hydroph_interaction:ARG:93    0
hydroph_interaction:ARG:93    0
Name: 0, dtype: object

>  <halogenbond:ARG:93>  (1) 
halogenbond:ARG:93    0
halogenbond:ARG:93    0
Name: 0, dtype: object

>  <hydroph_interaction:TYR:94>  (1) 
hydroph_interaction:TYR:94    0
hydroph_interaction:TYR:94    0
Name: 0, dtype: object

>  <hbond:TYR:94>  (1) 
hbond:TYR:94    0
hbond:TYR:94    0
Name: 0, dtype: object

>  <halogenbond:GLN:95>  (1) 
halogenbond:GLN:95    0
halogenbond:GLN:95    0
Name: 0, dtype: object

>  <hbond:GLN:95>  (1) 
hbond:GLN:95    0
hbond:GLN:95    0
Name: 0, dtype: object

>  <hydroph_interaction:GLN:95>  (1) 
hydroph_interaction:GLN:95    0
hydroph_interaction:GLN:95    0
Name: 0, dtype: object

>  <hbond:SER:96>  (1) 
hbond:SER:96    0
hbond:SER:96    0
Name: 0, dtype: object

>  <hydroph_interaction:LEU:98>  (1) 
hydroph_interaction:LEU:98    1
hydroph_interaction:LEU:98    1
Name: 0, dtype: object

>  <hbond:LEU:98>  (1) 
hbond:LEU:98    0
hbond:LEU:98    0
Name: 0, dtype: object

>  <hbond:MET:99>  (1) 
hbond:MET:99    0
hbond:MET:99    0
Name: 0, dtype: object

>  <hydroph_interaction:MET:99>  (1) 
hydroph_interaction:MET:99    0
hydroph_interaction:MET:99    0
Name: 0, dtype: object

>  <halogenbond:MET:99>  (1) 
halogenbond:MET:99    0
halogenbond:MET:99    0
Name: 0, dtype: object

>  <hydroph_interaction:LEU:100>  (1) 
hydroph_interaction:LEU:100    2
hydroph_interaction:LEU:100    2
Name: 0, dtype: object

>  <hbond:LEU:100>  (1) 
hbond:LEU:100    0
hbond:LEU:100    0
Name: 0, dtype: object

>  <hbond:ALA:101>  (1) 
hbond:ALA:101    0
hbond:ALA:101    0
Name: 0, dtype: object

>  <hydroph_interaction:ALA:101>  (1) 
hydroph_interaction:ALA:101    0
hydroph_interaction:ALA:101    0
Name: 0, dtype: object

>  <hydroph_interaction:VAL:102>  (1) 
hydroph_interaction:VAL:102    0
hydroph_interaction:VAL:102    0
Name: 0, dtype: object

>  <hbond:VAL:102>  (1) 
hbond:VAL:102    0
hbond:VAL:102    0
Name: 0, dtype: object

>  <hbond:GLY:103>  (1) 
hbond:GLY:103    0
hbond:GLY:103    0
Name: 0, dtype: object

>  <halogenbond:GLY:103>  (1) 
halogenbond:GLY:103    0
halogenbond:GLY:103    0
Name: 0, dtype: object

>  <hydroph_interaction:HIS:104>  (1) 
hydroph_interaction:HIS:104    0
hydroph_interaction:HIS:104    0
Name: 0, dtype: object

>  <hbond:HIS:104>  (1) 
hbond:HIS:104    0
hbond:HIS:104    0
Name: 0, dtype: object

>  <saltbridge:HIS:104>  (1) 
saltbridge:HIS:104    0
saltbridge:HIS:104    0
Name: 0, dtype: object

>  <pication:HIS:104>  (1) 
pication:HIS:104    0
pication:HIS:104    0
Name: 0, dtype: object

>  <pistack:HIS:104>  (1) 
pistack:HIS:104    0
pistack:HIS:104    0
Name: 0, dtype: object

>  <halogenbond:HIS:104>  (1) 
halogenbond:HIS:104    0
halogenbond:HIS:104    0
Name: 0, dtype: object

>  <hbond:SER:105>  (1) 
hbond:SER:105    0
hbond:SER:105    0
Name: 0, dtype: object

>  <halogenbond:SER:105>  (1) 
halogenbond:SER:105    0
halogenbond:SER:105    0
Name: 0, dtype: object

>  <hbond:GLU:106>  (1) 
hbond:GLU:106    0
hbond:GLU:106    0
Name: 0, dtype: object

>  <hydroph_interaction:GLU:106>  (1) 
hydroph_interaction:GLU:106    0
hydroph_interaction:GLU:106    0
Name: 0, dtype: object

>  <saltbridge:GLU:106>  (1) 
saltbridge:GLU:106    0
saltbridge:GLU:106    0
Name: 0, dtype: object

>  <halogenbond:GLU:106>  (1) 
halogenbond:GLU:106    0
halogenbond:GLU:106    0
Name: 0, dtype: object

>  <hydroph_interaction:PRO:107>  (1) 
hydroph_interaction:PRO:107    0
hydroph_interaction:PRO:107    0
Name: 0, dtype: object

>  <hbond:PRO:107>  (1) 
hbond:PRO:107    0
hbond:PRO:107    0
Name: 0, dtype: object

>  <halogenbond:PRO:107>  (1) 
halogenbond:PRO:107    0
halogenbond:PRO:107    0
Name: 0, dtype: object

>  <hbond:GLY:108>  (1) 
hbond:GLY:108    0
hbond:GLY:108    0
Name: 0, dtype: object

>  <halogenbond:GLY:108>  (1) 
halogenbond:GLY:108    0
halogenbond:GLY:108    0
Name: 0, dtype: object

>  <hbond:ASP:109>  (1) 
hbond:ASP:109    0
hbond:ASP:109    0
Name: 0, dtype: object

>  <hydroph_interaction:ASP:109>  (1) 
hydroph_interaction:ASP:109    0
hydroph_interaction:ASP:109    0
Name: 0, dtype: object

>  <saltbridge:ASP:109>  (1) 
saltbridge:ASP:109    0
saltbridge:ASP:109    0
Name: 0, dtype: object

>  <hbond:CYS:110>  (1) 
hbond:CYS:110    0
hbond:CYS:110    0
Name: 0, dtype: object

>  <halogenbond:CYS:110>  (1) 
halogenbond:CYS:110    0
halogenbond:CYS:110    0
Name: 0, dtype: object

>  <hbond:GLY:111>  (1) 
hbond:GLY:111    0
hbond:GLY:111    0
Name: 0, dtype: object

>  <hbond:GLY:112>  (1) 
hbond:GLY:112    0
hbond:GLY:112    0
Name: 0, dtype: object

>  <hbond:ILE:113>  (1) 
hbond:ILE:113    0
hbond:ILE:113    0
Name: 0, dtype: object

>  <hydroph_interaction:LEU:114>  (1) 
hydroph_interaction:LEU:114    0
hydroph_interaction:LEU:114    0
Name: 0, dtype: object

>  <hbond:LEU:114>  (1) 
hbond:LEU:114    0
hbond:LEU:114    0
Name: 0, dtype: object

>  <hydroph_interaction:ILE:123>  (1) 
hydroph_interaction:ILE:123    0
hydroph_interaction:ILE:123    0
Name: 0, dtype: object

>  <hbond:ILE:123>  (1) 
hbond:ILE:123    0
hbond:ILE:123    0
Name: 0, dtype: object

>  <hydroph_interaction:VAL:124>  (1) 
hydroph_interaction:VAL:124    0
hydroph_interaction:VAL:124    0
Name: 0, dtype: object

>  <hbond:VAL:124>  (1) 
hbond:VAL:124    0
hbond:VAL:124    0
Name: 0, dtype: object

>  <halogenbond:VAL:124>  (1) 
halogenbond:VAL:124    0
halogenbond:VAL:124    0
Name: 0, dtype: object

>  <hbond:SER:125>  (1) 
hbond:SER:125    0
hbond:SER:125    0
Name: 0, dtype: object

>  <halogenbond:SER:125>  (1) 
halogenbond:SER:125    0
halogenbond:SER:125    0
Name: 0, dtype: object

>  <hydroph_interaction:THR:126>  (1) 
hydroph_interaction:THR:126    0
hydroph_interaction:THR:126    0
Name: 0, dtype: object

>  <hbond:THR:126>  (1) 
hbond:THR:126    0
hbond:THR:126    0
Name: 0, dtype: object

>  <halogenbond:THR:126>  (1) 
halogenbond:THR:126    0
halogenbond:THR:126    0
Name: 0, dtype: object

>  <hbond:GLY:127>  (1) 
hbond:GLY:127    0
hbond:GLY:127    0
Name: 0, dtype: object

>  <halogenbond:GLY:127>  (1) 
halogenbond:GLY:127    0
halogenbond:GLY:127    0
Name: 0, dtype: object

>  <hydroph_interaction:GLY:127>  (1) 
hydroph_interaction:GLY:127    0
hydroph_interaction:GLY:127    0
Name: 0, dtype: object

>  <hbond:GLY:128>  (1) 
hbond:GLY:128    0
hbond:GLY:128    0
Name: 0, dtype: object

>  <halogenbond:GLY:128>  (1) 
halogenbond:GLY:128    0
halogenbond:GLY:128    0
Name: 0, dtype: object

>  <hydroph_interaction:GLY:128>  (1) 
hydroph_interaction:GLY:128    0
hydroph_interaction:GLY:128    0
Name: 0, dtype: object

>  <hbond:ASN:129>  (1) 
hbond:ASN:129    0
hbond:ASN:129    0
Name: 0, dtype: object

>  <hydroph_interaction:ASN:129>  (1) 
hydroph_interaction:ASN:129    1
hydroph_interaction:ASN:129    1
Name: 0, dtype: object

>  <halogenbond:ASN:129>  (1) 
halogenbond:ASN:129    0
halogenbond:ASN:129    0
Name: 0, dtype: object

>  <hbond:GLY:130>  (1) 
hbond:GLY:130    0
hbond:GLY:130    0
Name: 0, dtype: object

>  <hydroph_interaction:LEU:131>  (1) 
hydroph_interaction:LEU:131    1
hydroph_interaction:LEU:131    1
Name: 0, dtype: object

>  <hbond:LEU:131>  (1) 
hbond:LEU:131    2
hbond:LEU:131    2
Name: 0, dtype: object

>  <halogenbond:LEU:131>  (1) 
halogenbond:LEU:131    0
halogenbond:LEU:131    0
Name: 0, dtype: object

>  <hydroph_interaction:VAL:132>  (1) 
hydroph_interaction:VAL:132    0
hydroph_interaction:VAL:132    0
Name: 0, dtype: object

>  <hbond:VAL:132>  (1) 
hbond:VAL:132    0
hbond:VAL:132    0
Name: 0, dtype: object

>  <hbond:GLY:133>  (1) 
hbond:GLY:133    0
hbond:GLY:133    0
Name: 0, dtype: object

>  <halogenbond:GLY:133>  (1) 
halogenbond:GLY:133    0
halogenbond:GLY:133    0
Name: 0, dtype: object

>  <hydroph_interaction:PHE:134>  (1) 
hydroph_interaction:PHE:134    0
hydroph_interaction:PHE:134    0
Name: 0, dtype: object

>  <hbond:PHE:134>  (1) 
hbond:PHE:134    0
hbond:PHE:134    0
Name: 0, dtype: object

>  <pistack:PHE:134>  (1) 
pistack:PHE:134    0
pistack:PHE:134    0
Name: 0, dtype: object

>  <pication:PHE:134>  (1) 
pication:PHE:134    0
pication:PHE:134    0
Name: 0, dtype: object

>  <hydroph_interaction:ALA:135>  (1) 
hydroph_interaction:ALA:135    0
hydroph_interaction:ALA:135    0
Name: 0, dtype: object

>  <hbond:ALA:135>  (1) 
hbond:ALA:135    0
hbond:ALA:135    0
Name: 0, dtype: object

$$$$
Z1024105954
     RDKit          3D

 48 50  0  0  0  0  0  0  0  0999 V2000
   11.2110   14.6390   24.5980 O   0  0  0  0  0  0  0  0  0  0  0  0
   11.3820   14.1030   23.5270 C   0  0  0  0  0  0  0  0  0  0  0  0
   12.7190   14.0830   22.8270 C   0  0  0  0  0  0  0  0  0  0  0  0
   12.5530   13.7750   21.4220 N   0  0  0  0  0  0  0  0  0  0  0  0
   12.2690   15.1790   20.5650 S   0  0  0  0  0  6  0  0  0  0  0  0
   12.9870   15.0180   19.3320 O   0  0  0  0  0  0  0  0  0  0  0  0
   12.5650   16.2170   21.5240 O   0  0  0  0  0  0  0  0  0  0  0  0
   10.4780   15.0960   20.2760 C   0  0  0  0  0  0  0  0  0  0  0  0
   10.1300   15.9860   19.1610 C   0  0  0  0  0  0  0  0  0  0  0  0
   10.9070   16.0130   17.9930 C   0  0  0  0  0  0  0  0  0  0  0  0
   10.5590   16.8640   16.9300 C   0  0  0  0  0  0  0  0  0  0  0  0
    9.4290   17.6830   17.0270 C   0  0  0  0  0  0  0  0  0  0  0  0
    8.6970   17.6370   18.1870 C   0  0  0  0  0  0  0  0  0  0  0  0
    9.0190   16.8170   19.2450 C   0  0  0  0  0  0  0  0  0  0  0  0
   10.4010   13.4360   22.8240 N   0  0  0  0  0  0  0  0  0  0  0  0
    9.8220   12.1700   23.2310 C   0  0  0  0  0  0  0  0  0  0  0  0
   10.3140   10.8660   22.6140 C   0  0  0  0  0  0  0  0  0  0  0  0
    9.7370    9.5690   23.0420 C   0  0  0  0  0  0  0  0  0  0  0  0
    8.6640    9.5410   24.0750 C   0  0  0  0  0  0  0  0  0  0  0  0
    8.2050   10.8370   24.6510 C   0  0  0  0  0  0  0  0  0  0  0  0
    8.8050   12.1460   24.2050 C   0  0  0  0  0  0  0  0  0  0  0  0
    8.3000   13.3050   24.7970 N   0  0  0  0  0  0  0  0  0  0  0  0
    7.1580   13.2310   25.5690 C   0  0  0  0  0  0  0  0  0  0  0  0
    6.6670   12.1620   25.9100 O   0  0  0  0  0  0  0  0  0  0  0  0
    6.5740   14.5000   25.9530 C   0  0  0  0  0  0  0  0  0  0  0  0
    7.1790   15.7210   26.1760 C   0  0  0  0  0  0  0  0  0  0  0  0
    6.2100   16.8160   26.5710 C   0  0  0  0  0  0  0  0  0  0  0  0
    4.8300   16.1840   26.5890 C   0  0  0  0  0  0  0  0  0  0  0  0
    4.8660   14.5310   26.1770 S   0  0  0  0  0  0  0  0  0  0  0  0
   13.3550   13.3110   23.2690 H   0  0  0  0  0  0  0  0  0  0  0  0
   13.2310   15.0510   22.9190 H   0  0  0  0  0  0  0  0  0  0  0  0
   13.2840   13.2270   20.9860 H   0  0  0  0  0  0  0  0  0  0  0  0
   10.2480   14.0440   20.1390 H   0  0  0  0  0  0  0  0  0  0  0  0
   10.0130   15.3350   21.2260 H   0  0  0  0  0  0  0  0  0  0  0  0
   11.7820   15.3730   17.9060 H   0  0  0  0  0  0  0  0  0  0  0  0
   11.1750   16.8710   16.0310 H   0  0  0  0  0  0  0  0  0  0  0  0
    9.1440   18.3270   16.2180 H   0  0  0  0  0  0  0  0  0  0  0  0
    7.8130   18.2800   18.2850 H   0  0  0  0  0  0  0  0  0  0  0  0
    8.3420   16.8880   20.1000 H   0  0  0  0  0  0  0  0  0  0  0  0
   10.1810   13.7630   21.8940 H   0  0  0  0  0  0  0  0  0  0  0  0
   11.0630   10.7780   21.8720 H   0  0  0  0  0  0  0  0  0  0  0  0
   10.0750    8.6160   22.6160 H   0  0  0  0  0  0  0  0  0  0  0  0
    8.2390    8.6340   24.3840 H   0  0  0  0  0  0  0  0  0  0  0  0
    7.4240   10.8300   25.4010 H   0  0  0  0  0  0  0  0  0  0  0  0
    8.9720   14.0090   25.0460 H   0  0  0  0  0  0  0  0  0  0  0  0
    8.2460   15.8910   26.0800 H   0  0  0  0  0  0  0  0  0  0  0  0
    6.4400   17.8510   26.7970 H   0  0  0  0  0  0  0  0  0  0  0  0
    3.8880   16.6580   26.8250 H   0  0  0  0  0  0  0  0  0  0  0  0
  1  2  2  0
  2  3  1  0
  3  4  1  0
  4  5  1  0
  5  6  2  0
  5  7  2  0
  5  8  1  0
  8  9  1  0
  9 10  2  0
 10 11  1  0
 11 12  2  0
 12 13  1  0
 13 14  2  0
  2 15  1  0
 15 16  1  0
 16 17  2  0
 17 18  1  0
 18 19  2  0
 19 20  1  0
 20 21  2  0
 21 22  1  0
 22 23  1  0
 23 24  2  0
 23 25  1  0
 25 26  2  0
 26 27  1  0
 27 28  2  0
 28 29  1  0
 14  9  1  0
 21 16  1  0
 29 25  1  0
  3 30  1  0
  3 31  1  0
  4 32  1  0
  8 33  1  0
  8 34  1  0
 10 35  1  0
 11 36  1  0
 12 37  1  0
 13 38  1  0
 14 39  1  0
 15 40  1  0
 17 41  1  0
 18 42  1  0
 19 43  1  0
 20 44  1  0
 22 45  1  0
 26 46  1  0
 27 47  1  0
 28 48  1  0
A    1
 O1 
A    2
 C1 
A    3
 C2 
A    4
 N1 
A    5
 S1 
A    6
 O2 
A    7
 O3 
A    8
 C3 
A    9
 C4 
A   10
 C5 
A   11
 C6 
A   12
 C7 
A   13
 C8 
A   14
 C9 
A   15
 N2 
A   16
 C10
A   17
 C11
A   18
 C12
A   19
 C13
A   20
 C14
A   21
 C15
A   22
 N3 
A   23
 C16
A   24
 O4 
A   25
 C17
A   26
 C18
A   27
 C19
A   28
 C20
A   29
 S2 
A   30
 H1 
A   31
 H2 
A   32
 H3 
A   33
 H4 
A   34
 H5 
A   35
 H6 
A   36
 H7 
A   37
 H8 
A   38
 H9 
A   39
 H10
A   40
 H11
A   41
 H12
A   42
 H13
A   43
 H14
A   44
 H15
A   45
 H16
A   46
 H17
A   47
 H18
A   48
 H19
M  END
>  <ref_pdb>  (2) 
x0310_0A

>  <ref_mols>  (2) 
x0739_0A,x0554_0A

>  <original SMILES>  (2) 
O=C(CNS(=O)(=O)Cc1ccccc1)Nc1ccccc1NC(=O)c1cccs1

>  <rationale>  (2) 
info hbond:S87+H21; hydroph_interaction:Y90+V84+Q95+R93; 

>  <intxn_cluster>  (2) 
206

>  <intxn_cluster_rank>  (2) 
1

>  <N_interactions>  (2) 
12

>  <∆∆G>  (2) 
-11.267962

>  <$/mg>  (2) 
163.0

>  <comRMSD>  (2) 
0.943724

>  <N_rotatable_bonds>  (2) 
8

>  <N_analogues_07>  (2) 
0

>  <deep_P1_sidechain>  (2) 
False

>  <farthest_distance_to_substrate>  (2) 
3.680313

>  <hbond:SER:7>  (2) 
hbond:SER:7    0
hbond:SER:7    0
Name: 1, dtype: object

>  <halogenbond:SER:7>  (2) 
halogenbond:SER:7    0
halogenbond:SER:7    0
Name: 1, dtype: object

>  <hbond:GLY:8>  (2) 
hbond:GLY:8    0
hbond:GLY:8    0
Name: 1, dtype: object

>  <hydroph_interaction:ASN:19>  (2) 
hydroph_interaction:ASN:19    0
hydroph_interaction:ASN:19    0
Name: 1, dtype: object

>  <hbond:ASN:19>  (2) 
hbond:ASN:19    0
hbond:ASN:19    0
Name: 1, dtype: object

>  <halogenbond:ASN:19>  (2) 
halogenbond:ASN:19    0
halogenbond:ASN:19    0
Name: 1, dtype: object

>  <hbond:ARG:20>  (2) 
hbond:ARG:20    0
hbond:ARG:20    0
Name: 1, dtype: object

>  <hydroph_interaction:ARG:20>  (2) 
hydroph_interaction:ARG:20    0
hydroph_interaction:ARG:20    0
Name: 1, dtype: object

>  <saltbridge:ARG:20>  (2) 
saltbridge:ARG:20    0
saltbridge:ARG:20    0
Name: 1, dtype: object

>  <halogenbond:ARG:20>  (2) 
halogenbond:ARG:20    0
halogenbond:ARG:20    0
Name: 1, dtype: object

>  <pication:ARG:20>  (2) 
pication:ARG:20    0
pication:ARG:20    0
Name: 1, dtype: object

>  <hbond:HIS:21>  (2) 
hbond:HIS:21    1
hbond:HIS:21    1
Name: 1, dtype: object

>  <hydroph_interaction:HIS:21>  (2) 
hydroph_interaction:HIS:21    0
hydroph_interaction:HIS:21    0
Name: 1, dtype: object

>  <saltbridge:HIS:21>  (2) 
saltbridge:HIS:21    0
saltbridge:HIS:21    0
Name: 1, dtype: object

>  <pistack:HIS:21>  (2) 
pistack:HIS:21    0
pistack:HIS:21    0
Name: 1, dtype: object

>  <pication:HIS:21>  (2) 
pication:HIS:21    0
pication:HIS:21    0
Name: 1, dtype: object

>  <halogenbond:HIS:21>  (2) 
halogenbond:HIS:21    0
halogenbond:HIS:21    0
Name: 1, dtype: object

>  <hydroph_interaction:LEU:22>  (2) 
hydroph_interaction:LEU:22    0
hydroph_interaction:LEU:22    0
Name: 1, dtype: object

>  <hbond:LEU:22>  (2) 
hbond:LEU:22    0
hbond:LEU:22    0
Name: 1, dtype: object

>  <hydroph_interaction:TRP:28>  (2) 
hydroph_interaction:TRP:28    0
hydroph_interaction:TRP:28    0
Name: 1, dtype: object

>  <hbond:SER:36>  (2) 
hbond:SER:36    0
hbond:SER:36    0
Name: 1, dtype: object

>  <halogenbond:SER:36>  (2) 
halogenbond:SER:36    0
halogenbond:SER:36    0
Name: 1, dtype: object

>  <hbond:ARG:38>  (2) 
hbond:ARG:38    0
hbond:ARG:38    0
Name: 1, dtype: object

>  <halogenbond:ARG:38>  (2) 
halogenbond:ARG:38    0
halogenbond:ARG:38    0
Name: 1, dtype: object

>  <hbond:ASP:39>  (2) 
hbond:ASP:39    0
hbond:ASP:39    0
Name: 1, dtype: object

>  <saltbridge:ASP:39>  (2) 
saltbridge:ASP:39    0
saltbridge:ASP:39    0
Name: 1, dtype: object

>  <hydroph_interaction:ASP:39>  (2) 
hydroph_interaction:ASP:39    0
hydroph_interaction:ASP:39    0
Name: 1, dtype: object

>  <halogenbond:ASP:39>  (2) 
halogenbond:ASP:39    0
halogenbond:ASP:39    0
Name: 1, dtype: object

>  <hydroph_interaction:LEU:40>  (2) 
hydroph_interaction:LEU:40    0
hydroph_interaction:LEU:40    0
Name: 1, dtype: object

>  <hydroph_interaction:TYR:63>  (2) 
hydroph_interaction:TYR:63    0
hydroph_interaction:TYR:63    0
Name: 1, dtype: object

>  <pistack:TYR:63>  (2) 
pistack:TYR:63    0
pistack:TYR:63    0
Name: 1, dtype: object

>  <hbond:TYR:63>  (2) 
hbond:TYR:63    0
hbond:TYR:63    0
Name: 1, dtype: object

>  <hbond:TYR:64>  (2) 
hbond:TYR:64    0
hbond:TYR:64    0
Name: 1, dtype: object

>  <halogenbond:TYR:64>  (2) 
halogenbond:TYR:64    0
halogenbond:TYR:64    0
Name: 1, dtype: object

>  <hydroph_interaction:TYR:64>  (2) 
hydroph_interaction:TYR:64    0
hydroph_interaction:TYR:64    0
Name: 1, dtype: object

>  <hbond:CYS:65>  (2) 
hbond:CYS:65    0
hbond:CYS:65    0
Name: 1, dtype: object

>  <halogenbond:CYS:65>  (2) 
halogenbond:CYS:65    0
halogenbond:CYS:65    0
Name: 1, dtype: object

>  <hbond:SER:66>  (2) 
hbond:SER:66    0
hbond:SER:66    0
Name: 1, dtype: object

>  <hbond:SER:67>  (2) 
hbond:SER:67    0
hbond:SER:67    0
Name: 1, dtype: object

>  <halogenbond:SER:67>  (2) 
halogenbond:SER:67    0
halogenbond:SER:67    0
Name: 1, dtype: object

>  <hydroph_interaction:ARG:68>  (2) 
hydroph_interaction:ARG:68    0
hydroph_interaction:ARG:68    0
Name: 1, dtype: object

>  <hbond:ARG:68>  (2) 
hbond:ARG:68    0
hbond:ARG:68    0
Name: 1, dtype: object

>  <saltbridge:ARG:68>  (2) 
saltbridge:ARG:68    0
saltbridge:ARG:68    0
Name: 1, dtype: object

>  <pication:ARG:68>  (2) 
pication:ARG:68    0
pication:ARG:68    0
Name: 1, dtype: object

>  <hydroph_interaction:TYR:72>  (2) 
hydroph_interaction:TYR:72    0
hydroph_interaction:TYR:72    0
Name: 1, dtype: object

>  <hydroph_interaction:VAL:74>  (2) 
hydroph_interaction:VAL:74    0
hydroph_interaction:VAL:74    0
Name: 1, dtype: object

>  <hydroph_interaction:PHE:76>  (2) 
hydroph_interaction:PHE:76    0
hydroph_interaction:PHE:76    0
Name: 1, dtype: object

>  <hbond:SER:77>  (2) 
hbond:SER:77    0
hbond:SER:77    0
Name: 1, dtype: object

>  <hbond:SER:80>  (2) 
hbond:SER:80    0
hbond:SER:80    0
Name: 1, dtype: object

>  <hbond:LEU:81>  (2) 
hbond:LEU:81    0
hbond:LEU:81    0
Name: 1, dtype: object

>  <halogenbond:LEU:81>  (2) 
halogenbond:LEU:81    0
halogenbond:LEU:81    0
Name: 1, dtype: object

>  <hydroph_interaction:LEU:81>  (2) 
hydroph_interaction:LEU:81    0
hydroph_interaction:LEU:81    0
Name: 1, dtype: object

>  <hydroph_interaction:ILE:82>  (2) 
hydroph_interaction:ILE:82    0
hydroph_interaction:ILE:82    0
Name: 1, dtype: object

>  <hbond:ILE:82>  (2) 
hbond:ILE:82    0
hbond:ILE:82    0
Name: 1, dtype: object

>  <hydroph_interaction:PHE:83>  (2) 
hydroph_interaction:PHE:83    0
hydroph_interaction:PHE:83    0
Name: 1, dtype: object

>  <hbond:PHE:83>  (2) 
hbond:PHE:83    0
hbond:PHE:83    0
Name: 1, dtype: object

>  <halogenbond:PHE:83>  (2) 
halogenbond:PHE:83    0
halogenbond:PHE:83    0
Name: 1, dtype: object

>  <pistack:PHE:83>  (2) 
pistack:PHE:83    0
pistack:PHE:83    0
Name: 1, dtype: object

>  <hydroph_interaction:VAL:84>  (2) 
hydroph_interaction:VAL:84    2
hydroph_interaction:VAL:84    2
Name: 1, dtype: object

>  <hbond:VAL:84>  (2) 
hbond:VAL:84    0
hbond:VAL:84    0
Name: 1, dtype: object

>  <halogenbond:VAL:84>  (2) 
halogenbond:VAL:84    0
halogenbond:VAL:84    0
Name: 1, dtype: object

>  <hydroph_interaction:GLU:85>  (2) 
hydroph_interaction:GLU:85    0
hydroph_interaction:GLU:85    0
Name: 1, dtype: object

>  <hbond:GLU:85>  (2) 
hbond:GLU:85    0
hbond:GLU:85    0
Name: 1, dtype: object

>  <saltbridge:GLU:85>  (2) 
saltbridge:GLU:85    0
saltbridge:GLU:85    0
Name: 1, dtype: object

>  <halogenbond:GLU:85>  (2) 
halogenbond:GLU:85    0
halogenbond:GLU:85    0
Name: 1, dtype: object

>  <hbond:ALA:86>  (2) 
hbond:ALA:86    0
hbond:ALA:86    0
Name: 1, dtype: object

>  <halogenbond:ALA:86>  (2) 
halogenbond:ALA:86    0
halogenbond:ALA:86    0
Name: 1, dtype: object

>  <hydroph_interaction:ALA:86>  (2) 
hydroph_interaction:ALA:86    0
hydroph_interaction:ALA:86    0
Name: 1, dtype: object

>  <hbond:SER:87>  (2) 
hbond:SER:87    3
hbond:SER:87    3
Name: 1, dtype: object

>  <halogenbond:SER:87>  (2) 
halogenbond:SER:87    0
halogenbond:SER:87    0
Name: 1, dtype: object

>  <hbond:GLU:88>  (2) 
hbond:GLU:88    0
hbond:GLU:88    0
Name: 1, dtype: object

>  <hydroph_interaction:GLU:88>  (2) 
hydroph_interaction:GLU:88    0
hydroph_interaction:GLU:88    0
Name: 1, dtype: object

>  <halogenbond:GLU:88>  (2) 
halogenbond:GLU:88    0
halogenbond:GLU:88    0
Name: 1, dtype: object

>  <saltbridge:GLU:88>  (2) 
saltbridge:GLU:88    0
saltbridge:GLU:88    0
Name: 1, dtype: object

>  <hydroph_interaction:TYR:89>  (2) 
hydroph_interaction:TYR:89    0
hydroph_interaction:TYR:89    0
Name: 1, dtype: object

>  <pistack:TYR:89>  (2) 
pistack:TYR:89    0
pistack:TYR:89    0
Name: 1, dtype: object

>  <hbond:TYR:89>  (2) 
hbond:TYR:89    0
hbond:TYR:89    0
Name: 1, dtype: object

>  <halogenbond:TYR:89>  (2) 
halogenbond:TYR:89    0
halogenbond:TYR:89    0
Name: 1, dtype: object

>  <hbond:TYR:90>  (2) 
hbond:TYR:90    0
hbond:TYR:90    0
Name: 1, dtype: object

>  <hydroph_interaction:TYR:90>  (2) 
hydroph_interaction:TYR:90    3
hydroph_interaction:TYR:90    3
Name: 1, dtype: object

>  <pistack:TYR:90>  (2) 
pistack:TYR:90    0
pistack:TYR:90    0
Name: 1, dtype: object

>  <halogenbond:TYR:90>  (2) 
halogenbond:TYR:90    0
halogenbond:TYR:90    0
Name: 1, dtype: object

>  <pication:TYR:90>  (2) 
pication:TYR:90    0
pication:TYR:90    0
Name: 1, dtype: object

>  <hydroph_interaction:PRO:91>  (2) 
hydroph_interaction:PRO:91    0
hydroph_interaction:PRO:91    0
Name: 1, dtype: object

>  <halogenbond:PRO:91>  (2) 
halogenbond:PRO:91    0
halogenbond:PRO:91    0
Name: 1, dtype: object

>  <hbond:PRO:91>  (2) 
hbond:PRO:91    0
hbond:PRO:91    0
Name: 1, dtype: object

>  <hydroph_interaction:ALA:92>  (2) 
hydroph_interaction:ALA:92    0
hydroph_interaction:ALA:92    0
Name: 1, dtype: object

>  <hbond:ARG:93>  (2) 
hbond:ARG:93    0
hbond:ARG:93    0
Name: 1, dtype: object

>  <pication:ARG:93>  (2) 
pication:ARG:93    0
pication:ARG:93    0
Name: 1, dtype: object

>  <saltbridge:ARG:93>  (2) 
saltbridge:ARG:93    0
saltbridge:ARG:93    0
Name: 1, dtype: object

>  <hydroph_interaction:ARG:93>  (2) 
hydroph_interaction:ARG:93    1
hydroph_interaction:ARG:93    1
Name: 1, dtype: object

>  <halogenbond:ARG:93>  (2) 
halogenbond:ARG:93    0
halogenbond:ARG:93    0
Name: 1, dtype: object

>  <hydroph_interaction:TYR:94>  (2) 
hydroph_interaction:TYR:94    0
hydroph_interaction:TYR:94    0
Name: 1, dtype: object

>  <hbond:TYR:94>  (2) 
hbond:TYR:94    0
hbond:TYR:94    0
Name: 1, dtype: object

>  <halogenbond:GLN:95>  (2) 
halogenbond:GLN:95    0
halogenbond:GLN:95    0
Name: 1, dtype: object

>  <hbond:GLN:95>  (2) 
hbond:GLN:95    0
hbond:GLN:95    0
Name: 1, dtype: object

>  <hydroph_interaction:GLN:95>  (2) 
hydroph_interaction:GLN:95    2
hydroph_interaction:GLN:95    2
Name: 1, dtype: object

>  <hbond:SER:96>  (2) 
hbond:SER:96    0
hbond:SER:96    0
Name: 1, dtype: object

>  <hydroph_interaction:LEU:98>  (2) 
hydroph_interaction:LEU:98    0
hydroph_interaction:LEU:98    0
Name: 1, dtype: object

>  <hbond:LEU:98>  (2) 
hbond:LEU:98    0
hbond:LEU:98    0
Name: 1, dtype: object

>  <hbond:MET:99>  (2) 
hbond:MET:99    0
hbond:MET:99    0
Name: 1, dtype: object

>  <hydroph_interaction:MET:99>  (2) 
hydroph_interaction:MET:99    0
hydroph_interaction:MET:99    0
Name: 1, dtype: object

>  <halogenbond:MET:99>  (2) 
halogenbond:MET:99    0
halogenbond:MET:99    0
Name: 1, dtype: object

>  <hydroph_interaction:LEU:100>  (2) 
hydroph_interaction:LEU:100    0
hydroph_interaction:LEU:100    0
Name: 1, dtype: object

>  <hbond:LEU:100>  (2) 
hbond:LEU:100    0
hbond:LEU:100    0
Name: 1, dtype: object

>  <hbond:ALA:101>  (2) 
hbond:ALA:101    0
hbond:ALA:101    0
Name: 1, dtype: object

>  <hydroph_interaction:ALA:101>  (2) 
hydroph_interaction:ALA:101    0
hydroph_interaction:ALA:101    0
Name: 1, dtype: object

>  <hydroph_interaction:VAL:102>  (2) 
hydroph_interaction:VAL:102    0
hydroph_interaction:VAL:102    0
Name: 1, dtype: object

>  <hbond:VAL:102>  (2) 
hbond:VAL:102    0
hbond:VAL:102    0
Name: 1, dtype: object

>  <hbond:GLY:103>  (2) 
hbond:GLY:103    0
hbond:GLY:103    0
Name: 1, dtype: object

>  <halogenbond:GLY:103>  (2) 
halogenbond:GLY:103    0
halogenbond:GLY:103    0
Name: 1, dtype: object

>  <hydroph_interaction:HIS:104>  (2) 
hydroph_interaction:HIS:104    0
hydroph_interaction:HIS:104    0
Name: 1, dtype: object

>  <hbond:HIS:104>  (2) 
hbond:HIS:104    0
hbond:HIS:104    0
Name: 1, dtype: object

>  <saltbridge:HIS:104>  (2) 
saltbridge:HIS:104    0
saltbridge:HIS:104    0
Name: 1, dtype: object

>  <pication:HIS:104>  (2) 
pication:HIS:104    0
pication:HIS:104    0
Name: 1, dtype: object

>  <pistack:HIS:104>  (2) 
pistack:HIS:104    0
pistack:HIS:104    0
Name: 1, dtype: object

>  <halogenbond:HIS:104>  (2) 
halogenbond:HIS:104    0
halogenbond:HIS:104    0
Name: 1, dtype: object

>  <hbond:SER:105>  (2) 
hbond:SER:105    0
hbond:SER:105    0
Name: 1, dtype: object

>  <halogenbond:SER:105>  (2) 
halogenbond:SER:105    0
halogenbond:SER:105    0
Name: 1, dtype: object

>  <hbond:GLU:106>  (2) 
hbond:GLU:106    0
hbond:GLU:106    0
Name: 1, dtype: object

>  <hydroph_interaction:GLU:106>  (2) 
hydroph_interaction:GLU:106    0
hydroph_interaction:GLU:106    0
Name: 1, dtype: object

>  <saltbridge:GLU:106>  (2) 
saltbridge:GLU:106    0
saltbridge:GLU:106    0
Name: 1, dtype: object

>  <halogenbond:GLU:106>  (2) 
halogenbond:GLU:106    0
halogenbond:GLU:106    0
Name: 1, dtype: object

>  <hydroph_interaction:PRO:107>  (2) 
hydroph_interaction:PRO:107    0
hydroph_interaction:PRO:107    0
Name: 1, dtype: object

>  <hbond:PRO:107>  (2) 
hbond:PRO:107    0
hbond:PRO:107    0
Name: 1, dtype: object

>  <halogenbond:PRO:107>  (2) 
halogenbond:PRO:107    0
halogenbond:PRO:107    0
Name: 1, dtype: object

>  <hbond:GLY:108>  (2) 
hbond:GLY:108    0
hbond:GLY:108    0
Name: 1, dtype: object

>  <halogenbond:GLY:108>  (2) 
halogenbond:GLY:108    0
halogenbond:GLY:108    0
Name: 1, dtype: object

>  <hbond:ASP:109>  (2) 
hbond:ASP:109    0
hbond:ASP:109    0
Name: 1, dtype: object

>  <hydroph_interaction:ASP:109>  (2) 
hydroph_interaction:ASP:109    0
hydroph_interaction:ASP:109    0
Name: 1, dtype: object

>  <saltbridge:ASP:109>  (2) 
saltbridge:ASP:109    0
saltbridge:ASP:109    0
Name: 1, dtype: object

>  <hbond:CYS:110>  (2) 
hbond:CYS:110    0
hbond:CYS:110    0
Name: 1, dtype: object

>  <halogenbond:CYS:110>  (2) 
halogenbond:CYS:110    0
halogenbond:CYS:110    0
Name: 1, dtype: object

>  <hbond:GLY:111>  (2) 
hbond:GLY:111    0
hbond:GLY:111    0
Name: 1, dtype: object

>  <hbond:GLY:112>  (2) 
hbond:GLY:112    0
hbond:GLY:112    0
Name: 1, dtype: object

>  <hbond:ILE:113>  (2) 
hbond:ILE:113    0
hbond:ILE:113    0
Name: 1, dtype: object

>  <hydroph_interaction:LEU:114>  (2) 
hydroph_interaction:LEU:114    0
hydroph_interaction:LEU:114    0
Name: 1, dtype: object

>  <hbond:LEU:114>  (2) 
hbond:LEU:114    0
hbond:LEU:114    0
Name: 1, dtype: object

>  <hydroph_interaction:ILE:123>  (2) 
hydroph_interaction:ILE:123    0
hydroph_interaction:ILE:123    0
Name: 1, dtype: object

>  <hbond:ILE:123>  (2) 
hbond:ILE:123    0
hbond:ILE:123    0
Name: 1, dtype: object

>  <hydroph_interaction:VAL:124>  (2) 
hydroph_interaction:VAL:124    0
hydroph_interaction:VAL:124    0
Name: 1, dtype: object

>  <hbond:VAL:124>  (2) 
hbond:VAL:124    0
hbond:VAL:124    0
Name: 1, dtype: object

>  <halogenbond:VAL:124>  (2) 
halogenbond:VAL:124    0
halogenbond:VAL:124    0
Name: 1, dtype: object

>  <hbond:SER:125>  (2) 
hbond:SER:125    0
hbond:SER:125    0
Name: 1, dtype: object

>  <halogenbond:SER:125>  (2) 
halogenbond:SER:125    0
halogenbond:SER:125    0
Name: 1, dtype: object

>  <hydroph_interaction:THR:126>  (2) 
hydroph_interaction:THR:126    0
hydroph_interaction:THR:126    0
Name: 1, dtype: object

>  <hbond:THR:126>  (2) 
hbond:THR:126    0
hbond:THR:126    0
Name: 1, dtype: object

>  <halogenbond:THR:126>  (2) 
halogenbond:THR:126    0
halogenbond:THR:126    0
Name: 1, dtype: object

>  <hbond:GLY:127>  (2) 
hbond:GLY:127    0
hbond:GLY:127    0
Name: 1, dtype: object

>  <halogenbond:GLY:127>  (2) 
halogenbond:GLY:127    0
halogenbond:GLY:127    0
Name: 1, dtype: object

>  <hydroph_interaction:GLY:127>  (2) 
hydroph_interaction:GLY:127    0
hydroph_interaction:GLY:127    0
Name: 1, dtype: object

>  <hbond:GLY:128>  (2) 
hbond:GLY:128    0
hbond:GLY:128    0
Name: 1, dtype: object

>  <halogenbond:GLY:128>  (2) 
halogenbond:GLY:128    0
halogenbond:GLY:128    0
Name: 1, dtype: object

>  <hydroph_interaction:GLY:128>  (2) 
hydroph_interaction:GLY:128    0
hydroph_interaction:GLY:128    0
Name: 1, dtype: object

>  <hbond:ASN:129>  (2) 
hbond:ASN:129    0
hbond:ASN:129    0
Name: 1, dtype: object

>  <hydroph_interaction:ASN:129>  (2) 
hydroph_interaction:ASN:129    0
hydroph_interaction:ASN:129    0
Name: 1, dtype: object

>  <halogenbond:ASN:129>  (2) 
halogenbond:ASN:129    0
halogenbond:ASN:129    0
Name: 1, dtype: object

>  <hbond:GLY:130>  (2) 
hbond:GLY:130    0
hbond:GLY:130    0
Name: 1, dtype: object

>  <hydroph_interaction:LEU:131>  (2) 
hydroph_interaction:LEU:131    0
hydroph_interaction:LEU:131    0
Name: 1, dtype: object

>  <hbond:LEU:131>  (2) 
hbond:LEU:131    0
hbond:LEU:131    0
Name: 1, dtype: object

>  <halogenbond:LEU:131>  (2) 
halogenbond:LEU:131    0
halogenbond:LEU:131    0
Name: 1, dtype: object

>  <hydroph_interaction:VAL:132>  (2) 
hydroph_interaction:VAL:132    0
hydroph_interaction:VAL:132    0
Name: 1, dtype: object

>  <hbond:VAL:132>  (2) 
hbond:VAL:132    0
hbond:VAL:132    0
Name: 1, dtype: object

>  <hbond:GLY:133>  (2) 
hbond:GLY:133    0
hbond:GLY:133    0
Name: 1, dtype: object

>  <halogenbond:GLY:133>  (2) 
halogenbond:GLY:133    0
halogenbond:GLY:133    0
Name: 1, dtype: object

>  <hydroph_interaction:PHE:134>  (2) 
hydroph_interaction:PHE:134    0
hydroph_interaction:PHE:134    0
Name: 1, dtype: object

>  <hbond:PHE:134>  (2) 
hbond:PHE:134    0
hbond:PHE:134    0
Name: 1, dtype: object

>  <pistack:PHE:134>  (2) 
pistack:PHE:134    0
pistack:PHE:134    0
Name: 1, dtype: object

>  <pication:PHE:134>  (2) 
pication:PHE:134    0
pication:PHE:134    0
Name: 1, dtype: object

>  <hydroph_interaction:ALA:135>  (2) 
hydroph_interaction:ALA:135    0
hydroph_interaction:ALA:135    0
Name: 1, dtype: object

>  <hbond:ALA:135>  (2) 
hbond:ALA:135    0
hbond:ALA:135    0
Name: 1, dtype: object

$$$$
PV_002917131396
     RDKit          3D

 23 24  0  0  0  0  0  0  0  0999 V2000
   10.4190    9.7170   22.4700 C   0  0  0  0  0  0  0  0  0  0  0  0
    9.5540   10.6330   23.3020 C   0  0  0  0  0  0  0  0  0  0  0  0
    8.7330    9.7710   24.1900 C   0  0  0  0  0  0  0  0  0  0  0  0
    7.8410   10.3300   25.0610 C   0  0  0  0  0  0  0  0  0  0  0  0
    7.7460   11.6820   25.0770 C   0  0  0  0  0  0  0  0  0  0  0  0
    6.9190   12.4150   25.8740 C   0  0  0  0  0  0  0  0  0  0  0  0
    7.0940   13.7540   25.6150 C   0  0  0  0  0  0  0  0  0  0  0  0
    8.0610   13.8110   24.6250 N   0  0  0  0  0  0  0  0  0  0  0  0
    8.4860   12.5290   24.2720 C   0  0  0  0  0  0  0  0  0  0  0  0
    9.4210   12.0490   23.3460 C   0  0  0  0  0  0  0  0  0  0  0  0
   10.1180   13.0530   22.5500 C   0  0  0  0  0  0  0  0  0  0  0  0
    9.3700   14.1230   21.8320 C   0  0  0  0  0  0  0  0  0  0  0  0
   10.0310   15.0320   21.0920 F   0  0  0  0  0  0  0  0  0  0  0  0
    8.0270   14.1950   21.9050 F   0  0  0  0  0  0  0  0  0  0  0  0
    9.8230    8.9370   21.9840 H   0  0  0  0  0  0  0  0  0  0  0  0
   10.9270   10.2600   21.6980 H   0  0  0  0  0  0  0  0  0  0  0  0
   11.1710    9.2220   23.0940 H   0  0  0  0  0  0  0  0  0  0  0  0
    8.8300    8.7090   24.1570 H   0  0  0  0  0  0  0  0  0  0  0  0
    7.2280    9.7430   25.7160 H   0  0  0  0  0  0  0  0  0  0  0  0
    6.2280   12.0130   26.6010 H   0  0  0  0  0  0  0  0  0  0  0  0
    6.6390   14.6450   26.0240 H   0  0  0  0  0  0  0  0  0  0  0  0
    8.4180   14.6720   24.2060 H   0  0  0  0  0  0  0  0  0  0  0  0
   11.2010   12.9950   22.4890 H   0  0  0  0  0  0  0  0  0  0  0  0
  1  2  1  0
  2  3  2  0
  3  4  1  0
  4  5  2  0
  5  6  1  0
  6  7  2  0
  7  8  1  0
  8  9  1  0
  9 10  2  0
 10 11  1  0
 11 12  2  3
 12 13  1  0
 12 14  1  0
 10  2  1  0
  9  5  1  0
  1 15  1  0
  1 16  1  0
  1 17  1  0
  3 18  1  0
  4 19  1  0
  6 20  1  0
  7 21  1  0
  8 22  1  0
 11 23  1  0
A    1
 C1 
A    2
 C2 
A    3
 C3 
A    4
 C4 
A    5
 C5 
A    6
 C6 
A    7
 C7 
A    8
 N1 
A    9
 C8 
A   10
 C9 
A   11
 C10
A   12
 C11
A   13
 F1 
A   14
 F2 
A   15
 H1 
A   16
 H2 
A   17
 H3 
A   18
 H4 
A   19
 H5 
A   20
 H6 
A   21
 H7 
A   22
 H8 
A   23
 H9 
M  END
>  <ref_pdb>  (3) 
x0310_0A

>  <ref_mols>  (3) 
x0566_0A,x0375_0A

>  <original SMILES>  (3) 
Cc1ccc2cc[nH]c2c1C=C(F)F

>  <rationale>  (3) 
info halogenbond:G127; hydroph_interaction:P107+V124; 

>  <intxn_cluster>  (3) 
101

>  <intxn_cluster_rank>  (3) 
1

>  <N_interactions>  (3) 
3

>  <∆∆G>  (3) 
-6.802846

>  <$/mg>  (3) 
244.5

>  <comRMSD>  (3) 
0.737362

>  <N_rotatable_bonds>  (3) 
2

>  <N_analogues_07>  (3) 
5

>  <deep_P1_sidechain>  (3) 
True

>  <farthest_distance_to_substrate>  (3) 
2.865051

>  <hbond:SER:7>  (3) 
hbond:SER:7    0
hbond:SER:7    0
Name: 2, dtype: object

>  <halogenbond:SER:7>  (3) 
halogenbond:SER:7    0
halogenbond:SER:7    0
Name: 2, dtype: object

>  <hbond:GLY:8>  (3) 
hbond:GLY:8    0
hbond:GLY:8    0
Name: 2, dtype: object

>  <hydroph_interaction:ASN:19>  (3) 
hydroph_interaction:ASN:19    0
hydroph_interaction:ASN:19    0
Name: 2, dtype: object

>  <hbond:ASN:19>  (3) 
hbond:ASN:19    0
hbond:ASN:19    0
Name: 2, dtype: object

>  <halogenbond:ASN:19>  (3) 
halogenbond:ASN:19    0
halogenbond:ASN:19    0
Name: 2, dtype: object

>  <hbond:ARG:20>  (3) 
hbond:ARG:20    0
hbond:ARG:20    0
Name: 2, dtype: object

>  <hydroph_interaction:ARG:20>  (3) 
hydroph_interaction:ARG:20    0
hydroph_interaction:ARG:20    0
Name: 2, dtype: object

>  <saltbridge:ARG:20>  (3) 
saltbridge:ARG:20    0
saltbridge:ARG:20    0
Name: 2, dtype: object

>  <halogenbond:ARG:20>  (3) 
halogenbond:ARG:20    0
halogenbond:ARG:20    0
Name: 2, dtype: object

>  <pication:ARG:20>  (3) 
pication:ARG:20    0
pication:ARG:20    0
Name: 2, dtype: object

>  <hbond:HIS:21>  (3) 
hbond:HIS:21    0
hbond:HIS:21    0
Name: 2, dtype: object

>  <hydroph_interaction:HIS:21>  (3) 
hydroph_interaction:HIS:21    0
hydroph_interaction:HIS:21    0
Name: 2, dtype: object

>  <saltbridge:HIS:21>  (3) 
saltbridge:HIS:21    0
saltbridge:HIS:21    0
Name: 2, dtype: object

>  <pistack:HIS:21>  (3) 
pistack:HIS:21    0
pistack:HIS:21    0
Name: 2, dtype: object

>  <pication:HIS:21>  (3) 
pication:HIS:21    0
pication:HIS:21    0
Name: 2, dtype: object

>  <halogenbond:HIS:21>  (3) 
halogenbond:HIS:21    0
halogenbond:HIS:21    0
Name: 2, dtype: object

>  <hydroph_interaction:LEU:22>  (3) 
hydroph_interaction:LEU:22    0
hydroph_interaction:LEU:22    0
Name: 2, dtype: object

>  <hbond:LEU:22>  (3) 
hbond:LEU:22    0
hbond:LEU:22    0
Name: 2, dtype: object

>  <hydroph_interaction:TRP:28>  (3) 
hydroph_interaction:TRP:28    0
hydroph_interaction:TRP:28    0
Name: 2, dtype: object

>  <hbond:SER:36>  (3) 
hbond:SER:36    0
hbond:SER:36    0
Name: 2, dtype: object

>  <halogenbond:SER:36>  (3) 
halogenbond:SER:36    0
halogenbond:SER:36    0
Name: 2, dtype: object

>  <hbond:ARG:38>  (3) 
hbond:ARG:38    0
hbond:ARG:38    0
Name: 2, dtype: object

>  <halogenbond:ARG:38>  (3) 
halogenbond:ARG:38    0
halogenbond:ARG:38    0
Name: 2, dtype: object

>  <hbond:ASP:39>  (3) 
hbond:ASP:39    0
hbond:ASP:39    0
Name: 2, dtype: object

>  <saltbridge:ASP:39>  (3) 
saltbridge:ASP:39    0
saltbridge:ASP:39    0
Name: 2, dtype: object

>  <hydroph_interaction:ASP:39>  (3) 
hydroph_interaction:ASP:39    0
hydroph_interaction:ASP:39    0
Name: 2, dtype: object

>  <halogenbond:ASP:39>  (3) 
halogenbond:ASP:39    0
halogenbond:ASP:39    0
Name: 2, dtype: object

>  <hydroph_interaction:LEU:40>  (3) 
hydroph_interaction:LEU:40    0
hydroph_interaction:LEU:40    0
Name: 2, dtype: object

>  <hydroph_interaction:TYR:63>  (3) 
hydroph_interaction:TYR:63    0
hydroph_interaction:TYR:63    0
Name: 2, dtype: object

>  <pistack:TYR:63>  (3) 
pistack:TYR:63    0
pistack:TYR:63    0
Name: 2, dtype: object

>  <hbond:TYR:63>  (3) 
hbond:TYR:63    0
hbond:TYR:63    0
Name: 2, dtype: object

>  <hbond:TYR:64>  (3) 
hbond:TYR:64    0
hbond:TYR:64    0
Name: 2, dtype: object

>  <halogenbond:TYR:64>  (3) 
halogenbond:TYR:64    0
halogenbond:TYR:64    0
Name: 2, dtype: object

>  <hydroph_interaction:TYR:64>  (3) 
hydroph_interaction:TYR:64    0
hydroph_interaction:TYR:64    0
Name: 2, dtype: object

>  <hbond:CYS:65>  (3) 
hbond:CYS:65    0
hbond:CYS:65    0
Name: 2, dtype: object

>  <halogenbond:CYS:65>  (3) 
halogenbond:CYS:65    0
halogenbond:CYS:65    0
Name: 2, dtype: object

>  <hbond:SER:66>  (3) 
hbond:SER:66    0
hbond:SER:66    0
Name: 2, dtype: object

>  <hbond:SER:67>  (3) 
hbond:SER:67    0
hbond:SER:67    0
Name: 2, dtype: object

>  <halogenbond:SER:67>  (3) 
halogenbond:SER:67    0
halogenbond:SER:67    0
Name: 2, dtype: object

>  <hydroph_interaction:ARG:68>  (3) 
hydroph_interaction:ARG:68    0
hydroph_interaction:ARG:68    0
Name: 2, dtype: object

>  <hbond:ARG:68>  (3) 
hbond:ARG:68    0
hbond:ARG:68    0
Name: 2, dtype: object

>  <saltbridge:ARG:68>  (3) 
saltbridge:ARG:68    0
saltbridge:ARG:68    0
Name: 2, dtype: object

>  <pication:ARG:68>  (3) 
pication:ARG:68    0
pication:ARG:68    0
Name: 2, dtype: object

>  <hydroph_interaction:TYR:72>  (3) 
hydroph_interaction:TYR:72    0
hydroph_interaction:TYR:72    0
Name: 2, dtype: object

>  <hydroph_interaction:VAL:74>  (3) 
hydroph_interaction:VAL:74    0
hydroph_interaction:VAL:74    0
Name: 2, dtype: object

>  <hydroph_interaction:PHE:76>  (3) 
hydroph_interaction:PHE:76    0
hydroph_interaction:PHE:76    0
Name: 2, dtype: object

>  <hbond:SER:77>  (3) 
hbond:SER:77    0
hbond:SER:77    0
Name: 2, dtype: object

>  <hbond:SER:80>  (3) 
hbond:SER:80    0
hbond:SER:80    0
Name: 2, dtype: object

>  <hbond:LEU:81>  (3) 
hbond:LEU:81    0
hbond:LEU:81    0
Name: 2, dtype: object

>  <halogenbond:LEU:81>  (3) 
halogenbond:LEU:81    0
halogenbond:LEU:81    0
Name: 2, dtype: object

>  <hydroph_interaction:LEU:81>  (3) 
hydroph_interaction:LEU:81    0
hydroph_interaction:LEU:81    0
Name: 2, dtype: object

>  <hydroph_interaction:ILE:82>  (3) 
hydroph_interaction:ILE:82    0
hydroph_interaction:ILE:82    0
Name: 2, dtype: object

>  <hbond:ILE:82>  (3) 
hbond:ILE:82    0
hbond:ILE:82    0
Name: 2, dtype: object

>  <hydroph_interaction:PHE:83>  (3) 
hydroph_interaction:PHE:83    0
hydroph_interaction:PHE:83    0
Name: 2, dtype: object

>  <hbond:PHE:83>  (3) 
hbond:PHE:83    0
hbond:PHE:83    0
Name: 2, dtype: object

>  <halogenbond:PHE:83>  (3) 
halogenbond:PHE:83    0
halogenbond:PHE:83    0
Name: 2, dtype: object

>  <pistack:PHE:83>  (3) 
pistack:PHE:83    0
pistack:PHE:83    0
Name: 2, dtype: object

>  <hydroph_interaction:VAL:84>  (3) 
hydroph_interaction:VAL:84    0
hydroph_interaction:VAL:84    0
Name: 2, dtype: object

>  <hbond:VAL:84>  (3) 
hbond:VAL:84    0
hbond:VAL:84    0
Name: 2, dtype: object

>  <halogenbond:VAL:84>  (3) 
halogenbond:VAL:84    0
halogenbond:VAL:84    0
Name: 2, dtype: object

>  <hydroph_interaction:GLU:85>  (3) 
hydroph_interaction:GLU:85    0
hydroph_interaction:GLU:85    0
Name: 2, dtype: object

>  <hbond:GLU:85>  (3) 
hbond:GLU:85    0
hbond:GLU:85    0
Name: 2, dtype: object

>  <saltbridge:GLU:85>  (3) 
saltbridge:GLU:85    0
saltbridge:GLU:85    0
Name: 2, dtype: object

>  <halogenbond:GLU:85>  (3) 
halogenbond:GLU:85    0
halogenbond:GLU:85    0
Name: 2, dtype: object

>  <hbond:ALA:86>  (3) 
hbond:ALA:86    0
hbond:ALA:86    0
Name: 2, dtype: object

>  <halogenbond:ALA:86>  (3) 
halogenbond:ALA:86    0
halogenbond:ALA:86    0
Name: 2, dtype: object

>  <hydroph_interaction:ALA:86>  (3) 
hydroph_interaction:ALA:86    0
hydroph_interaction:ALA:86    0
Name: 2, dtype: object

>  <hbond:SER:87>  (3) 
hbond:SER:87    0
hbond:SER:87    0
Name: 2, dtype: object

>  <halogenbond:SER:87>  (3) 
halogenbond:SER:87    0
halogenbond:SER:87    0
Name: 2, dtype: object

>  <hbond:GLU:88>  (3) 
hbond:GLU:88    0
hbond:GLU:88    0
Name: 2, dtype: object

>  <hydroph_interaction:GLU:88>  (3) 
hydroph_interaction:GLU:88    0
hydroph_interaction:GLU:88    0
Name: 2, dtype: object

>  <halogenbond:GLU:88>  (3) 
halogenbond:GLU:88    0
halogenbond:GLU:88    0
Name: 2, dtype: object

>  <saltbridge:GLU:88>  (3) 
saltbridge:GLU:88    0
saltbridge:GLU:88    0
Name: 2, dtype: object

>  <hydroph_interaction:TYR:89>  (3) 
hydroph_interaction:TYR:89    0
hydroph_interaction:TYR:89    0
Name: 2, dtype: object

>  <pistack:TYR:89>  (3) 
pistack:TYR:89    0
pistack:TYR:89    0
Name: 2, dtype: object

>  <hbond:TYR:89>  (3) 
hbond:TYR:89    0
hbond:TYR:89    0
Name: 2, dtype: object

>  <halogenbond:TYR:89>  (3) 
halogenbond:TYR:89    0
halogenbond:TYR:89    0
Name: 2, dtype: object

>  <hbond:TYR:90>  (3) 
hbond:TYR:90    0
hbond:TYR:90    0
Name: 2, dtype: object

>  <hydroph_interaction:TYR:90>  (3) 
hydroph_interaction:TYR:90    0
hydroph_interaction:TYR:90    0
Name: 2, dtype: object

>  <pistack:TYR:90>  (3) 
pistack:TYR:90    0
pistack:TYR:90    0
Name: 2, dtype: object

>  <halogenbond:TYR:90>  (3) 
halogenbond:TYR:90    0
halogenbond:TYR:90    0
Name: 2, dtype: object

>  <pication:TYR:90>  (3) 
pication:TYR:90    0
pication:TYR:90    0
Name: 2, dtype: object

>  <hydroph_interaction:PRO:91>  (3) 
hydroph_interaction:PRO:91    0
hydroph_interaction:PRO:91    0
Name: 2, dtype: object

>  <halogenbond:PRO:91>  (3) 
halogenbond:PRO:91    0
halogenbond:PRO:91    0
Name: 2, dtype: object

>  <hbond:PRO:91>  (3) 
hbond:PRO:91    0
hbond:PRO:91    0
Name: 2, dtype: object

>  <hydroph_interaction:ALA:92>  (3) 
hydroph_interaction:ALA:92    0
hydroph_interaction:ALA:92    0
Name: 2, dtype: object

>  <hbond:ARG:93>  (3) 
hbond:ARG:93    0
hbond:ARG:93    0
Name: 2, dtype: object

>  <pication:ARG:93>  (3) 
pication:ARG:93    0
pication:ARG:93    0
Name: 2, dtype: object

>  <saltbridge:ARG:93>  (3) 
saltbridge:ARG:93    0
saltbridge:ARG:93    0
Name: 2, dtype: object

>  <hydroph_interaction:ARG:93>  (3) 
hydroph_interaction:ARG:93    0
hydroph_interaction:ARG:93    0
Name: 2, dtype: object

>  <halogenbond:ARG:93>  (3) 
halogenbond:ARG:93    0
halogenbond:ARG:93    0
Name: 2, dtype: object

>  <hydroph_interaction:TYR:94>  (3) 
hydroph_interaction:TYR:94    0
hydroph_interaction:TYR:94    0
Name: 2, dtype: object

>  <hbond:TYR:94>  (3) 
hbond:TYR:94    0
hbond:TYR:94    0
Name: 2, dtype: object

>  <halogenbond:GLN:95>  (3) 
halogenbond:GLN:95    0
halogenbond:GLN:95    0
Name: 2, dtype: object

>  <hbond:GLN:95>  (3) 
hbond:GLN:95    0
hbond:GLN:95    0
Name: 2, dtype: object

>  <hydroph_interaction:GLN:95>  (3) 
hydroph_interaction:GLN:95    0
hydroph_interaction:GLN:95    0
Name: 2, dtype: object

>  <hbond:SER:96>  (3) 
hbond:SER:96    0
hbond:SER:96    0
Name: 2, dtype: object

>  <hydroph_interaction:LEU:98>  (3) 
hydroph_interaction:LEU:98    0
hydroph_interaction:LEU:98    0
Name: 2, dtype: object

>  <hbond:LEU:98>  (3) 
hbond:LEU:98    0
hbond:LEU:98    0
Name: 2, dtype: object

>  <hbond:MET:99>  (3) 
hbond:MET:99    0
hbond:MET:99    0
Name: 2, dtype: object

>  <hydroph_interaction:MET:99>  (3) 
hydroph_interaction:MET:99    0
hydroph_interaction:MET:99    0
Name: 2, dtype: object

>  <halogenbond:MET:99>  (3) 
halogenbond:MET:99    0
halogenbond:MET:99    0
Name: 2, dtype: object

>  <hydroph_interaction:LEU:100>  (3) 
hydroph_interaction:LEU:100    0
hydroph_interaction:LEU:100    0
Name: 2, dtype: object

>  <hbond:LEU:100>  (3) 
hbond:LEU:100    0
hbond:LEU:100    0
Name: 2, dtype: object

>  <hbond:ALA:101>  (3) 
hbond:ALA:101    0
hbond:ALA:101    0
Name: 2, dtype: object

>  <hydroph_interaction:ALA:101>  (3) 
hydroph_interaction:ALA:101    0
hydroph_interaction:ALA:101    0
Name: 2, dtype: object

>  <hydroph_interaction:VAL:102>  (3) 
hydroph_interaction:VAL:102    0
hydroph_interaction:VAL:102    0
Name: 2, dtype: object

>  <hbond:VAL:102>  (3) 
hbond:VAL:102    0
hbond:VAL:102    0
Name: 2, dtype: object

>  <hbond:GLY:103>  (3) 
hbond:GLY:103    0
hbond:GLY:103    0
Name: 2, dtype: object

>  <halogenbond:GLY:103>  (3) 
halogenbond:GLY:103    0
halogenbond:GLY:103    0
Name: 2, dtype: object

>  <hydroph_interaction:HIS:104>  (3) 
hydroph_interaction:HIS:104    0
hydroph_interaction:HIS:104    0
Name: 2, dtype: object

>  <hbond:HIS:104>  (3) 
hbond:HIS:104    0
hbond:HIS:104    0
Name: 2, dtype: object

>  <saltbridge:HIS:104>  (3) 
saltbridge:HIS:104    0
saltbridge:HIS:104    0
Name: 2, dtype: object

>  <pication:HIS:104>  (3) 
pication:HIS:104    0
pication:HIS:104    0
Name: 2, dtype: object

>  <pistack:HIS:104>  (3) 
pistack:HIS:104    0
pistack:HIS:104    0
Name: 2, dtype: object

>  <halogenbond:HIS:104>  (3) 
halogenbond:HIS:104    0
halogenbond:HIS:104    0
Name: 2, dtype: object

>  <hbond:SER:105>  (3) 
hbond:SER:105    0
hbond:SER:105    0
Name: 2, dtype: object

>  <halogenbond:SER:105>  (3) 
halogenbond:SER:105    0
halogenbond:SER:105    0
Name: 2, dtype: object

>  <hbond:GLU:106>  (3) 
hbond:GLU:106    0
hbond:GLU:106    0
Name: 2, dtype: object

>  <hydroph_interaction:GLU:106>  (3) 
hydroph_interaction:GLU:106    0
hydroph_interaction:GLU:106    0
Name: 2, dtype: object

>  <saltbridge:GLU:106>  (3) 
saltbridge:GLU:106    0
saltbridge:GLU:106    0
Name: 2, dtype: object

>  <halogenbond:GLU:106>  (3) 
halogenbond:GLU:106    0
halogenbond:GLU:106    0
Name: 2, dtype: object

>  <hydroph_interaction:PRO:107>  (3) 
hydroph_interaction:PRO:107    1
hydroph_interaction:PRO:107    1
Name: 2, dtype: object

>  <hbond:PRO:107>  (3) 
hbond:PRO:107    0
hbond:PRO:107    0
Name: 2, dtype: object

>  <halogenbond:PRO:107>  (3) 
halogenbond:PRO:107    0
halogenbond:PRO:107    0
Name: 2, dtype: object

>  <hbond:GLY:108>  (3) 
hbond:GLY:108    0
hbond:GLY:108    0
Name: 2, dtype: object

>  <halogenbond:GLY:108>  (3) 
halogenbond:GLY:108    0
halogenbond:GLY:108    0
Name: 2, dtype: object

>  <hbond:ASP:109>  (3) 
hbond:ASP:109    0
hbond:ASP:109    0
Name: 2, dtype: object

>  <hydroph_interaction:ASP:109>  (3) 
hydroph_interaction:ASP:109    0
hydroph_interaction:ASP:109    0
Name: 2, dtype: object

>  <saltbridge:ASP:109>  (3) 
saltbridge:ASP:109    0
saltbridge:ASP:109    0
Name: 2, dtype: object

>  <hbond:CYS:110>  (3) 
hbond:CYS:110    0
hbond:CYS:110    0
Name: 2, dtype: object

>  <halogenbond:CYS:110>  (3) 
halogenbond:CYS:110    0
halogenbond:CYS:110    0
Name: 2, dtype: object

>  <hbond:GLY:111>  (3) 
hbond:GLY:111    0
hbond:GLY:111    0
Name: 2, dtype: object

>  <hbond:GLY:112>  (3) 
hbond:GLY:112    0
hbond:GLY:112    0
Name: 2, dtype: object

>  <hbond:ILE:113>  (3) 
hbond:ILE:113    0
hbond:ILE:113    0
Name: 2, dtype: object

>  <hydroph_interaction:LEU:114>  (3) 
hydroph_interaction:LEU:114    0
hydroph_interaction:LEU:114    0
Name: 2, dtype: object

>  <hbond:LEU:114>  (3) 
hbond:LEU:114    0
hbond:LEU:114    0
Name: 2, dtype: object

>  <hydroph_interaction:ILE:123>  (3) 
hydroph_interaction:ILE:123    0
hydroph_interaction:ILE:123    0
Name: 2, dtype: object

>  <hbond:ILE:123>  (3) 
hbond:ILE:123    0
hbond:ILE:123    0
Name: 2, dtype: object

>  <hydroph_interaction:VAL:124>  (3) 
hydroph_interaction:VAL:124    1
hydroph_interaction:VAL:124    1
Name: 2, dtype: object

>  <hbond:VAL:124>  (3) 
hbond:VAL:124    0
hbond:VAL:124    0
Name: 2, dtype: object

>  <halogenbond:VAL:124>  (3) 
halogenbond:VAL:124    0
halogenbond:VAL:124    0
Name: 2, dtype: object

>  <hbond:SER:125>  (3) 
hbond:SER:125    0
hbond:SER:125    0
Name: 2, dtype: object

>  <halogenbond:SER:125>  (3) 
halogenbond:SER:125    0
halogenbond:SER:125    0
Name: 2, dtype: object

>  <hydroph_interaction:THR:126>  (3) 
hydroph_interaction:THR:126    0
hydroph_interaction:THR:126    0
Name: 2, dtype: object

>  <hbond:THR:126>  (3) 
hbond:THR:126    0
hbond:THR:126    0
Name: 2, dtype: object

>  <halogenbond:THR:126>  (3) 
halogenbond:THR:126    0
halogenbond:THR:126    0
Name: 2, dtype: object

>  <hbond:GLY:127>  (3) 
hbond:GLY:127    0
hbond:GLY:127    0
Name: 2, dtype: object

>  <halogenbond:GLY:127>  (3) 
halogenbond:GLY:127    1
halogenbond:GLY:127    1
Name: 2, dtype: object

>  <hydroph_interaction:GLY:127>  (3) 
hydroph_interaction:GLY:127    0
hydroph_interaction:GLY:127    0
Name: 2, dtype: object

>  <hbond:GLY:128>  (3) 
hbond:GLY:128    0
hbond:GLY:128    0
Name: 2, dtype: object

>  <halogenbond:GLY:128>  (3) 
halogenbond:GLY:128    0
halogenbond:GLY:128    0
Name: 2, dtype: object

>  <hydroph_interaction:GLY:128>  (3) 
hydroph_interaction:GLY:128    0
hydroph_interaction:GLY:128    0
Name: 2, dtype: object

>  <hbond:ASN:129>  (3) 
hbond:ASN:129    0
hbond:ASN:129    0
Name: 2, dtype: object

>  <hydroph_interaction:ASN:129>  (3) 
hydroph_interaction:ASN:129    0
hydroph_interaction:ASN:129    0
Name: 2, dtype: object

>  <halogenbond:ASN:129>  (3) 
halogenbond:ASN:129    0
halogenbond:ASN:129    0
Name: 2, dtype: object

>  <hbond:GLY:130>  (3) 
hbond:GLY:130    0
hbond:GLY:130    0
Name: 2, dtype: object

>  <hydroph_interaction:LEU:131>  (3) 
hydroph_interaction:LEU:131    0
hydroph_interaction:LEU:131    0
Name: 2, dtype: object

>  <hbond:LEU:131>  (3) 
hbond:LEU:131    0
hbond:LEU:131    0
Name: 2, dtype: object

>  <halogenbond:LEU:131>  (3) 
halogenbond:LEU:131    0
halogenbond:LEU:131    0
Name: 2, dtype: object

>  <hydroph_interaction:VAL:132>  (3) 
hydroph_interaction:VAL:132    0
hydroph_interaction:VAL:132    0
Name: 2, dtype: object

>  <hbond:VAL:132>  (3) 
hbond:VAL:132    0
hbond:VAL:132    0
Name: 2, dtype: object

>  <hbond:GLY:133>  (3) 
hbond:GLY:133    0
hbond:GLY:133    0
Name: 2, dtype: object

>  <halogenbond:GLY:133>  (3) 
halogenbond:GLY:133    0
halogenbond:GLY:133    0
Name: 2, dtype: object

>  <hydroph_interaction:PHE:134>  (3) 
hydroph_interaction:PHE:134    0
hydroph_interaction:PHE:134    0
Name: 2, dtype: object

>  <hbond:PHE:134>  (3) 
hbond:PHE:134    0
hbond:PHE:134    0
Name: 2, dtype: object

>  <pistack:PHE:134>  (3) 
pistack:PHE:134    0
pistack:PHE:134    0
Name: 2, dtype: object

>  <pication:PHE:134>  (3) 
pication:PHE:134    0
pication:PHE:134    0
Name: 2, dtype: object

>  <hydroph_interaction:ALA:135>  (3) 
hydroph_interaction:ALA:135    0
hydroph_interaction:ALA:135    0
Name: 2, dtype: object

>  <hbond:ALA:135>  (3) 
hbond:ALA:135    0
hbond:ALA:135    0
Name: 2, dtype: object

$$$$
Z1193332108
     RDKit          3D

 39 40  0  0  0  0  0  0  0  0999 V2000
   15.6750   19.1120   18.5200 C   0  0  0  0  0  0  0  0  0  0  0  0
   14.7670   18.0790   18.9000 O   0  0  0  0  0  0  0  0  0  0  0  0
   14.2980   17.4140   17.8070 C   0  0  0  0  0  0  0  0  0  0  0  0
   14.9960   17.2570   16.8210 O   0  0  0  0  0  0  0  0  0  0  0  0
   12.8840   17.0010   17.9430 C   0  0  0  0  0  0  0  0  0  0  0  0
   12.3480   16.3780   19.1970 C   0  0  0  0  0  0  0  0  0  0  0  0
   12.9780   16.1030   20.2290 O   0  0  0  0  0  0  0  0  0  0  0  0
   12.4130   14.9890   20.9570 C   0  0  0  0  0  0  0  0  0  0  0  0
   12.4500   14.8910   22.3700 C   0  0  0  0  0  0  0  0  0  0  0  0
   13.3950   15.2580   23.0470 O   0  0  0  0  0  0  0  0  0  0  0  0
   11.3250   14.3240   22.9640 N   0  0  0  0  0  0  0  0  0  0  0  0
   10.7380   13.2100   22.2960 C   0  0  0  0  0  0  0  0  0  0  0  0
    9.8620   12.2390   23.1360 C   0  0  0  0  0  0  0  0  0  0  0  0
   10.0320   10.8770   22.9240 C   0  0  0  0  0  0  0  0  0  0  0  0
    9.2160    9.8600   23.6940 C   0  0  0  0  0  0  0  0  0  0  0  0
    8.2380   10.4350   24.6710 C   0  0  0  0  0  0  0  0  0  0  0  0
    8.1260   11.8030   24.8250 C   0  0  0  0  0  0  0  0  0  0  0  0
    8.9190   12.6740   24.0760 C   0  0  0  0  0  0  0  0  0  0  0  0
    8.7500   13.9760   24.2850 F   0  0  0  0  0  0  0  0  0  0  0  0
   10.9520   16.1590   19.0520 C   0  0  0  0  0  0  0  0  0  0  0  0
   10.4880   16.5770   17.8020 C   0  0  0  0  0  0  0  0  0  0  0  0
    9.1550   16.5030   17.4530 C   0  0  0  0  0  0  0  0  0  0  0  0
   11.6720   17.2020   16.7450 S   0  0  0  0  0  0  0  0  0  0  0  0
   15.0850   19.9590   18.1640 H   0  0  0  0  0  0  0  0  0  0  0  0
   16.2730   19.4440   19.3730 H   0  0  0  0  0  0  0  0  0  0  0  0
   16.3170   18.7700   17.7040 H   0  0  0  0  0  0  0  0  0  0  0  0
   11.3780   14.8030   20.6450 H   0  0  0  0  0  0  0  0  0  0  0  0
   12.9780   14.1160   20.6060 H   0  0  0  0  0  0  0  0  0  0  0  0
   10.7140   14.9050   23.5260 H   0  0  0  0  0  0  0  0  0  0  0  0
   11.5920   12.6460   21.9360 H   0  0  0  0  0  0  0  0  0  0  0  0
   10.1700   13.5700   21.4310 H   0  0  0  0  0  0  0  0  0  0  0  0
   10.7570   10.5250   22.1970 H   0  0  0  0  0  0  0  0  0  0  0  0
    9.3310    8.8140   23.5500 H   0  0  0  0  0  0  0  0  0  0  0  0
    7.6130    9.7760   25.2620 H   0  0  0  0  0  0  0  0  0  0  0  0
    7.4180   12.2240   25.5320 H   0  0  0  0  0  0  0  0  0  0  0  0
   10.3160   15.7330   19.8180 H   0  0  0  0  0  0  0  0  0  0  0  0
    8.5550   16.6460   18.3540 H   0  0  0  0  0  0  0  0  0  0  0  0
    8.7890   17.2310   16.7360 H   0  0  0  0  0  0  0  0  0  0  0  0
    8.9280   15.5310   17.0530 H   0  0  0  0  0  0  0  0  0  0  0  0
  1  2  1  0
  2  3  1  0
  3  4  2  0
  3  5  1  0
  5  6  2  0
  6  7  1  0
  7  8  1  0
  8  9  1  0
  9 10  2  0
  9 11  1  0
 11 12  1  0
 12 13  1  0
 13 14  2  0
 14 15  1  0
 15 16  2  0
 16 17  1  0
 17 18  2  0
 18 19  1  0
  6 20  1  0
 20 21  2  0
 21 22  1  0
 21 23  1  0
 23  5  1  0
 18 13  1  0
  1 24  1  0
  1 25  1  0
  1 26  1  0
  8 27  1  0
  8 28  1  0
 11 29  1  0
 12 30  1  0
 12 31  1  0
 14 32  1  0
 15 33  1  0
 16 34  1  0
 17 35  1  0
 20 36  1  0
 22 37  1  0
 22 38  1  0
 22 39  1  0
A    1
 C1 
A    2
 O1 
A    3
 C2 
A    4
 O2 
A    5
 C3 
A    6
 C4 
A    7
 O3 
A    8
 C5 
A    9
 C6 
A   10
 O4 
A   11
 N1 
A   12
 C7 
A   13
 C8 
A   14
 C9 
A   15
 C10
A   16
 C11
A   17
 C12
A   18
 C13
A   19
 F1 
A   20
 C14
A   21
 C15
A   22
 C16
A   23
 S1 
A   24
 H1 
A   25
 H2 
A   26
 H3 
A   27
 H4 
A   28
 H5 
A   29
 H6 
A   30
 H7 
A   31
 H8 
A   32
 H9 
A   33
 H10
A   34
 H11
A   35
 H12
A   36
 H13
A   37
 H14
A   38
 H15
A   39
 H16
M  END
>  <ref_pdb>  (4) 
x0310_0A

>  <ref_mols>  (4) 
x0554_0A,x0732_0A

>  <original SMILES>  (4) 
COC(=O)c1sc(C)cc1OCC(=O)NCc1ccccc1F

>  <rationale>  (4) 
info halogenbond:S87; hbond:S87; hydroph_interaction:P107+Y90+T126+V84+Q95; saltbridge:H21; 

>  <intxn_cluster>  (4) 
204

>  <intxn_cluster_rank>  (4) 
1

>  <N_interactions>  (4) 
10

>  <∆∆G>  (4) 
-11.445446

>  <$/mg>  (4) 
163.0

>  <comRMSD>  (4) 
0.894205

>  <N_rotatable_bonds>  (4) 
8

>  <N_analogues_07>  (4) 
0

>  <deep_P1_sidechain>  (4) 
False

>  <farthest_distance_to_substrate>  (4) 
3.400807

>  <hbond:SER:7>  (4) 
hbond:SER:7    0
hbond:SER:7    0
Name: 3, dtype: object

>  <halogenbond:SER:7>  (4) 
halogenbond:SER:7    0
halogenbond:SER:7    0
Name: 3, dtype: object

>  <hbond:GLY:8>  (4) 
hbond:GLY:8    0
hbond:GLY:8    0
Name: 3, dtype: object

>  <hydroph_interaction:ASN:19>  (4) 
hydroph_interaction:ASN:19    0
hydroph_interaction:ASN:19    0
Name: 3, dtype: object

>  <hbond:ASN:19>  (4) 
hbond:ASN:19    0
hbond:ASN:19    0
Name: 3, dtype: object

>  <halogenbond:ASN:19>  (4) 
halogenbond:ASN:19    0
halogenbond:ASN:19    0
Name: 3, dtype: object

>  <hbond:ARG:20>  (4) 
hbond:ARG:20    0
hbond:ARG:20    0
Name: 3, dtype: object

>  <hydroph_interaction:ARG:20>  (4) 
hydroph_interaction:ARG:20    0
hydroph_interaction:ARG:20    0
Name: 3, dtype: object

>  <saltbridge:ARG:20>  (4) 
saltbridge:ARG:20    0
saltbridge:ARG:20    0
Name: 3, dtype: object

>  <halogenbond:ARG:20>  (4) 
halogenbond:ARG:20    0
halogenbond:ARG:20    0
Name: 3, dtype: object

>  <pication:ARG:20>  (4) 
pication:ARG:20    0
pication:ARG:20    0
Name: 3, dtype: object

>  <hbond:HIS:21>  (4) 
hbond:HIS:21    0
hbond:HIS:21    0
Name: 3, dtype: object

>  <hydroph_interaction:HIS:21>  (4) 
hydroph_interaction:HIS:21    0
hydroph_interaction:HIS:21    0
Name: 3, dtype: object

>  <saltbridge:HIS:21>  (4) 
saltbridge:HIS:21    1
saltbridge:HIS:21    1
Name: 3, dtype: object

>  <pistack:HIS:21>  (4) 
pistack:HIS:21    0
pistack:HIS:21    0
Name: 3, dtype: object

>  <pication:HIS:21>  (4) 
pication:HIS:21    0
pication:HIS:21    0
Name: 3, dtype: object

>  <halogenbond:HIS:21>  (4) 
halogenbond:HIS:21    0
halogenbond:HIS:21    0
Name: 3, dtype: object

>  <hydroph_interaction:LEU:22>  (4) 
hydroph_interaction:LEU:22    0
hydroph_interaction:LEU:22    0
Name: 3, dtype: object

>  <hbond:LEU:22>  (4) 
hbond:LEU:22    0
hbond:LEU:22    0
Name: 3, dtype: object

>  <hydroph_interaction:TRP:28>  (4) 
hydroph_interaction:TRP:28    0
hydroph_interaction:TRP:28    0
Name: 3, dtype: object

>  <hbond:SER:36>  (4) 
hbond:SER:36    0
hbond:SER:36    0
Name: 3, dtype: object

>  <halogenbond:SER:36>  (4) 
halogenbond:SER:36    0
halogenbond:SER:36    0
Name: 3, dtype: object

>  <hbond:ARG:38>  (4) 
hbond:ARG:38    0
hbond:ARG:38    0
Name: 3, dtype: object

>  <halogenbond:ARG:38>  (4) 
halogenbond:ARG:38    0
halogenbond:ARG:38    0
Name: 3, dtype: object

>  <hbond:ASP:39>  (4) 
hbond:ASP:39    0
hbond:ASP:39    0
Name: 3, dtype: object

>  <saltbridge:ASP:39>  (4) 
saltbridge:ASP:39    0
saltbridge:ASP:39    0
Name: 3, dtype: object

>  <hydroph_interaction:ASP:39>  (4) 
hydroph_interaction:ASP:39    0
hydroph_interaction:ASP:39    0
Name: 3, dtype: object

>  <halogenbond:ASP:39>  (4) 
halogenbond:ASP:39    0
halogenbond:ASP:39    0
Name: 3, dtype: object

>  <hydroph_interaction:LEU:40>  (4) 
hydroph_interaction:LEU:40    0
hydroph_interaction:LEU:40    0
Name: 3, dtype: object

>  <hydroph_interaction:TYR:63>  (4) 
hydroph_interaction:TYR:63    0
hydroph_interaction:TYR:63    0
Name: 3, dtype: object

>  <pistack:TYR:63>  (4) 
pistack:TYR:63    0
pistack:TYR:63    0
Name: 3, dtype: object

>  <hbond:TYR:63>  (4) 
hbond:TYR:63    0
hbond:TYR:63    0
Name: 3, dtype: object

>  <hbond:TYR:64>  (4) 
hbond:TYR:64    0
hbond:TYR:64    0
Name: 3, dtype: object

>  <halogenbond:TYR:64>  (4) 
halogenbond:TYR:64    0
halogenbond:TYR:64    0
Name: 3, dtype: object

>  <hydroph_interaction:TYR:64>  (4) 
hydroph_interaction:TYR:64    0
hydroph_interaction:TYR:64    0
Name: 3, dtype: object

>  <hbond:CYS:65>  (4) 
hbond:CYS:65    0
hbond:CYS:65    0
Name: 3, dtype: object

>  <halogenbond:CYS:65>  (4) 
halogenbond:CYS:65    0
halogenbond:CYS:65    0
Name: 3, dtype: object

>  <hbond:SER:66>  (4) 
hbond:SER:66    0
hbond:SER:66    0
Name: 3, dtype: object

>  <hbond:SER:67>  (4) 
hbond:SER:67    0
hbond:SER:67    0
Name: 3, dtype: object

>  <halogenbond:SER:67>  (4) 
halogenbond:SER:67    0
halogenbond:SER:67    0
Name: 3, dtype: object

>  <hydroph_interaction:ARG:68>  (4) 
hydroph_interaction:ARG:68    0
hydroph_interaction:ARG:68    0
Name: 3, dtype: object

>  <hbond:ARG:68>  (4) 
hbond:ARG:68    0
hbond:ARG:68    0
Name: 3, dtype: object

>  <saltbridge:ARG:68>  (4) 
saltbridge:ARG:68    0
saltbridge:ARG:68    0
Name: 3, dtype: object

>  <pication:ARG:68>  (4) 
pication:ARG:68    0
pication:ARG:68    0
Name: 3, dtype: object

>  <hydroph_interaction:TYR:72>  (4) 
hydroph_interaction:TYR:72    0
hydroph_interaction:TYR:72    0
Name: 3, dtype: object

>  <hydroph_interaction:VAL:74>  (4) 
hydroph_interaction:VAL:74    0
hydroph_interaction:VAL:74    0
Name: 3, dtype: object

>  <hydroph_interaction:PHE:76>  (4) 
hydroph_interaction:PHE:76    0
hydroph_interaction:PHE:76    0
Name: 3, dtype: object

>  <hbond:SER:77>  (4) 
hbond:SER:77    0
hbond:SER:77    0
Name: 3, dtype: object

>  <hbond:SER:80>  (4) 
hbond:SER:80    0
hbond:SER:80    0
Name: 3, dtype: object

>  <hbond:LEU:81>  (4) 
hbond:LEU:81    0
hbond:LEU:81    0
Name: 3, dtype: object

>  <halogenbond:LEU:81>  (4) 
halogenbond:LEU:81    0
halogenbond:LEU:81    0
Name: 3, dtype: object

>  <hydroph_interaction:LEU:81>  (4) 
hydroph_interaction:LEU:81    0
hydroph_interaction:LEU:81    0
Name: 3, dtype: object

>  <hydroph_interaction:ILE:82>  (4) 
hydroph_interaction:ILE:82    0
hydroph_interaction:ILE:82    0
Name: 3, dtype: object

>  <hbond:ILE:82>  (4) 
hbond:ILE:82    0
hbond:ILE:82    0
Name: 3, dtype: object

>  <hydroph_interaction:PHE:83>  (4) 
hydroph_interaction:PHE:83    0
hydroph_interaction:PHE:83    0
Name: 3, dtype: object

>  <hbond:PHE:83>  (4) 
hbond:PHE:83    0
hbond:PHE:83    0
Name: 3, dtype: object

>  <halogenbond:PHE:83>  (4) 
halogenbond:PHE:83    0
halogenbond:PHE:83    0
Name: 3, dtype: object

>  <pistack:PHE:83>  (4) 
pistack:PHE:83    0
pistack:PHE:83    0
Name: 3, dtype: object

>  <hydroph_interaction:VAL:84>  (4) 
hydroph_interaction:VAL:84    1
hydroph_interaction:VAL:84    1
Name: 3, dtype: object

>  <hbond:VAL:84>  (4) 
hbond:VAL:84    0
hbond:VAL:84    0
Name: 3, dtype: object

>  <halogenbond:VAL:84>  (4) 
halogenbond:VAL:84    0
halogenbond:VAL:84    0
Name: 3, dtype: object

>  <hydroph_interaction:GLU:85>  (4) 
hydroph_interaction:GLU:85    0
hydroph_interaction:GLU:85    0
Name: 3, dtype: object

>  <hbond:GLU:85>  (4) 
hbond:GLU:85    0
hbond:GLU:85    0
Name: 3, dtype: object

>  <saltbridge:GLU:85>  (4) 
saltbridge:GLU:85    0
saltbridge:GLU:85    0
Name: 3, dtype: object

>  <halogenbond:GLU:85>  (4) 
halogenbond:GLU:85    0
halogenbond:GLU:85    0
Name: 3, dtype: object

>  <hbond:ALA:86>  (4) 
hbond:ALA:86    0
hbond:ALA:86    0
Name: 3, dtype: object

>  <halogenbond:ALA:86>  (4) 
halogenbond:ALA:86    0
halogenbond:ALA:86    0
Name: 3, dtype: object

>  <hydroph_interaction:ALA:86>  (4) 
hydroph_interaction:ALA:86    0
hydroph_interaction:ALA:86    0
Name: 3, dtype: object

>  <hbond:SER:87>  (4) 
hbond:SER:87    2
hbond:SER:87    2
Name: 3, dtype: object

>  <halogenbond:SER:87>  (4) 
halogenbond:SER:87    1
halogenbond:SER:87    1
Name: 3, dtype: object

>  <hbond:GLU:88>  (4) 
hbond:GLU:88    0
hbond:GLU:88    0
Name: 3, dtype: object

>  <hydroph_interaction:GLU:88>  (4) 
hydroph_interaction:GLU:88    0
hydroph_interaction:GLU:88    0
Name: 3, dtype: object

>  <halogenbond:GLU:88>  (4) 
halogenbond:GLU:88    0
halogenbond:GLU:88    0
Name: 3, dtype: object

>  <saltbridge:GLU:88>  (4) 
saltbridge:GLU:88    0
saltbridge:GLU:88    0
Name: 3, dtype: object

>  <hydroph_interaction:TYR:89>  (4) 
hydroph_interaction:TYR:89    0
hydroph_interaction:TYR:89    0
Name: 3, dtype: object

>  <pistack:TYR:89>  (4) 
pistack:TYR:89    0
pistack:TYR:89    0
Name: 3, dtype: object

>  <hbond:TYR:89>  (4) 
hbond:TYR:89    0
hbond:TYR:89    0
Name: 3, dtype: object

>  <halogenbond:TYR:89>  (4) 
halogenbond:TYR:89    0
halogenbond:TYR:89    0
Name: 3, dtype: object

>  <hbond:TYR:90>  (4) 
hbond:TYR:90    0
hbond:TYR:90    0
Name: 3, dtype: object

>  <hydroph_interaction:TYR:90>  (4) 
hydroph_interaction:TYR:90    2
hydroph_interaction:TYR:90    2
Name: 3, dtype: object

>  <pistack:TYR:90>  (4) 
pistack:TYR:90    0
pistack:TYR:90    0
Name: 3, dtype: object

>  <halogenbond:TYR:90>  (4) 
halogenbond:TYR:90    0
halogenbond:TYR:90    0
Name: 3, dtype: object

>  <pication:TYR:90>  (4) 
pication:TYR:90    0
pication:TYR:90    0
Name: 3, dtype: object

>  <hydroph_interaction:PRO:91>  (4) 
hydroph_interaction:PRO:91    0
hydroph_interaction:PRO:91    0
Name: 3, dtype: object

>  <halogenbond:PRO:91>  (4) 
halogenbond:PRO:91    0
halogenbond:PRO:91    0
Name: 3, dtype: object

>  <hbond:PRO:91>  (4) 
hbond:PRO:91    0
hbond:PRO:91    0
Name: 3, dtype: object

>  <hydroph_interaction:ALA:92>  (4) 
hydroph_interaction:ALA:92    0
hydroph_interaction:ALA:92    0
Name: 3, dtype: object

>  <hbond:ARG:93>  (4) 
hbond:ARG:93    0
hbond:ARG:93    0
Name: 3, dtype: object

>  <pication:ARG:93>  (4) 
pication:ARG:93    0
pication:ARG:93    0
Name: 3, dtype: object

>  <saltbridge:ARG:93>  (4) 
saltbridge:ARG:93    0
saltbridge:ARG:93    0
Name: 3, dtype: object

>  <hydroph_interaction:ARG:93>  (4) 
hydroph_interaction:ARG:93    0
hydroph_interaction:ARG:93    0
Name: 3, dtype: object

>  <halogenbond:ARG:93>  (4) 
halogenbond:ARG:93    0
halogenbond:ARG:93    0
Name: 3, dtype: object

>  <hydroph_interaction:TYR:94>  (4) 
hydroph_interaction:TYR:94    0
hydroph_interaction:TYR:94    0
Name: 3, dtype: object

>  <hbond:TYR:94>  (4) 
hbond:TYR:94    0
hbond:TYR:94    0
Name: 3, dtype: object

>  <halogenbond:GLN:95>  (4) 
halogenbond:GLN:95    0
halogenbond:GLN:95    0
Name: 3, dtype: object

>  <hbond:GLN:95>  (4) 
hbond:GLN:95    0
hbond:GLN:95    0
Name: 3, dtype: object

>  <hydroph_interaction:GLN:95>  (4) 
hydroph_interaction:GLN:95    1
hydroph_interaction:GLN:95    1
Name: 3, dtype: object

>  <hbond:SER:96>  (4) 
hbond:SER:96    0
hbond:SER:96    0
Name: 3, dtype: object

>  <hydroph_interaction:LEU:98>  (4) 
hydroph_interaction:LEU:98    0
hydroph_interaction:LEU:98    0
Name: 3, dtype: object

>  <hbond:LEU:98>  (4) 
hbond:LEU:98    0
hbond:LEU:98    0
Name: 3, dtype: object

>  <hbond:MET:99>  (4) 
hbond:MET:99    0
hbond:MET:99    0
Name: 3, dtype: object

>  <hydroph_interaction:MET:99>  (4) 
hydroph_interaction:MET:99    0
hydroph_interaction:MET:99    0
Name: 3, dtype: object

>  <halogenbond:MET:99>  (4) 
halogenbond:MET:99    0
halogenbond:MET:99    0
Name: 3, dtype: object

>  <hydroph_interaction:LEU:100>  (4) 
hydroph_interaction:LEU:100    0
hydroph_interaction:LEU:100    0
Name: 3, dtype: object

>  <hbond:LEU:100>  (4) 
hbond:LEU:100    0
hbond:LEU:100    0
Name: 3, dtype: object

>  <hbond:ALA:101>  (4) 
hbond:ALA:101    0
hbond:ALA:101    0
Name: 3, dtype: object

>  <hydroph_interaction:ALA:101>  (4) 
hydroph_interaction:ALA:101    0
hydroph_interaction:ALA:101    0
Name: 3, dtype: object

>  <hydroph_interaction:VAL:102>  (4) 
hydroph_interaction:VAL:102    0
hydroph_interaction:VAL:102    0
Name: 3, dtype: object

>  <hbond:VAL:102>  (4) 
hbond:VAL:102    0
hbond:VAL:102    0
Name: 3, dtype: object

>  <hbond:GLY:103>  (4) 
hbond:GLY:103    0
hbond:GLY:103    0
Name: 3, dtype: object

>  <halogenbond:GLY:103>  (4) 
halogenbond:GLY:103    0
halogenbond:GLY:103    0
Name: 3, dtype: object

>  <hydroph_interaction:HIS:104>  (4) 
hydroph_interaction:HIS:104    0
hydroph_interaction:HIS:104    0
Name: 3, dtype: object

>  <hbond:HIS:104>  (4) 
hbond:HIS:104    0
hbond:HIS:104    0
Name: 3, dtype: object

>  <saltbridge:HIS:104>  (4) 
saltbridge:HIS:104    0
saltbridge:HIS:104    0
Name: 3, dtype: object

>  <pication:HIS:104>  (4) 
pication:HIS:104    0
pication:HIS:104    0
Name: 3, dtype: object

>  <pistack:HIS:104>  (4) 
pistack:HIS:104    0
pistack:HIS:104    0
Name: 3, dtype: object

>  <halogenbond:HIS:104>  (4) 
halogenbond:HIS:104    0
halogenbond:HIS:104    0
Name: 3, dtype: object

>  <hbond:SER:105>  (4) 
hbond:SER:105    0
hbond:SER:105    0
Name: 3, dtype: object

>  <halogenbond:SER:105>  (4) 
halogenbond:SER:105    0
halogenbond:SER:105    0
Name: 3, dtype: object

>  <hbond:GLU:106>  (4) 
hbond:GLU:106    0
hbond:GLU:106    0
Name: 3, dtype: object

>  <hydroph_interaction:GLU:106>  (4) 
hydroph_interaction:GLU:106    0
hydroph_interaction:GLU:106    0
Name: 3, dtype: object

>  <saltbridge:GLU:106>  (4) 
saltbridge:GLU:106    0
saltbridge:GLU:106    0
Name: 3, dtype: object

>  <halogenbond:GLU:106>  (4) 
halogenbond:GLU:106    0
halogenbond:GLU:106    0
Name: 3, dtype: object

>  <hydroph_interaction:PRO:107>  (4) 
hydroph_interaction:PRO:107    1
hydroph_interaction:PRO:107    1
Name: 3, dtype: object

>  <hbond:PRO:107>  (4) 
hbond:PRO:107    0
hbond:PRO:107    0
Name: 3, dtype: object

>  <halogenbond:PRO:107>  (4) 
halogenbond:PRO:107    0
halogenbond:PRO:107    0
Name: 3, dtype: object

>  <hbond:GLY:108>  (4) 
hbond:GLY:108    0
hbond:GLY:108    0
Name: 3, dtype: object

>  <halogenbond:GLY:108>  (4) 
halogenbond:GLY:108    0
halogenbond:GLY:108    0
Name: 3, dtype: object

>  <hbond:ASP:109>  (4) 
hbond:ASP:109    0
hbond:ASP:109    0
Name: 3, dtype: object

>  <hydroph_interaction:ASP:109>  (4) 
hydroph_interaction:ASP:109    0
hydroph_interaction:ASP:109    0
Name: 3, dtype: object

>  <saltbridge:ASP:109>  (4) 
saltbridge:ASP:109    0
saltbridge:ASP:109    0
Name: 3, dtype: object

>  <hbond:CYS:110>  (4) 
hbond:CYS:110    0
hbond:CYS:110    0
Name: 3, dtype: object

>  <halogenbond:CYS:110>  (4) 
halogenbond:CYS:110    0
halogenbond:CYS:110    0
Name: 3, dtype: object

>  <hbond:GLY:111>  (4) 
hbond:GLY:111    0
hbond:GLY:111    0
Name: 3, dtype: object

>  <hbond:GLY:112>  (4) 
hbond:GLY:112    0
hbond:GLY:112    0
Name: 3, dtype: object

>  <hbond:ILE:113>  (4) 
hbond:ILE:113    0
hbond:ILE:113    0
Name: 3, dtype: object

>  <hydroph_interaction:LEU:114>  (4) 
hydroph_interaction:LEU:114    0
hydroph_interaction:LEU:114    0
Name: 3, dtype: object

>  <hbond:LEU:114>  (4) 
hbond:LEU:114    0
hbond:LEU:114    0
Name: 3, dtype: object

>  <hydroph_interaction:ILE:123>  (4) 
hydroph_interaction:ILE:123    0
hydroph_interaction:ILE:123    0
Name: 3, dtype: object

>  <hbond:ILE:123>  (4) 
hbond:ILE:123    0
hbond:ILE:123    0
Name: 3, dtype: object

>  <hydroph_interaction:VAL:124>  (4) 
hydroph_interaction:VAL:124    0
hydroph_interaction:VAL:124    0
Name: 3, dtype: object

>  <hbond:VAL:124>  (4) 
hbond:VAL:124    0
hbond:VAL:124    0
Name: 3, dtype: object

>  <halogenbond:VAL:124>  (4) 
halogenbond:VAL:124    0
halogenbond:VAL:124    0
Name: 3, dtype: object

>  <hbond:SER:125>  (4) 
hbond:SER:125    0
hbond:SER:125    0
Name: 3, dtype: object

>  <halogenbond:SER:125>  (4) 
halogenbond:SER:125    0
halogenbond:SER:125    0
Name: 3, dtype: object

>  <hydroph_interaction:THR:126>  (4) 
hydroph_interaction:THR:126    1
hydroph_interaction:THR:126    1
Name: 3, dtype: object

>  <hbond:THR:126>  (4) 
hbond:THR:126    0
hbond:THR:126    0
Name: 3, dtype: object

>  <halogenbond:THR:126>  (4) 
halogenbond:THR:126    0
halogenbond:THR:126    0
Name: 3, dtype: object

>  <hbond:GLY:127>  (4) 
hbond:GLY:127    0
hbond:GLY:127    0
Name: 3, dtype: object

>  <halogenbond:GLY:127>  (4) 
halogenbond:GLY:127    0
halogenbond:GLY:127    0
Name: 3, dtype: object

>  <hydroph_interaction:GLY:127>  (4) 
hydroph_interaction:GLY:127    0
hydroph_interaction:GLY:127    0
Name: 3, dtype: object

>  <hbond:GLY:128>  (4) 
hbond:GLY:128    0
hbond:GLY:128    0
Name: 3, dtype: object

>  <halogenbond:GLY:128>  (4) 
halogenbond:GLY:128    0
halogenbond:GLY:128    0
Name: 3, dtype: object

>  <hydroph_interaction:GLY:128>  (4) 
hydroph_interaction:GLY:128    0
hydroph_interaction:GLY:128    0
Name: 3, dtype: object

>  <hbond:ASN:129>  (4) 
hbond:ASN:129    0
hbond:ASN:129    0
Name: 3, dtype: object

>  <hydroph_interaction:ASN:129>  (4) 
hydroph_interaction:ASN:129    0
hydroph_interaction:ASN:129    0
Name: 3, dtype: object

>  <halogenbond:ASN:129>  (4) 
halogenbond:ASN:129    0
halogenbond:ASN:129    0
Name: 3, dtype: object

>  <hbond:GLY:130>  (4) 
hbond:GLY:130    0
hbond:GLY:130    0
Name: 3, dtype: object

>  <hydroph_interaction:LEU:131>  (4) 
hydroph_interaction:LEU:131    0
hydroph_interaction:LEU:131    0
Name: 3, dtype: object

>  <hbond:LEU:131>  (4) 
hbond:LEU:131    0
hbond:LEU:131    0
Name: 3, dtype: object

>  <halogenbond:LEU:131>  (4) 
halogenbond:LEU:131    0
halogenbond:LEU:131    0
Name: 3, dtype: object

>  <hydroph_interaction:VAL:132>  (4) 
hydroph_interaction:VAL:132    0
hydroph_interaction:VAL:132    0
Name: 3, dtype: object

>  <hbond:VAL:132>  (4) 
hbond:VAL:132    0
hbond:VAL:132    0
Name: 3, dtype: object

>  <hbond:GLY:133>  (4) 
hbond:GLY:133    0
hbond:GLY:133    0
Name: 3, dtype: object

>  <halogenbond:GLY:133>  (4) 
halogenbond:GLY:133    0
halogenbond:GLY:133    0
Name: 3, dtype: object

>  <hydroph_interaction:PHE:134>  (4) 
hydroph_interaction:PHE:134    0
hydroph_interaction:PHE:134    0
Name: 3, dtype: object

>  <hbond:PHE:134>  (4) 
hbond:PHE:134    0
hbond:PHE:134    0
Name: 3, dtype: object

>  <pistack:PHE:134>  (4) 
pistack:PHE:134    0
pistack:PHE:134    0
Name: 3, dtype: object

>  <pication:PHE:134>  (4) 
pication:PHE:134    0
pication:PHE:134    0
Name: 3, dtype: object

>  <hydroph_interaction:ALA:135>  (4) 
hydroph_interaction:ALA:135    0
hydroph_interaction:ALA:135    0
Name: 3, dtype: object

>  <hbond:ALA:135>  (4) 
hbond:ALA:135    0
hbond:ALA:135    0
Name: 3, dtype: object

$$$$
Z5116054929
     RDKit          3D

 47 49  0  0  0  0  0  0  0  0999 V2000
    6.1960   13.6360   25.3620 C   0  0  0  0  0  0  0  0  0  0  0  0
    6.5770   12.5600   26.2390 N   0  0  0  0  0  0  0  0  0  0  0  0
    6.9110   11.3320   25.6980 C   0  0  0  0  0  0  0  0  0  0  0  0
    6.3820   10.2590   25.9000 O   0  0  0  0  0  0  0  0  0  0  0  0
    8.0760   11.3450   24.7190 C   0  0  0  0  0  0  0  0  0  0  0  0
    8.4990   10.1030   24.1520 C   0  0  0  0  0  0  0  0  0  0  0  0
    9.6430   10.2750   23.1870 C   0  0  0  0  0  0  0  0  0  0  0  0
   10.3020    9.2010   22.4220 C   0  0  0  0  0  0  0  0  0  0  0  0
   10.1690   11.5540   22.9580 C   0  0  0  0  0  0  0  0  0  0  0  0
    9.6460   12.6460   23.6100 C   0  0  0  0  0  0  0  0  0  0  0  0
   10.2180   13.8330   23.3630 N   0  0  0  0  0  0  0  0  0  0  0  0
   10.9800   14.3330   22.3590 C   0  0  0  0  0  0  0  0  0  0  0  0
   10.4540   14.8720   21.2300 C   0  0  0  0  0  0  0  0  0  0  0  0
   11.2460   15.4300   20.1680 C   0  0  0  0  0  0  0  0  0  0  0  0
   10.8330   15.9990   19.0470 N   0  0  0  0  0  0  0  0  0  0  0  0
    9.4940   16.4620   18.9710 C   0  0  0  0  0  0  0  0  0  0  0  0
    8.9220   17.0610   17.6810 C   0  0  0  0  0  0  0  0  0  0  0  0
   10.0240   17.4860   16.7200 C   0  0  0  0  0  0  0  0  0  0  0  0
   11.2360   16.5580   16.6400 C   0  0  0  0  0  0  0  0  0  0  0  0
   11.4300   15.5540   17.7980 C   0  0  0  0  0  0  0  0  0  0  0  0
   12.5880   15.3910   20.3230 N   0  0  0  0  0  0  0  0  0  0  0  0
   13.0400   14.8450   21.4620 C   0  0  0  0  0  0  0  0  0  0  0  0
   12.3640   14.3190   22.4830 N   0  0  0  0  0  0  0  0  0  0  0  0
    8.6220   12.5540   24.4640 C   0  0  0  0  0  0  0  0  0  0  0  0
    6.6130   14.5910   25.6970 H   0  0  0  0  0  0  0  0  0  0  0  0
    5.1030   13.7120   25.3330 H   0  0  0  0  0  0  0  0  0  0  0  0
    6.5500   13.4260   24.3470 H   0  0  0  0  0  0  0  0  0  0  0  0
    6.2230   12.5830   27.1850 H   0  0  0  0  0  0  0  0  0  0  0  0
    8.0540    9.1490   24.3740 H   0  0  0  0  0  0  0  0  0  0  0  0
   10.9310    9.6200   21.6410 H   0  0  0  0  0  0  0  0  0  0  0  0
   10.9360    8.5860   23.0710 H   0  0  0  0  0  0  0  0  0  0  0  0
    9.5680    8.5690   21.9270 H   0  0  0  0  0  0  0  0  0  0  0  0
   10.9930   11.6720   22.2690 H   0  0  0  0  0  0  0  0  0  0  0  0
   10.5080   14.2960   24.2200 H   0  0  0  0  0  0  0  0  0  0  0  0
    9.3590   14.8590   21.1910 H   0  0  0  0  0  0  0  0  0  0  0  0
    9.2740   17.1600   19.7830 H   0  0  0  0  0  0  0  0  0  0  0  0
    8.9070   15.5890   19.2260 H   0  0  0  0  0  0  0  0  0  0  0  0
    8.3070   17.9370   17.9130 H   0  0  0  0  0  0  0  0  0  0  0  0
    8.2810   16.3440   17.1800 H   0  0  0  0  0  0  0  0  0  0  0  0
   10.3340   18.4610   16.9930 H   0  0  0  0  0  0  0  0  0  0  0  0
    9.6350   17.6380   15.7390 H   0  0  0  0  0  0  0  0  0  0  0  0
   12.1040   17.1490   16.5560 H   0  0  0  0  0  0  0  0  0  0  0  0
   11.2350   16.0670   15.6850 H   0  0  0  0  0  0  0  0  0  0  0  0
   11.0170   14.5760   17.5640 H   0  0  0  0  0  0  0  0  0  0  0  0
   12.4910   15.3470   17.9450 H   0  0  0  0  0  0  0  0  0  0  0  0
   14.1180   14.8550   21.5290 H   0  0  0  0  0  0  0  0  0  0  0  0
    8.2350   13.4450   24.9540 H   0  0  0  0  0  0  0  0  0  0  0  0
  1  2  1  0
  2  3  1  0
  3  4  2  0
  3  5  1  0
  5  6  2  0
  6  7  1  0
  7  8  1  0
  7  9  2  0
  9 10  1  0
 10 11  1  0
 11 12  1  0
 12 13  2  0
 13 14  1  0
 14 15  1  0
 15 16  1  0
 16 17  1  0
 17 18  1  0
 18 19  1  0
 19 20  1  0
 14 21  2  0
 21 22  1  0
 22 23  2  0
 10 24  2  0
 24  5  1  0
 23 12  1  0
 20 15  1  0
  1 25  1  0
  1 26  1  0
  1 27  1  0
  2 28  1  0
  6 29  1  0
  8 30  1  0
  8 31  1  0
  8 32  1  0
  9 33  1  0
 11 34  1  0
 13 35  1  0
 16 36  1  0
 16 37  1  0
 17 38  1  0
 17 39  1  0
 18 40  1  0
 18 41  1  0
 19 42  1  0
 19 43  1  0
 20 44  1  0
 20 45  1  0
 22 46  1  0
 24 47  1  0
A    1
 C1 
A    2
 N1 
A    3
 C2 
A    4
 O1 
A    5
 C3 
A    6
 C4 
A    7
 C5 
A    8
 C6 
A    9
 C7 
A   10
 C8 
A   11
 N2 
A   12
 C9 
A   13
 C10
A   14
 C11
A   15
 N3 
A   16
 C12
A   17
 C13
A   18
 C14
A   19
 C15
A   20
 C16
A   21
 N4 
A   22
 C17
A   23
 N5 
A   24
 C18
A   25
 H1 
A   26
 H2 
A   27
 H3 
A   28
 H4 
A   29
 H5 
A   30
 H6 
A   31
 H7 
A   32
 H8 
A   33
 H9 
A   34
 H10
A   35
 H11
A   36
 H12
A   37
 H13
A   38
 H14
A   39
 H15
A   40
 H16
A   41
 H17
A   42
 H18
A   43
 H19
A   44
 H20
A   45
 H21
A   46
 H22
A   47
 H23
M  END
>  <ref_pdb>  (5) 
x0310_0A

>  <ref_mols>  (5) 
x0554_0A,x0739_0A

>  <original SMILES>  (5) 
CNC(=O)c1cc(C)cc(Nc2cc(N3CCCCC3)ncn2)c1

>  <rationale>  (5) 
info hbond:S87; hydroph_interaction:P107+V124+Y90+V84+D39+Q95; pistack:H21; 

>  <intxn_cluster>  (5) 
103

>  <intxn_cluster_rank>  (5) 
1

>  <N_interactions>  (5) 
12

>  <∆∆G>  (5) 
-9.341001

>  <$/mg>  (5) 
0.0

>  <comRMSD>  (5) 
0.785557

>  <N_rotatable_bonds>  (5) 
6

>  <N_analogues_07>  (5) 
4

>  <deep_P1_sidechain>  (5) 
True

>  <farthest_distance_to_substrate>  (5) 
3.403137

>  <hbond:SER:7>  (5) 
hbond:SER:7    0
hbond:SER:7    0
Name: 4, dtype: object

>  <halogenbond:SER:7>  (5) 
halogenbond:SER:7    0
halogenbond:SER:7    0
Name: 4, dtype: object

>  <hbond:GLY:8>  (5) 
hbond:GLY:8    0
hbond:GLY:8    0
Name: 4, dtype: object

>  <hydroph_interaction:ASN:19>  (5) 
hydroph_interaction:ASN:19    0
hydroph_interaction:ASN:19    0
Name: 4, dtype: object

>  <hbond:ASN:19>  (5) 
hbond:ASN:19    0
hbond:ASN:19    0
Name: 4, dtype: object

>  <halogenbond:ASN:19>  (5) 
halogenbond:ASN:19    0
halogenbond:ASN:19    0
Name: 4, dtype: object

>  <hbond:ARG:20>  (5) 
hbond:ARG:20    0
hbond:ARG:20    0
Name: 4, dtype: object

>  <hydroph_interaction:ARG:20>  (5) 
hydroph_interaction:ARG:20    0
hydroph_interaction:ARG:20    0
Name: 4, dtype: object

>  <saltbridge:ARG:20>  (5) 
saltbridge:ARG:20    0
saltbridge:ARG:20    0
Name: 4, dtype: object

>  <halogenbond:ARG:20>  (5) 
halogenbond:ARG:20    0
halogenbond:ARG:20    0
Name: 4, dtype: object

>  <pication:ARG:20>  (5) 
pication:ARG:20    0
pication:ARG:20    0
Name: 4, dtype: object

>  <hbond:HIS:21>  (5) 
hbond:HIS:21    0
hbond:HIS:21    0
Name: 4, dtype: object

>  <hydroph_interaction:HIS:21>  (5) 
hydroph_interaction:HIS:21    0
hydroph_interaction:HIS:21    0
Name: 4, dtype: object

>  <saltbridge:HIS:21>  (5) 
saltbridge:HIS:21    0
saltbridge:HIS:21    0
Name: 4, dtype: object

>  <pistack:HIS:21>  (5) 
pistack:HIS:21    1
pistack:HIS:21    1
Name: 4, dtype: object

>  <pication:HIS:21>  (5) 
pication:HIS:21    0
pication:HIS:21    0
Name: 4, dtype: object

>  <halogenbond:HIS:21>  (5) 
halogenbond:HIS:21    0
halogenbond:HIS:21    0
Name: 4, dtype: object

>  <hydroph_interaction:LEU:22>  (5) 
hydroph_interaction:LEU:22    0
hydroph_interaction:LEU:22    0
Name: 4, dtype: object

>  <hbond:LEU:22>  (5) 
hbond:LEU:22    0
hbond:LEU:22    0
Name: 4, dtype: object

>  <hydroph_interaction:TRP:28>  (5) 
hydroph_interaction:TRP:28    0
hydroph_interaction:TRP:28    0
Name: 4, dtype: object

>  <hbond:SER:36>  (5) 
hbond:SER:36    0
hbond:SER:36    0
Name: 4, dtype: object

>  <halogenbond:SER:36>  (5) 
halogenbond:SER:36    0
halogenbond:SER:36    0
Name: 4, dtype: object

>  <hbond:ARG:38>  (5) 
hbond:ARG:38    0
hbond:ARG:38    0
Name: 4, dtype: object

>  <halogenbond:ARG:38>  (5) 
halogenbond:ARG:38    0
halogenbond:ARG:38    0
Name: 4, dtype: object

>  <hbond:ASP:39>  (5) 
hbond:ASP:39    0
hbond:ASP:39    0
Name: 4, dtype: object

>  <saltbridge:ASP:39>  (5) 
saltbridge:ASP:39    0
saltbridge:ASP:39    0
Name: 4, dtype: object

>  <hydroph_interaction:ASP:39>  (5) 
hydroph_interaction:ASP:39    1
hydroph_interaction:ASP:39    1
Name: 4, dtype: object

>  <halogenbond:ASP:39>  (5) 
halogenbond:ASP:39    0
halogenbond:ASP:39    0
Name: 4, dtype: object

>  <hydroph_interaction:LEU:40>  (5) 
hydroph_interaction:LEU:40    0
hydroph_interaction:LEU:40    0
Name: 4, dtype: object

>  <hydroph_interaction:TYR:63>  (5) 
hydroph_interaction:TYR:63    0
hydroph_interaction:TYR:63    0
Name: 4, dtype: object

>  <pistack:TYR:63>  (5) 
pistack:TYR:63    0
pistack:TYR:63    0
Name: 4, dtype: object

>  <hbond:TYR:63>  (5) 
hbond:TYR:63    0
hbond:TYR:63    0
Name: 4, dtype: object

>  <hbond:TYR:64>  (5) 
hbond:TYR:64    0
hbond:TYR:64    0
Name: 4, dtype: object

>  <halogenbond:TYR:64>  (5) 
halogenbond:TYR:64    0
halogenbond:TYR:64    0
Name: 4, dtype: object

>  <hydroph_interaction:TYR:64>  (5) 
hydroph_interaction:TYR:64    0
hydroph_interaction:TYR:64    0
Name: 4, dtype: object

>  <hbond:CYS:65>  (5) 
hbond:CYS:65    0
hbond:CYS:65    0
Name: 4, dtype: object

>  <halogenbond:CYS:65>  (5) 
halogenbond:CYS:65    0
halogenbond:CYS:65    0
Name: 4, dtype: object

>  <hbond:SER:66>  (5) 
hbond:SER:66    0
hbond:SER:66    0
Name: 4, dtype: object

>  <hbond:SER:67>  (5) 
hbond:SER:67    0
hbond:SER:67    0
Name: 4, dtype: object

>  <halogenbond:SER:67>  (5) 
halogenbond:SER:67    0
halogenbond:SER:67    0
Name: 4, dtype: object

>  <hydroph_interaction:ARG:68>  (5) 
hydroph_interaction:ARG:68    0
hydroph_interaction:ARG:68    0
Name: 4, dtype: object

>  <hbond:ARG:68>  (5) 
hbond:ARG:68    0
hbond:ARG:68    0
Name: 4, dtype: object

>  <saltbridge:ARG:68>  (5) 
saltbridge:ARG:68    0
saltbridge:ARG:68    0
Name: 4, dtype: object

>  <pication:ARG:68>  (5) 
pication:ARG:68    0
pication:ARG:68    0
Name: 4, dtype: object

>  <hydroph_interaction:TYR:72>  (5) 
hydroph_interaction:TYR:72    0
hydroph_interaction:TYR:72    0
Name: 4, dtype: object

>  <hydroph_interaction:VAL:74>  (5) 
hydroph_interaction:VAL:74    0
hydroph_interaction:VAL:74    0
Name: 4, dtype: object

>  <hydroph_interaction:PHE:76>  (5) 
hydroph_interaction:PHE:76    0
hydroph_interaction:PHE:76    0
Name: 4, dtype: object

>  <hbond:SER:77>  (5) 
hbond:SER:77    0
hbond:SER:77    0
Name: 4, dtype: object

>  <hbond:SER:80>  (5) 
hbond:SER:80    0
hbond:SER:80    0
Name: 4, dtype: object

>  <hbond:LEU:81>  (5) 
hbond:LEU:81    0
hbond:LEU:81    0
Name: 4, dtype: object

>  <halogenbond:LEU:81>  (5) 
halogenbond:LEU:81    0
halogenbond:LEU:81    0
Name: 4, dtype: object

>  <hydroph_interaction:LEU:81>  (5) 
hydroph_interaction:LEU:81    0
hydroph_interaction:LEU:81    0
Name: 4, dtype: object

>  <hydroph_interaction:ILE:82>  (5) 
hydroph_interaction:ILE:82    0
hydroph_interaction:ILE:82    0
Name: 4, dtype: object

>  <hbond:ILE:82>  (5) 
hbond:ILE:82    0
hbond:ILE:82    0
Name: 4, dtype: object

>  <hydroph_interaction:PHE:83>  (5) 
hydroph_interaction:PHE:83    0
hydroph_interaction:PHE:83    0
Name: 4, dtype: object

>  <hbond:PHE:83>  (5) 
hbond:PHE:83    0
hbond:PHE:83    0
Name: 4, dtype: object

>  <halogenbond:PHE:83>  (5) 
halogenbond:PHE:83    0
halogenbond:PHE:83    0
Name: 4, dtype: object

>  <pistack:PHE:83>  (5) 
pistack:PHE:83    0
pistack:PHE:83    0
Name: 4, dtype: object

>  <hydroph_interaction:VAL:84>  (5) 
hydroph_interaction:VAL:84    1
hydroph_interaction:VAL:84    1
Name: 4, dtype: object

>  <hbond:VAL:84>  (5) 
hbond:VAL:84    0
hbond:VAL:84    0
Name: 4, dtype: object

>  <halogenbond:VAL:84>  (5) 
halogenbond:VAL:84    0
halogenbond:VAL:84    0
Name: 4, dtype: object

>  <hydroph_interaction:GLU:85>  (5) 
hydroph_interaction:GLU:85    0
hydroph_interaction:GLU:85    0
Name: 4, dtype: object

>  <hbond:GLU:85>  (5) 
hbond:GLU:85    0
hbond:GLU:85    0
Name: 4, dtype: object

>  <saltbridge:GLU:85>  (5) 
saltbridge:GLU:85    0
saltbridge:GLU:85    0
Name: 4, dtype: object

>  <halogenbond:GLU:85>  (5) 
halogenbond:GLU:85    0
halogenbond:GLU:85    0
Name: 4, dtype: object

>  <hbond:ALA:86>  (5) 
hbond:ALA:86    0
hbond:ALA:86    0
Name: 4, dtype: object

>  <halogenbond:ALA:86>  (5) 
halogenbond:ALA:86    0
halogenbond:ALA:86    0
Name: 4, dtype: object

>  <hydroph_interaction:ALA:86>  (5) 
hydroph_interaction:ALA:86    0
hydroph_interaction:ALA:86    0
Name: 4, dtype: object

>  <hbond:SER:87>  (5) 
hbond:SER:87    2
hbond:SER:87    2
Name: 4, dtype: object

>  <halogenbond:SER:87>  (5) 
halogenbond:SER:87    0
halogenbond:SER:87    0
Name: 4, dtype: object

>  <hbond:GLU:88>  (5) 
hbond:GLU:88    0
hbond:GLU:88    0
Name: 4, dtype: object

>  <hydroph_interaction:GLU:88>  (5) 
hydroph_interaction:GLU:88    0
hydroph_interaction:GLU:88    0
Name: 4, dtype: object

>  <halogenbond:GLU:88>  (5) 
halogenbond:GLU:88    0
halogenbond:GLU:88    0
Name: 4, dtype: object

>  <saltbridge:GLU:88>  (5) 
saltbridge:GLU:88    0
saltbridge:GLU:88    0
Name: 4, dtype: object

>  <hydroph_interaction:TYR:89>  (5) 
hydroph_interaction:TYR:89    0
hydroph_interaction:TYR:89    0
Name: 4, dtype: object

>  <pistack:TYR:89>  (5) 
pistack:TYR:89    0
pistack:TYR:89    0
Name: 4, dtype: object

>  <hbond:TYR:89>  (5) 
hbond:TYR:89    0
hbond:TYR:89    0
Name: 4, dtype: object

>  <halogenbond:TYR:89>  (5) 
halogenbond:TYR:89    0
halogenbond:TYR:89    0
Name: 4, dtype: object

>  <hbond:TYR:90>  (5) 
hbond:TYR:90    0
hbond:TYR:90    0
Name: 4, dtype: object

>  <hydroph_interaction:TYR:90>  (5) 
hydroph_interaction:TYR:90    3
hydroph_interaction:TYR:90    3
Name: 4, dtype: object

>  <pistack:TYR:90>  (5) 
pistack:TYR:90    0
pistack:TYR:90    0
Name: 4, dtype: object

>  <halogenbond:TYR:90>  (5) 
halogenbond:TYR:90    0
halogenbond:TYR:90    0
Name: 4, dtype: object

>  <pication:TYR:90>  (5) 
pication:TYR:90    0
pication:TYR:90    0
Name: 4, dtype: object

>  <hydroph_interaction:PRO:91>  (5) 
hydroph_interaction:PRO:91    0
hydroph_interaction:PRO:91    0
Name: 4, dtype: object

>  <halogenbond:PRO:91>  (5) 
halogenbond:PRO:91    0
halogenbond:PRO:91    0
Name: 4, dtype: object

>  <hbond:PRO:91>  (5) 
hbond:PRO:91    0
hbond:PRO:91    0
Name: 4, dtype: object

>  <hydroph_interaction:ALA:92>  (5) 
hydroph_interaction:ALA:92    0
hydroph_interaction:ALA:92    0
Name: 4, dtype: object

>  <hbond:ARG:93>  (5) 
hbond:ARG:93    0
hbond:ARG:93    0
Name: 4, dtype: object

>  <pication:ARG:93>  (5) 
pication:ARG:93    0
pication:ARG:93    0
Name: 4, dtype: object

>  <saltbridge:ARG:93>  (5) 
saltbridge:ARG:93    0
saltbridge:ARG:93    0
Name: 4, dtype: object

>  <hydroph_interaction:ARG:93>  (5) 
hydroph_interaction:ARG:93    0
hydroph_interaction:ARG:93    0
Name: 4, dtype: object

>  <halogenbond:ARG:93>  (5) 
halogenbond:ARG:93    0
halogenbond:ARG:93    0
Name: 4, dtype: object

>  <hydroph_interaction:TYR:94>  (5) 
hydroph_interaction:TYR:94    0
hydroph_interaction:TYR:94    0
Name: 4, dtype: object

>  <hbond:TYR:94>  (5) 
hbond:TYR:94    0
hbond:TYR:94    0
Name: 4, dtype: object

>  <halogenbond:GLN:95>  (5) 
halogenbond:GLN:95    0
halogenbond:GLN:95    0
Name: 4, dtype: object

>  <hbond:GLN:95>  (5) 
hbond:GLN:95    0
hbond:GLN:95    0
Name: 4, dtype: object

>  <hydroph_interaction:GLN:95>  (5) 
hydroph_interaction:GLN:95    2
hydroph_interaction:GLN:95    2
Name: 4, dtype: object

>  <hbond:SER:96>  (5) 
hbond:SER:96    0
hbond:SER:96    0
Name: 4, dtype: object

>  <hydroph_interaction:LEU:98>  (5) 
hydroph_interaction:LEU:98    0
hydroph_interaction:LEU:98    0
Name: 4, dtype: object

>  <hbond:LEU:98>  (5) 
hbond:LEU:98    0
hbond:LEU:98    0
Name: 4, dtype: object

>  <hbond:MET:99>  (5) 
hbond:MET:99    0
hbond:MET:99    0
Name: 4, dtype: object

>  <hydroph_interaction:MET:99>  (5) 
hydroph_interaction:MET:99    0
hydroph_interaction:MET:99    0
Name: 4, dtype: object

>  <halogenbond:MET:99>  (5) 
halogenbond:MET:99    0
halogenbond:MET:99    0
Name: 4, dtype: object

>  <hydroph_interaction:LEU:100>  (5) 
hydroph_interaction:LEU:100    0
hydroph_interaction:LEU:100    0
Name: 4, dtype: object

>  <hbond:LEU:100>  (5) 
hbond:LEU:100    0
hbond:LEU:100    0
Name: 4, dtype: object

>  <hbond:ALA:101>  (5) 
hbond:ALA:101    0
hbond:ALA:101    0
Name: 4, dtype: object

>  <hydroph_interaction:ALA:101>  (5) 
hydroph_interaction:ALA:101    0
hydroph_interaction:ALA:101    0
Name: 4, dtype: object

>  <hydroph_interaction:VAL:102>  (5) 
hydroph_interaction:VAL:102    0
hydroph_interaction:VAL:102    0
Name: 4, dtype: object

>  <hbond:VAL:102>  (5) 
hbond:VAL:102    0
hbond:VAL:102    0
Name: 4, dtype: object

>  <hbond:GLY:103>  (5) 
hbond:GLY:103    0
hbond:GLY:103    0
Name: 4, dtype: object

>  <halogenbond:GLY:103>  (5) 
halogenbond:GLY:103    0
halogenbond:GLY:103    0
Name: 4, dtype: object

>  <hydroph_interaction:HIS:104>  (5) 
hydroph_interaction:HIS:104    0
hydroph_interaction:HIS:104    0
Name: 4, dtype: object

>  <hbond:HIS:104>  (5) 
hbond:HIS:104    0
hbond:HIS:104    0
Name: 4, dtype: object

>  <saltbridge:HIS:104>  (5) 
saltbridge:HIS:104    0
saltbridge:HIS:104    0
Name: 4, dtype: object

>  <pication:HIS:104>  (5) 
pication:HIS:104    0
pication:HIS:104    0
Name: 4, dtype: object

>  <pistack:HIS:104>  (5) 
pistack:HIS:104    0
pistack:HIS:104    0
Name: 4, dtype: object

>  <halogenbond:HIS:104>  (5) 
halogenbond:HIS:104    0
halogenbond:HIS:104    0
Name: 4, dtype: object

>  <hbond:SER:105>  (5) 
hbond:SER:105    0
hbond:SER:105    0
Name: 4, dtype: object

>  <halogenbond:SER:105>  (5) 
halogenbond:SER:105    0
halogenbond:SER:105    0
Name: 4, dtype: object

>  <hbond:GLU:106>  (5) 
hbond:GLU:106    0
hbond:GLU:106    0
Name: 4, dtype: object

>  <hydroph_interaction:GLU:106>  (5) 
hydroph_interaction:GLU:106    0
hydroph_interaction:GLU:106    0
Name: 4, dtype: object

>  <saltbridge:GLU:106>  (5) 
saltbridge:GLU:106    0
saltbridge:GLU:106    0
Name: 4, dtype: object

>  <halogenbond:GLU:106>  (5) 
halogenbond:GLU:106    0
halogenbond:GLU:106    0
Name: 4, dtype: object

>  <hydroph_interaction:PRO:107>  (5) 
hydroph_interaction:PRO:107    1
hydroph_interaction:PRO:107    1
Name: 4, dtype: object

>  <hbond:PRO:107>  (5) 
hbond:PRO:107    0
hbond:PRO:107    0
Name: 4, dtype: object

>  <halogenbond:PRO:107>  (5) 
halogenbond:PRO:107    0
halogenbond:PRO:107    0
Name: 4, dtype: object

>  <hbond:GLY:108>  (5) 
hbond:GLY:108    0
hbond:GLY:108    0
Name: 4, dtype: object

>  <halogenbond:GLY:108>  (5) 
halogenbond:GLY:108    0
halogenbond:GLY:108    0
Name: 4, dtype: object

>  <hbond:ASP:109>  (5) 
hbond:ASP:109    0
hbond:ASP:109    0
Name: 4, dtype: object

>  <hydroph_interaction:ASP:109>  (5) 
hydroph_interaction:ASP:109    0
hydroph_interaction:ASP:109    0
Name: 4, dtype: object

>  <saltbridge:ASP:109>  (5) 
saltbridge:ASP:109    0
saltbridge:ASP:109    0
Name: 4, dtype: object

>  <hbond:CYS:110>  (5) 
hbond:CYS:110    0
hbond:CYS:110    0
Name: 4, dtype: object

>  <halogenbond:CYS:110>  (5) 
halogenbond:CYS:110    0
halogenbond:CYS:110    0
Name: 4, dtype: object

>  <hbond:GLY:111>  (5) 
hbond:GLY:111    0
hbond:GLY:111    0
Name: 4, dtype: object

>  <hbond:GLY:112>  (5) 
hbond:GLY:112    0
hbond:GLY:112    0
Name: 4, dtype: object

>  <hbond:ILE:113>  (5) 
hbond:ILE:113    0
hbond:ILE:113    0
Name: 4, dtype: object

>  <hydroph_interaction:LEU:114>  (5) 
hydroph_interaction:LEU:114    0
hydroph_interaction:LEU:114    0
Name: 4, dtype: object

>  <hbond:LEU:114>  (5) 
hbond:LEU:114    0
hbond:LEU:114    0
Name: 4, dtype: object

>  <hydroph_interaction:ILE:123>  (5) 
hydroph_interaction:ILE:123    0
hydroph_interaction:ILE:123    0
Name: 4, dtype: object

>  <hbond:ILE:123>  (5) 
hbond:ILE:123    0
hbond:ILE:123    0
Name: 4, dtype: object

>  <hydroph_interaction:VAL:124>  (5) 
hydroph_interaction:VAL:124    1
hydroph_interaction:VAL:124    1
Name: 4, dtype: object

>  <hbond:VAL:124>  (5) 
hbond:VAL:124    0
hbond:VAL:124    0
Name: 4, dtype: object

>  <halogenbond:VAL:124>  (5) 
halogenbond:VAL:124    0
halogenbond:VAL:124    0
Name: 4, dtype: object

>  <hbond:SER:125>  (5) 
hbond:SER:125    0
hbond:SER:125    0
Name: 4, dtype: object

>  <halogenbond:SER:125>  (5) 
halogenbond:SER:125    0
halogenbond:SER:125    0
Name: 4, dtype: object

>  <hydroph_interaction:THR:126>  (5) 
hydroph_interaction:THR:126    0
hydroph_interaction:THR:126    0
Name: 4, dtype: object

>  <hbond:THR:126>  (5) 
hbond:THR:126    0
hbond:THR:126    0
Name: 4, dtype: object

>  <halogenbond:THR:126>  (5) 
halogenbond:THR:126    0
halogenbond:THR:126    0
Name: 4, dtype: object

>  <hbond:GLY:127>  (5) 
hbond:GLY:127    0
hbond:GLY:127    0
Name: 4, dtype: object

>  <halogenbond:GLY:127>  (5) 
halogenbond:GLY:127    0
halogenbond:GLY:127    0
Name: 4, dtype: object

>  <hydroph_interaction:GLY:127>  (5) 
hydroph_interaction:GLY:127    0
hydroph_interaction:GLY:127    0
Name: 4, dtype: object

>  <hbond:GLY:128>  (5) 
hbond:GLY:128    0
hbond:GLY:128    0
Name: 4, dtype: object

>  <halogenbond:GLY:128>  (5) 
halogenbond:GLY:128    0
halogenbond:GLY:128    0
Name: 4, dtype: object

>  <hydroph_interaction:GLY:128>  (5) 
hydroph_interaction:GLY:128    0
hydroph_interaction:GLY:128    0
Name: 4, dtype: object

>  <hbond:ASN:129>  (5) 
hbond:ASN:129    0
hbond:ASN:129    0
Name: 4, dtype: object

>  <hydroph_interaction:ASN:129>  (5) 
hydroph_interaction:ASN:129    0
hydroph_interaction:ASN:129    0
Name: 4, dtype: object

>  <halogenbond:ASN:129>  (5) 
halogenbond:ASN:129    0
halogenbond:ASN:129    0
Name: 4, dtype: object

>  <hbond:GLY:130>  (5) 
hbond:GLY:130    0
hbond:GLY:130    0
Name: 4, dtype: object

>  <hydroph_interaction:LEU:131>  (5) 
hydroph_interaction:LEU:131    0
hydroph_interaction:LEU:131    0
Name: 4, dtype: object

>  <hbond:LEU:131>  (5) 
hbond:LEU:131    0
hbond:LEU:131    0
Name: 4, dtype: object

>  <halogenbond:LEU:131>  (5) 
halogenbond:LEU:131    0
halogenbond:LEU:131    0
Name: 4, dtype: object

>  <hydroph_interaction:VAL:132>  (5) 
hydroph_interaction:VAL:132    0
hydroph_interaction:VAL:132    0
Name: 4, dtype: object

>  <hbond:VAL:132>  (5) 
hbond:VAL:132    0
hbond:VAL:132    0
Name: 4, dtype: object

>  <hbond:GLY:133>  (5) 
hbond:GLY:133    0
hbond:GLY:133    0
Name: 4, dtype: object

>  <halogenbond:GLY:133>  (5) 
halogenbond:GLY:133    0
halogenbond:GLY:133    0
Name: 4, dtype: object

>  <hydroph_interaction:PHE:134>  (5) 
hydroph_interaction:PHE:134    0
hydroph_interaction:PHE:134    0
Name: 4, dtype: object

>  <hbond:PHE:134>  (5) 
hbond:PHE:134    0
hbond:PHE:134    0
Name: 4, dtype: object

>  <pistack:PHE:134>  (5) 
pistack:PHE:134    0
pistack:PHE:134    0
Name: 4, dtype: object

>  <pication:PHE:134>  (5) 
pication:PHE:134    0
pication:PHE:134    0
Name: 4, dtype: object

>  <hydroph_interaction:ALA:135>  (5) 
hydroph_interaction:ALA:135    0
hydroph_interaction:ALA:135    0
Name: 4, dtype: object

>  <hbond:ALA:135>  (5) 
hbond:ALA:135    0
hbond:ALA:135    0
Name: 4, dtype: object

$$$$
Z5576958405
     RDKit          3D

 36 37  0  0  0  0  0  0  0  0999 V2000
   16.0020   13.1990   22.2020 C   0  0  0  0  0  0  0  0  0  0  0  0
   15.0480   13.5670   23.2950 C   0  0  0  0  0  0  0  0  0  0  0  0
   14.8870   12.5380   24.3820 C   0  0  0  0  0  0  0  0  0  0  0  0
   13.8580   13.9120   22.5830 N   0  0  0  0  0  0  0  0  0  0  0  0
   13.7720   14.2080   21.2490 C   0  0  0  0  0  0  0  0  0  0  0  0
   12.4550   14.4550   21.0420 C   0  0  0  0  0  0  0  0  0  0  0  0
   11.4980   14.9690   19.3170 I   0  0  0  0  0  0  0  0  0  0  0  0
   11.8510   14.2820   22.2700 C   0  0  0  0  0  0  0  0  0  0  0  0
   10.5370   14.4220   22.4650 N   0  0  0  0  0  0  0  0  0  0  0  0
    9.9820   13.9200   23.5930 C   0  0  0  0  0  0  0  0  0  0  0  0
   10.0950   14.3630   24.7200 O   0  0  0  0  0  0  0  0  0  0  0  0
    9.1940   12.6830   23.2800 C   0  0  0  0  0  0  0  0  0  0  0  0
    8.3580   12.1400   24.4260 C   0  0  0  0  0  0  0  0  0  0  0  0
    8.4990   10.6530   24.2920 C   0  0  0  0  0  0  0  0  0  0  0  0
    7.7510    9.8560   24.8170 O   0  0  0  0  0  0  0  0  0  0  0  0
    9.6040   10.3740   23.4920 N   0  0  0  0  0  0  0  0  0  0  0  0
    9.8170    9.1230   22.8050 C   0  0  0  0  0  0  0  0  0  0  0  0
   10.1560   11.5660   22.9360 C   0  0  0  0  0  0  0  0  0  0  0  0
   12.7040   13.9540   23.2230 N   0  0  0  0  0  0  0  0  0  0  0  0
   16.3020   12.1600   22.3010 H   0  0  0  0  0  0  0  0  0  0  0  0
   16.8750   13.8470   22.2450 H   0  0  0  0  0  0  0  0  0  0  0  0
   15.5570   13.3050   21.2100 H   0  0  0  0  0  0  0  0  0  0  0  0
   15.4010   14.4250   23.8220 H   0  0  0  0  0  0  0  0  0  0  0  0
   13.8330   12.2760   24.4730 H   0  0  0  0  0  0  0  0  0  0  0  0
   15.2240   12.9200   25.3520 H   0  0  0  0  0  0  0  0  0  0  0  0
   15.4640   11.6350   24.1650 H   0  0  0  0  0  0  0  0  0  0  0  0
   14.6290   14.2150   20.5910 H   0  0  0  0  0  0  0  0  0  0  0  0
    9.9890   14.4720   21.6190 H   0  0  0  0  0  0  0  0  0  0  0  0
    8.5290   12.9000   22.4400 H   0  0  0  0  0  0  0  0  0  0  0  0
    7.2950   12.3900   24.3380 H   0  0  0  0  0  0  0  0  0  0  0  0
    8.7270   12.4730   25.3860 H   0  0  0  0  0  0  0  0  0  0  0  0
   10.4100    8.4580   23.4280 H   0  0  0  0  0  0  0  0  0  0  0  0
   10.3470    9.3200   21.8690 H   0  0  0  0  0  0  0  0  0  0  0  0
    8.8680    8.6500   22.5850 H   0  0  0  0  0  0  0  0  0  0  0  0
   10.2460   11.4170   21.8840 H   0  0  0  0  0  0  0  0  0  0  0  0
   11.1530   11.7510   23.3280 H   0  0  0  0  0  0  0  0  0  0  0  0
  1  2  1  0
  2  3  1  0
  2  4  1  0
  4  5  1  0
  5  6  2  0
  6  7  1  0
  6  8  1  0
  8  9  1  0
  9 10  1  0
 10 11  2  0
 10 12  1  0
 12 13  1  0
 13 14  1  0
 14 15  2  0
 14 16  1  0
 16 17  1  0
 16 18  1  0
  8 19  2  0
 19  4  1  0
 18 12  1  0
  1 20  1  0
  1 21  1  0
  1 22  1  0
  2 23  1  0
  3 24  1  0
  3 25  1  0
  3 26  1  0
  5 27  1  0
  9 28  1  0
 12 29  1  0
 13 30  1  0
 13 31  1  0
 17 32  1  0
 17 33  1  0
 17 34  1  0
 18 35  1  0
 18 36  1  0
A    1
 C1 
A    2
 C2 
A    3
 C3 
A    4
 N1 
A    5
 C4 
A    6
 C5 
A    7
 I1 
A    8
 C6 
A    9
 N2 
A   10
 C7 
A   11
 O1 
A   12
 C8 
A   13
 C9 
A   14
 C10
A   15
 O2 
A   16
 N3 
A   17
 C11
A   18
 C12
A   19
 N4 
A   20
 H1 
A   21
 H2 
A   22
 H3 
A   23
 H4 
A   24
 H5 
A   25
 H6 
A   26
 H7 
A   27
 H8 
A   28
 H9 
A   29
 H10
A   30
 H11
A   31
 H12
A   32
 H13
A   33
 H14
A   34
 H15
A   35
 H16
A   36
 H17
M  END
>  <ref_pdb>  (6) 
x0310_0A

>  <ref_mols>  (6) 
x0451_0A,x0416_0A

>  <original SMILES>  (6) 
CC(C)n1cc(I)c(NC(=O)C2CC(=O)N(C)C2)n1

>  <rationale>  (6) 
info halogenbond:Q95; hbond:S87; hydroph_interaction:P107+H21+L22; 

>  <intxn_cluster>  (6) 
202

>  <intxn_cluster_rank>  (6) 
1

>  <N_interactions>  (6) 
6

>  <∆∆G>  (6) 
-10.08288

>  <$/mg>  (6) 
nan

>  <comRMSD>  (6) 
0.788798

>  <N_rotatable_bonds>  (6) 
6

>  <N_analogues_07>  (6) 
0

>  <deep_P1_sidechain>  (6) 
False

>  <farthest_distance_to_substrate>  (6) 
3.124277

>  <hbond:SER:7>  (6) 
hbond:SER:7    0
hbond:SER:7    0
Name: 5, dtype: object

>  <halogenbond:SER:7>  (6) 
halogenbond:SER:7    0
halogenbond:SER:7    0
Name: 5, dtype: object

>  <hbond:GLY:8>  (6) 
hbond:GLY:8    0
hbond:GLY:8    0
Name: 5, dtype: object

>  <hydroph_interaction:ASN:19>  (6) 
hydroph_interaction:ASN:19    0
hydroph_interaction:ASN:19    0
Name: 5, dtype: object

>  <hbond:ASN:19>  (6) 
hbond:ASN:19    0
hbond:ASN:19    0
Name: 5, dtype: object

>  <halogenbond:ASN:19>  (6) 
halogenbond:ASN:19    0
halogenbond:ASN:19    0
Name: 5, dtype: object

>  <hbond:ARG:20>  (6) 
hbond:ARG:20    0
hbond:ARG:20    0
Name: 5, dtype: object

>  <hydroph_interaction:ARG:20>  (6) 
hydroph_interaction:ARG:20    0
hydroph_interaction:ARG:20    0
Name: 5, dtype: object

>  <saltbridge:ARG:20>  (6) 
saltbridge:ARG:20    0
saltbridge:ARG:20    0
Name: 5, dtype: object

>  <halogenbond:ARG:20>  (6) 
halogenbond:ARG:20    0
halogenbond:ARG:20    0
Name: 5, dtype: object

>  <pication:ARG:20>  (6) 
pication:ARG:20    0
pication:ARG:20    0
Name: 5, dtype: object

>  <hbond:HIS:21>  (6) 
hbond:HIS:21    0
hbond:HIS:21    0
Name: 5, dtype: object

>  <hydroph_interaction:HIS:21>  (6) 
hydroph_interaction:HIS:21    1
hydroph_interaction:HIS:21    1
Name: 5, dtype: object

>  <saltbridge:HIS:21>  (6) 
saltbridge:HIS:21    0
saltbridge:HIS:21    0
Name: 5, dtype: object

>  <pistack:HIS:21>  (6) 
pistack:HIS:21    0
pistack:HIS:21    0
Name: 5, dtype: object

>  <pication:HIS:21>  (6) 
pication:HIS:21    0
pication:HIS:21    0
Name: 5, dtype: object

>  <halogenbond:HIS:21>  (6) 
halogenbond:HIS:21    0
halogenbond:HIS:21    0
Name: 5, dtype: object

>  <hydroph_interaction:LEU:22>  (6) 
hydroph_interaction:LEU:22    1
hydroph_interaction:LEU:22    1
Name: 5, dtype: object

>  <hbond:LEU:22>  (6) 
hbond:LEU:22    0
hbond:LEU:22    0
Name: 5, dtype: object

>  <hydroph_interaction:TRP:28>  (6) 
hydroph_interaction:TRP:28    0
hydroph_interaction:TRP:28    0
Name: 5, dtype: object

>  <hbond:SER:36>  (6) 
hbond:SER:36    0
hbond:SER:36    0
Name: 5, dtype: object

>  <halogenbond:SER:36>  (6) 
halogenbond:SER:36    0
halogenbond:SER:36    0
Name: 5, dtype: object

>  <hbond:ARG:38>  (6) 
hbond:ARG:38    0
hbond:ARG:38    0
Name: 5, dtype: object

>  <halogenbond:ARG:38>  (6) 
halogenbond:ARG:38    0
halogenbond:ARG:38    0
Name: 5, dtype: object

>  <hbond:ASP:39>  (6) 
hbond:ASP:39    0
hbond:ASP:39    0
Name: 5, dtype: object

>  <saltbridge:ASP:39>  (6) 
saltbridge:ASP:39    0
saltbridge:ASP:39    0
Name: 5, dtype: object

>  <hydroph_interaction:ASP:39>  (6) 
hydroph_interaction:ASP:39    0
hydroph_interaction:ASP:39    0
Name: 5, dtype: object

>  <halogenbond:ASP:39>  (6) 
halogenbond:ASP:39    0
halogenbond:ASP:39    0
Name: 5, dtype: object

>  <hydroph_interaction:LEU:40>  (6) 
hydroph_interaction:LEU:40    0
hydroph_interaction:LEU:40    0
Name: 5, dtype: object

>  <hydroph_interaction:TYR:63>  (6) 
hydroph_interaction:TYR:63    0
hydroph_interaction:TYR:63    0
Name: 5, dtype: object

>  <pistack:TYR:63>  (6) 
pistack:TYR:63    0
pistack:TYR:63    0
Name: 5, dtype: object

>  <hbond:TYR:63>  (6) 
hbond:TYR:63    0
hbond:TYR:63    0
Name: 5, dtype: object

>  <hbond:TYR:64>  (6) 
hbond:TYR:64    0
hbond:TYR:64    0
Name: 5, dtype: object

>  <halogenbond:TYR:64>  (6) 
halogenbond:TYR:64    0
halogenbond:TYR:64    0
Name: 5, dtype: object

>  <hydroph_interaction:TYR:64>  (6) 
hydroph_interaction:TYR:64    0
hydroph_interaction:TYR:64    0
Name: 5, dtype: object

>  <hbond:CYS:65>  (6) 
hbond:CYS:65    0
hbond:CYS:65    0
Name: 5, dtype: object

>  <halogenbond:CYS:65>  (6) 
halogenbond:CYS:65    0
halogenbond:CYS:65    0
Name: 5, dtype: object

>  <hbond:SER:66>  (6) 
hbond:SER:66    0
hbond:SER:66    0
Name: 5, dtype: object

>  <hbond:SER:67>  (6) 
hbond:SER:67    0
hbond:SER:67    0
Name: 5, dtype: object

>  <halogenbond:SER:67>  (6) 
halogenbond:SER:67    0
halogenbond:SER:67    0
Name: 5, dtype: object

>  <hydroph_interaction:ARG:68>  (6) 
hydroph_interaction:ARG:68    0
hydroph_interaction:ARG:68    0
Name: 5, dtype: object

>  <hbond:ARG:68>  (6) 
hbond:ARG:68    0
hbond:ARG:68    0
Name: 5, dtype: object

>  <saltbridge:ARG:68>  (6) 
saltbridge:ARG:68    0
saltbridge:ARG:68    0
Name: 5, dtype: object

>  <pication:ARG:68>  (6) 
pication:ARG:68    0
pication:ARG:68    0
Name: 5, dtype: object

>  <hydroph_interaction:TYR:72>  (6) 
hydroph_interaction:TYR:72    0
hydroph_interaction:TYR:72    0
Name: 5, dtype: object

>  <hydroph_interaction:VAL:74>  (6) 
hydroph_interaction:VAL:74    0
hydroph_interaction:VAL:74    0
Name: 5, dtype: object

>  <hydroph_interaction:PHE:76>  (6) 
hydroph_interaction:PHE:76    0
hydroph_interaction:PHE:76    0
Name: 5, dtype: object

>  <hbond:SER:77>  (6) 
hbond:SER:77    0
hbond:SER:77    0
Name: 5, dtype: object

>  <hbond:SER:80>  (6) 
hbond:SER:80    0
hbond:SER:80    0
Name: 5, dtype: object

>  <hbond:LEU:81>  (6) 
hbond:LEU:81    0
hbond:LEU:81    0
Name: 5, dtype: object

>  <halogenbond:LEU:81>  (6) 
halogenbond:LEU:81    0
halogenbond:LEU:81    0
Name: 5, dtype: object

>  <hydroph_interaction:LEU:81>  (6) 
hydroph_interaction:LEU:81    0
hydroph_interaction:LEU:81    0
Name: 5, dtype: object

>  <hydroph_interaction:ILE:82>  (6) 
hydroph_interaction:ILE:82    0
hydroph_interaction:ILE:82    0
Name: 5, dtype: object

>  <hbond:ILE:82>  (6) 
hbond:ILE:82    0
hbond:ILE:82    0
Name: 5, dtype: object

>  <hydroph_interaction:PHE:83>  (6) 
hydroph_interaction:PHE:83    0
hydroph_interaction:PHE:83    0
Name: 5, dtype: object

>  <hbond:PHE:83>  (6) 
hbond:PHE:83    0
hbond:PHE:83    0
Name: 5, dtype: object

>  <halogenbond:PHE:83>  (6) 
halogenbond:PHE:83    0
halogenbond:PHE:83    0
Name: 5, dtype: object

>  <pistack:PHE:83>  (6) 
pistack:PHE:83    0
pistack:PHE:83    0
Name: 5, dtype: object

>  <hydroph_interaction:VAL:84>  (6) 
hydroph_interaction:VAL:84    0
hydroph_interaction:VAL:84    0
Name: 5, dtype: object

>  <hbond:VAL:84>  (6) 
hbond:VAL:84    0
hbond:VAL:84    0
Name: 5, dtype: object

>  <halogenbond:VAL:84>  (6) 
halogenbond:VAL:84    0
halogenbond:VAL:84    0
Name: 5, dtype: object

>  <hydroph_interaction:GLU:85>  (6) 
hydroph_interaction:GLU:85    0
hydroph_interaction:GLU:85    0
Name: 5, dtype: object

>  <hbond:GLU:85>  (6) 
hbond:GLU:85    0
hbond:GLU:85    0
Name: 5, dtype: object

>  <saltbridge:GLU:85>  (6) 
saltbridge:GLU:85    0
saltbridge:GLU:85    0
Name: 5, dtype: object

>  <halogenbond:GLU:85>  (6) 
halogenbond:GLU:85    0
halogenbond:GLU:85    0
Name: 5, dtype: object

>  <hbond:ALA:86>  (6) 
hbond:ALA:86    0
hbond:ALA:86    0
Name: 5, dtype: object

>  <halogenbond:ALA:86>  (6) 
halogenbond:ALA:86    0
halogenbond:ALA:86    0
Name: 5, dtype: object

>  <hydroph_interaction:ALA:86>  (6) 
hydroph_interaction:ALA:86    0
hydroph_interaction:ALA:86    0
Name: 5, dtype: object

>  <hbond:SER:87>  (6) 
hbond:SER:87    2
hbond:SER:87    2
Name: 5, dtype: object

>  <halogenbond:SER:87>  (6) 
halogenbond:SER:87    0
halogenbond:SER:87    0
Name: 5, dtype: object

>  <hbond:GLU:88>  (6) 
hbond:GLU:88    0
hbond:GLU:88    0
Name: 5, dtype: object

>  <hydroph_interaction:GLU:88>  (6) 
hydroph_interaction:GLU:88    0
hydroph_interaction:GLU:88    0
Name: 5, dtype: object

>  <halogenbond:GLU:88>  (6) 
halogenbond:GLU:88    0
halogenbond:GLU:88    0
Name: 5, dtype: object

>  <saltbridge:GLU:88>  (6) 
saltbridge:GLU:88    0
saltbridge:GLU:88    0
Name: 5, dtype: object

>  <hydroph_interaction:TYR:89>  (6) 
hydroph_interaction:TYR:89    0
hydroph_interaction:TYR:89    0
Name: 5, dtype: object

>  <pistack:TYR:89>  (6) 
pistack:TYR:89    0
pistack:TYR:89    0
Name: 5, dtype: object

>  <hbond:TYR:89>  (6) 
hbond:TYR:89    0
hbond:TYR:89    0
Name: 5, dtype: object

>  <halogenbond:TYR:89>  (6) 
halogenbond:TYR:89    0
halogenbond:TYR:89    0
Name: 5, dtype: object

>  <hbond:TYR:90>  (6) 
hbond:TYR:90    0
hbond:TYR:90    0
Name: 5, dtype: object

>  <hydroph_interaction:TYR:90>  (6) 
hydroph_interaction:TYR:90    0
hydroph_interaction:TYR:90    0
Name: 5, dtype: object

>  <pistack:TYR:90>  (6) 
pistack:TYR:90    0
pistack:TYR:90    0
Name: 5, dtype: object

>  <halogenbond:TYR:90>  (6) 
halogenbond:TYR:90    0
halogenbond:TYR:90    0
Name: 5, dtype: object

>  <pication:TYR:90>  (6) 
pication:TYR:90    0
pication:TYR:90    0
Name: 5, dtype: object

>  <hydroph_interaction:PRO:91>  (6) 
hydroph_interaction:PRO:91    0
hydroph_interaction:PRO:91    0
Name: 5, dtype: object

>  <halogenbond:PRO:91>  (6) 
halogenbond:PRO:91    0
halogenbond:PRO:91    0
Name: 5, dtype: object

>  <hbond:PRO:91>  (6) 
hbond:PRO:91    0
hbond:PRO:91    0
Name: 5, dtype: object

>  <hydroph_interaction:ALA:92>  (6) 
hydroph_interaction:ALA:92    0
hydroph_interaction:ALA:92    0
Name: 5, dtype: object

>  <hbond:ARG:93>  (6) 
hbond:ARG:93    0
hbond:ARG:93    0
Name: 5, dtype: object

>  <pication:ARG:93>  (6) 
pication:ARG:93    0
pication:ARG:93    0
Name: 5, dtype: object

>  <saltbridge:ARG:93>  (6) 
saltbridge:ARG:93    0
saltbridge:ARG:93    0
Name: 5, dtype: object

>  <hydroph_interaction:ARG:93>  (6) 
hydroph_interaction:ARG:93    0
hydroph_interaction:ARG:93    0
Name: 5, dtype: object

>  <halogenbond:ARG:93>  (6) 
halogenbond:ARG:93    0
halogenbond:ARG:93    0
Name: 5, dtype: object

>  <hydroph_interaction:TYR:94>  (6) 
hydroph_interaction:TYR:94    0
hydroph_interaction:TYR:94    0
Name: 5, dtype: object

>  <hbond:TYR:94>  (6) 
hbond:TYR:94    0
hbond:TYR:94    0
Name: 5, dtype: object

>  <halogenbond:GLN:95>  (6) 
halogenbond:GLN:95    1
halogenbond:GLN:95    1
Name: 5, dtype: object

>  <hbond:GLN:95>  (6) 
hbond:GLN:95    0
hbond:GLN:95    0
Name: 5, dtype: object

>  <hydroph_interaction:GLN:95>  (6) 
hydroph_interaction:GLN:95    0
hydroph_interaction:GLN:95    0
Name: 5, dtype: object

>  <hbond:SER:96>  (6) 
hbond:SER:96    0
hbond:SER:96    0
Name: 5, dtype: object

>  <hydroph_interaction:LEU:98>  (6) 
hydroph_interaction:LEU:98    0
hydroph_interaction:LEU:98    0
Name: 5, dtype: object

>  <hbond:LEU:98>  (6) 
hbond:LEU:98    0
hbond:LEU:98    0
Name: 5, dtype: object

>  <hbond:MET:99>  (6) 
hbond:MET:99    0
hbond:MET:99    0
Name: 5, dtype: object

>  <hydroph_interaction:MET:99>  (6) 
hydroph_interaction:MET:99    0
hydroph_interaction:MET:99    0
Name: 5, dtype: object

>  <halogenbond:MET:99>  (6) 
halogenbond:MET:99    0
halogenbond:MET:99    0
Name: 5, dtype: object

>  <hydroph_interaction:LEU:100>  (6) 
hydroph_interaction:LEU:100    0
hydroph_interaction:LEU:100    0
Name: 5, dtype: object

>  <hbond:LEU:100>  (6) 
hbond:LEU:100    0
hbond:LEU:100    0
Name: 5, dtype: object

>  <hbond:ALA:101>  (6) 
hbond:ALA:101    0
hbond:ALA:101    0
Name: 5, dtype: object

>  <hydroph_interaction:ALA:101>  (6) 
hydroph_interaction:ALA:101    0
hydroph_interaction:ALA:101    0
Name: 5, dtype: object

>  <hydroph_interaction:VAL:102>  (6) 
hydroph_interaction:VAL:102    0
hydroph_interaction:VAL:102    0
Name: 5, dtype: object

>  <hbond:VAL:102>  (6) 
hbond:VAL:102    0
hbond:VAL:102    0
Name: 5, dtype: object

>  <hbond:GLY:103>  (6) 
hbond:GLY:103    0
hbond:GLY:103    0
Name: 5, dtype: object

>  <halogenbond:GLY:103>  (6) 
halogenbond:GLY:103    0
halogenbond:GLY:103    0
Name: 5, dtype: object

>  <hydroph_interaction:HIS:104>  (6) 
hydroph_interaction:HIS:104    0
hydroph_interaction:HIS:104    0
Name: 5, dtype: object

>  <hbond:HIS:104>  (6) 
hbond:HIS:104    0
hbond:HIS:104    0
Name: 5, dtype: object

>  <saltbridge:HIS:104>  (6) 
saltbridge:HIS:104    0
saltbridge:HIS:104    0
Name: 5, dtype: object

>  <pication:HIS:104>  (6) 
pication:HIS:104    0
pication:HIS:104    0
Name: 5, dtype: object

>  <pistack:HIS:104>  (6) 
pistack:HIS:104    0
pistack:HIS:104    0
Name: 5, dtype: object

>  <halogenbond:HIS:104>  (6) 
halogenbond:HIS:104    0
halogenbond:HIS:104    0
Name: 5, dtype: object

>  <hbond:SER:105>  (6) 
hbond:SER:105    0
hbond:SER:105    0
Name: 5, dtype: object

>  <halogenbond:SER:105>  (6) 
halogenbond:SER:105    0
halogenbond:SER:105    0
Name: 5, dtype: object

>  <hbond:GLU:106>  (6) 
hbond:GLU:106    0
hbond:GLU:106    0
Name: 5, dtype: object

>  <hydroph_interaction:GLU:106>  (6) 
hydroph_interaction:GLU:106    0
hydroph_interaction:GLU:106    0
Name: 5, dtype: object

>  <saltbridge:GLU:106>  (6) 
saltbridge:GLU:106    0
saltbridge:GLU:106    0
Name: 5, dtype: object

>  <halogenbond:GLU:106>  (6) 
halogenbond:GLU:106    0
halogenbond:GLU:106    0
Name: 5, dtype: object

>  <hydroph_interaction:PRO:107>  (6) 
hydroph_interaction:PRO:107    1
hydroph_interaction:PRO:107    1
Name: 5, dtype: object

>  <hbond:PRO:107>  (6) 
hbond:PRO:107    0
hbond:PRO:107    0
Name: 5, dtype: object

>  <halogenbond:PRO:107>  (6) 
halogenbond:PRO:107    0
halogenbond:PRO:107    0
Name: 5, dtype: object

>  <hbond:GLY:108>  (6) 
hbond:GLY:108    0
hbond:GLY:108    0
Name: 5, dtype: object

>  <halogenbond:GLY:108>  (6) 
halogenbond:GLY:108    0
halogenbond:GLY:108    0
Name: 5, dtype: object

>  <hbond:ASP:109>  (6) 
hbond:ASP:109    0
hbond:ASP:109    0
Name: 5, dtype: object

>  <hydroph_interaction:ASP:109>  (6) 
hydroph_interaction:ASP:109    0
hydroph_interaction:ASP:109    0
Name: 5, dtype: object

>  <saltbridge:ASP:109>  (6) 
saltbridge:ASP:109    0
saltbridge:ASP:109    0
Name: 5, dtype: object

>  <hbond:CYS:110>  (6) 
hbond:CYS:110    0
hbond:CYS:110    0
Name: 5, dtype: object

>  <halogenbond:CYS:110>  (6) 
halogenbond:CYS:110    0
halogenbond:CYS:110    0
Name: 5, dtype: object

>  <hbond:GLY:111>  (6) 
hbond:GLY:111    0
hbond:GLY:111    0
Name: 5, dtype: object

>  <hbond:GLY:112>  (6) 
hbond:GLY:112    0
hbond:GLY:112    0
Name: 5, dtype: object

>  <hbond:ILE:113>  (6) 
hbond:ILE:113    0
hbond:ILE:113    0
Name: 5, dtype: object

>  <hydroph_interaction:LEU:114>  (6) 
hydroph_interaction:LEU:114    0
hydroph_interaction:LEU:114    0
Name: 5, dtype: object

>  <hbond:LEU:114>  (6) 
hbond:LEU:114    0
hbond:LEU:114    0
Name: 5, dtype: object

>  <hydroph_interaction:ILE:123>  (6) 
hydroph_interaction:ILE:123    0
hydroph_interaction:ILE:123    0
Name: 5, dtype: object

>  <hbond:ILE:123>  (6) 
hbond:ILE:123    0
hbond:ILE:123    0
Name: 5, dtype: object

>  <hydroph_interaction:VAL:124>  (6) 
hydroph_interaction:VAL:124    0
hydroph_interaction:VAL:124    0
Name: 5, dtype: object

>  <hbond:VAL:124>  (6) 
hbond:VAL:124    0
hbond:VAL:124    0
Name: 5, dtype: object

>  <halogenbond:VAL:124>  (6) 
halogenbond:VAL:124    0
halogenbond:VAL:124    0
Name: 5, dtype: object

>  <hbond:SER:125>  (6) 
hbond:SER:125    0
hbond:SER:125    0
Name: 5, dtype: object

>  <halogenbond:SER:125>  (6) 
halogenbond:SER:125    0
halogenbond:SER:125    0
Name: 5, dtype: object

>  <hydroph_interaction:THR:126>  (6) 
hydroph_interaction:THR:126    0
hydroph_interaction:THR:126    0
Name: 5, dtype: object

>  <hbond:THR:126>  (6) 
hbond:THR:126    0
hbond:THR:126    0
Name: 5, dtype: object

>  <halogenbond:THR:126>  (6) 
halogenbond:THR:126    0
halogenbond:THR:126    0
Name: 5, dtype: object

>  <hbond:GLY:127>  (6) 
hbond:GLY:127    0
hbond:GLY:127    0
Name: 5, dtype: object

>  <halogenbond:GLY:127>  (6) 
halogenbond:GLY:127    0
halogenbond:GLY:127    0
Name: 5, dtype: object

>  <hydroph_interaction:GLY:127>  (6) 
hydroph_interaction:GLY:127    0
hydroph_interaction:GLY:127    0
Name: 5, dtype: object

>  <hbond:GLY:128>  (6) 
hbond:GLY:128    0
hbond:GLY:128    0
Name: 5, dtype: object

>  <halogenbond:GLY:128>  (6) 
halogenbond:GLY:128    0
halogenbond:GLY:128    0
Name: 5, dtype: object

>  <hydroph_interaction:GLY:128>  (6) 
hydroph_interaction:GLY:128    0
hydroph_interaction:GLY:128    0
Name: 5, dtype: object

>  <hbond:ASN:129>  (6) 
hbond:ASN:129    0
hbond:ASN:129    0
Name: 5, dtype: object

>  <hydroph_interaction:ASN:129>  (6) 
hydroph_interaction:ASN:129    0
hydroph_interaction:ASN:129    0
Name: 5, dtype: object

>  <halogenbond:ASN:129>  (6) 
halogenbond:ASN:129    0
halogenbond:ASN:129    0
Name: 5, dtype: object

>  <hbond:GLY:130>  (6) 
hbond:GLY:130    0
hbond:GLY:130    0
Name: 5, dtype: object

>  <hydroph_interaction:LEU:131>  (6) 
hydroph_interaction:LEU:131    0
hydroph_interaction:LEU:131    0
Name: 5, dtype: object

>  <hbond:LEU:131>  (6) 
hbond:LEU:131    0
hbond:LEU:131    0
Name: 5, dtype: object

>  <halogenbond:LEU:131>  (6) 
halogenbond:LEU:131    0
halogenbond:LEU:131    0
Name: 5, dtype: object

>  <hydroph_interaction:VAL:132>  (6) 
hydroph_interaction:VAL:132    0
hydroph_interaction:VAL:132    0
Name: 5, dtype: object

>  <hbond:VAL:132>  (6) 
hbond:VAL:132    0
hbond:VAL:132    0
Name: 5, dtype: object

>  <hbond:GLY:133>  (6) 
hbond:GLY:133    0
hbond:GLY:133    0
Name: 5, dtype: object

>  <halogenbond:GLY:133>  (6) 
halogenbond:GLY:133    0
halogenbond:GLY:133    0
Name: 5, dtype: object

>  <hydroph_interaction:PHE:134>  (6) 
hydroph_interaction:PHE:134    0
hydroph_interaction:PHE:134    0
Name: 5, dtype: object

>  <hbond:PHE:134>  (6) 
hbond:PHE:134    0
hbond:PHE:134    0
Name: 5, dtype: object

>  <pistack:PHE:134>  (6) 
pistack:PHE:134    0
pistack:PHE:134    0
Name: 5, dtype: object

>  <pication:PHE:134>  (6) 
pication:PHE:134    0
pication:PHE:134    0
Name: 5, dtype: object

>  <hydroph_interaction:ALA:135>  (6) 
hydroph_interaction:ALA:135    0
hydroph_interaction:ALA:135    0
Name: 5, dtype: object

>  <hbond:ALA:135>  (6) 
hbond:ALA:135    0
hbond:ALA:135    0
Name: 5, dtype: object

$$$$
Z1148014024
     RDKit          3D

 36 37  0  0  0  0  0  0  0  0999 V2000
    7.1280   10.5940   25.3490 C   0  0  0  0  0  0  0  0  0  0  0  0
    8.2670   10.9650   24.4970 C   0  0  0  0  0  0  0  0  0  0  0  0
    8.6870   12.2190   24.2500 C   0  0  0  0  0  0  0  0  0  0  0  0
    9.8850   12.1590   23.3440 C   0  0  0  0  0  0  0  0  0  0  0  0
   10.4140   13.5020   23.0380 C   0  0  0  0  0  0  0  0  0  0  0  0
   10.0330   14.4380   23.7140 O   0  0  0  0  0  0  0  0  0  0  0  0
   11.3490   13.6540   22.0490 N   0  0  0  0  0  0  0  0  0  0  0  0
   12.5220   14.2210   22.4760 C   0  0  0  0  0  0  0  0  0  0  0  0
   13.5720   13.7630   23.2100 C   0  0  0  0  0  0  0  0  0  0  0  0
   13.5300   12.3790   23.6470 C   0  0  0  0  0  0  0  0  0  0  0  0
   14.5110   14.6890   23.4260 N   0  0  0  0  0  0  0  0  0  0  0  0
   15.7740   14.6020   24.1810 C   0  0  0  0  0  0  0  0  0  0  0  0
   16.1170   13.3180   24.4830 F   0  0  0  0  0  0  0  0  0  0  0  0
   15.7100   15.2380   25.3820 F   0  0  0  0  0  0  0  0  0  0  0  0
   14.1160   15.7970   22.8160 N   0  0  0  0  0  0  0  0  0  0  0  0
   12.9340   15.5420   22.2500 C   0  0  0  0  0  0  0  0  0  0  0  0
   12.2380   16.6440   21.4920 C   0  0  0  0  0  0  0  0  0  0  0  0
   10.1040   10.7980   23.1060 C   0  0  0  0  0  0  0  0  0  0  0  0
   11.1000   10.0130   22.3410 C   0  0  0  0  0  0  0  0  0  0  0  0
    9.1130   10.1010   23.8010 N   0  0  0  0  0  0  0  0  0  0  0  0
    6.7060    9.6480   25.0470 H   0  0  0  0  0  0  0  0  0  0  0  0
    7.4230   10.5180   26.3870 H   0  0  0  0  0  0  0  0  0  0  0  0
    6.3400   11.3480   25.2980 H   0  0  0  0  0  0  0  0  0  0  0  0
    8.3840   13.2180   24.5370 H   0  0  0  0  0  0  0  0  0  0  0  0
   11.3860   12.9480   21.3140 H   0  0  0  0  0  0  0  0  0  0  0  0
   13.6880   12.3300   24.7110 H   0  0  0  0  0  0  0  0  0  0  0  0
   12.5820   11.8880   23.4170 H   0  0  0  0  0  0  0  0  0  0  0  0
   14.3250   11.8620   23.1560 H   0  0  0  0  0  0  0  0  0  0  0  0
   16.5620   15.0630   23.5820 H   0  0  0  0  0  0  0  0  0  0  0  0
   12.8900   16.9770   20.6980 H   0  0  0  0  0  0  0  0  0  0  0  0
   11.2940   16.3110   21.0550 H   0  0  0  0  0  0  0  0  0  0  0  0
   12.0470   17.5010   22.1460 H   0  0  0  0  0  0  0  0  0  0  0  0
   11.6030    9.3000   23.0050 H   0  0  0  0  0  0  0  0  0  0  0  0
   10.6250    9.4410   21.5410 H   0  0  0  0  0  0  0  0  0  0  0  0
   11.8560   10.6630   21.9000 H   0  0  0  0  0  0  0  0  0  0  0  0
    9.0360    9.0800   23.7930 H   0  0  0  0  0  0  0  0  0  0  0  0
  1  2  1  0
  2  3  2  0
  3  4  1  0
  4  5  1  0
  5  6  2  0
  5  7  1  0
  7  8  1  0
  8  9  2  0
  9 10  1  0
  9 11  1  0
 11 12  1  0
 12 13  1  0
 12 14  1  0
 11 15  1  0
 15 16  2  0
 16 17  1  0
  4 18  2  0
 18 19  1  0
 18 20  1  0
 20  2  1  0
 16  8  1  0
  1 21  1  0
  1 22  1  0
  1 23  1  0
  3 24  1  0
  7 25  1  0
 10 26  1  0
 10 27  1  0
 10 28  1  0
 12 29  1  0
 17 30  1  0
 17 31  1  0
 17 32  1  0
 19 33  1  0
 19 34  1  0
 19 35  1  0
 20 36  1  0
A    1
 C1 
A    2
 C2 
A    3
 C3 
A    4
 C4 
A    5
 C5 
A    6
 O1 
A    7
 N1 
A    8
 C6 
A    9
 C7 
A   10
 C8 
A   11
 N2 
A   12
 C9 
A   13
 F1 
A   14
 F2 
A   15
 N3 
A   16
 C10
A   17
 C11
A   18
 C12
A   19
 C13
A   20
 N4 
A   21
 H1 
A   22
 H2 
A   23
 H3 
A   24
 H4 
A   25
 H5 
A   26
 H6 
A   27
 H7 
A   28
 H8 
A   29
 H9 
A   30
 H10
A   31
 H11
A   32
 H12
A   33
 H13
A   34
 H14
A   35
 H15
A   36
 H16
M  END
>  <ref_pdb>  (7) 
x0310_0A

>  <ref_mols>  (7) 
x0451_0A,x0416_0A

>  <original SMILES>  (7) 
Cc1cc(C(=O)Nc2c(C)nn(C(F)F)c2C)c(C)[nH]1

>  <rationale>  (7) 
info halogenbond:C110; hbond:S125+S87; hydroph_interaction:P107+V124+Y89+Y90; pistack:H21; 

>  <intxn_cluster>  (7) 
106

>  <intxn_cluster_rank>  (7) 
1

>  <N_interactions>  (7) 
9

>  <∆∆G>  (7) 
-10.874713

>  <$/mg>  (7) 
163.0

>  <comRMSD>  (7) 
0.754649

>  <N_rotatable_bonds>  (7) 
7

>  <N_analogues_07>  (7) 
1

>  <deep_P1_sidechain>  (7) 
True

>  <farthest_distance_to_substrate>  (7) 
2.703884

>  <hbond:SER:7>  (7) 
hbond:SER:7    0
hbond:SER:7    0
Name: 6, dtype: object

>  <halogenbond:SER:7>  (7) 
halogenbond:SER:7    0
halogenbond:SER:7    0
Name: 6, dtype: object

>  <hbond:GLY:8>  (7) 
hbond:GLY:8    0
hbond:GLY:8    0
Name: 6, dtype: object

>  <hydroph_interaction:ASN:19>  (7) 
hydroph_interaction:ASN:19    0
hydroph_interaction:ASN:19    0
Name: 6, dtype: object

>  <hbond:ASN:19>  (7) 
hbond:ASN:19    0
hbond:ASN:19    0
Name: 6, dtype: object

>  <halogenbond:ASN:19>  (7) 
halogenbond:ASN:19    0
halogenbond:ASN:19    0
Name: 6, dtype: object

>  <hbond:ARG:20>  (7) 
hbond:ARG:20    0
hbond:ARG:20    0
Name: 6, dtype: object

>  <hydroph_interaction:ARG:20>  (7) 
hydroph_interaction:ARG:20    0
hydroph_interaction:ARG:20    0
Name: 6, dtype: object

>  <saltbridge:ARG:20>  (7) 
saltbridge:ARG:20    0
saltbridge:ARG:20    0
Name: 6, dtype: object

>  <halogenbond:ARG:20>  (7) 
halogenbond:ARG:20    0
halogenbond:ARG:20    0
Name: 6, dtype: object

>  <pication:ARG:20>  (7) 
pication:ARG:20    0
pication:ARG:20    0
Name: 6, dtype: object

>  <hbond:HIS:21>  (7) 
hbond:HIS:21    0
hbond:HIS:21    0
Name: 6, dtype: object

>  <hydroph_interaction:HIS:21>  (7) 
hydroph_interaction:HIS:21    0
hydroph_interaction:HIS:21    0
Name: 6, dtype: object

>  <saltbridge:HIS:21>  (7) 
saltbridge:HIS:21    0
saltbridge:HIS:21    0
Name: 6, dtype: object

>  <pistack:HIS:21>  (7) 
pistack:HIS:21    1
pistack:HIS:21    1
Name: 6, dtype: object

>  <pication:HIS:21>  (7) 
pication:HIS:21    0
pication:HIS:21    0
Name: 6, dtype: object

>  <halogenbond:HIS:21>  (7) 
halogenbond:HIS:21    0
halogenbond:HIS:21    0
Name: 6, dtype: object

>  <hydroph_interaction:LEU:22>  (7) 
hydroph_interaction:LEU:22    0
hydroph_interaction:LEU:22    0
Name: 6, dtype: object

>  <hbond:LEU:22>  (7) 
hbond:LEU:22    0
hbond:LEU:22    0
Name: 6, dtype: object

>  <hydroph_interaction:TRP:28>  (7) 
hydroph_interaction:TRP:28    0
hydroph_interaction:TRP:28    0
Name: 6, dtype: object

>  <hbond:SER:36>  (7) 
hbond:SER:36    0
hbond:SER:36    0
Name: 6, dtype: object

>  <halogenbond:SER:36>  (7) 
halogenbond:SER:36    0
halogenbond:SER:36    0
Name: 6, dtype: object

>  <hbond:ARG:38>  (7) 
hbond:ARG:38    0
hbond:ARG:38    0
Name: 6, dtype: object

>  <halogenbond:ARG:38>  (7) 
halogenbond:ARG:38    0
halogenbond:ARG:38    0
Name: 6, dtype: object

>  <hbond:ASP:39>  (7) 
hbond:ASP:39    0
hbond:ASP:39    0
Name: 6, dtype: object

>  <saltbridge:ASP:39>  (7) 
saltbridge:ASP:39    0
saltbridge:ASP:39    0
Name: 6, dtype: object

>  <hydroph_interaction:ASP:39>  (7) 
hydroph_interaction:ASP:39    0
hydroph_interaction:ASP:39    0
Name: 6, dtype: object

>  <halogenbond:ASP:39>  (7) 
halogenbond:ASP:39    0
halogenbond:ASP:39    0
Name: 6, dtype: object

>  <hydroph_interaction:LEU:40>  (7) 
hydroph_interaction:LEU:40    0
hydroph_interaction:LEU:40    0
Name: 6, dtype: object

>  <hydroph_interaction:TYR:63>  (7) 
hydroph_interaction:TYR:63    0
hydroph_interaction:TYR:63    0
Name: 6, dtype: object

>  <pistack:TYR:63>  (7) 
pistack:TYR:63    0
pistack:TYR:63    0
Name: 6, dtype: object

>  <hbond:TYR:63>  (7) 
hbond:TYR:63    0
hbond:TYR:63    0
Name: 6, dtype: object

>  <hbond:TYR:64>  (7) 
hbond:TYR:64    0
hbond:TYR:64    0
Name: 6, dtype: object

>  <halogenbond:TYR:64>  (7) 
halogenbond:TYR:64    0
halogenbond:TYR:64    0
Name: 6, dtype: object

>  <hydroph_interaction:TYR:64>  (7) 
hydroph_interaction:TYR:64    0
hydroph_interaction:TYR:64    0
Name: 6, dtype: object

>  <hbond:CYS:65>  (7) 
hbond:CYS:65    0
hbond:CYS:65    0
Name: 6, dtype: object

>  <halogenbond:CYS:65>  (7) 
halogenbond:CYS:65    0
halogenbond:CYS:65    0
Name: 6, dtype: object

>  <hbond:SER:66>  (7) 
hbond:SER:66    0
hbond:SER:66    0
Name: 6, dtype: object

>  <hbond:SER:67>  (7) 
hbond:SER:67    0
hbond:SER:67    0
Name: 6, dtype: object

>  <halogenbond:SER:67>  (7) 
halogenbond:SER:67    0
halogenbond:SER:67    0
Name: 6, dtype: object

>  <hydroph_interaction:ARG:68>  (7) 
hydroph_interaction:ARG:68    0
hydroph_interaction:ARG:68    0
Name: 6, dtype: object

>  <hbond:ARG:68>  (7) 
hbond:ARG:68    0
hbond:ARG:68    0
Name: 6, dtype: object

>  <saltbridge:ARG:68>  (7) 
saltbridge:ARG:68    0
saltbridge:ARG:68    0
Name: 6, dtype: object

>  <pication:ARG:68>  (7) 
pication:ARG:68    0
pication:ARG:68    0
Name: 6, dtype: object

>  <hydroph_interaction:TYR:72>  (7) 
hydroph_interaction:TYR:72    0
hydroph_interaction:TYR:72    0
Name: 6, dtype: object

>  <hydroph_interaction:VAL:74>  (7) 
hydroph_interaction:VAL:74    0
hydroph_interaction:VAL:74    0
Name: 6, dtype: object

>  <hydroph_interaction:PHE:76>  (7) 
hydroph_interaction:PHE:76    0
hydroph_interaction:PHE:76    0
Name: 6, dtype: object

>  <hbond:SER:77>  (7) 
hbond:SER:77    0
hbond:SER:77    0
Name: 6, dtype: object

>  <hbond:SER:80>  (7) 
hbond:SER:80    0
hbond:SER:80    0
Name: 6, dtype: object

>  <hbond:LEU:81>  (7) 
hbond:LEU:81    0
hbond:LEU:81    0
Name: 6, dtype: object

>  <halogenbond:LEU:81>  (7) 
halogenbond:LEU:81    0
halogenbond:LEU:81    0
Name: 6, dtype: object

>  <hydroph_interaction:LEU:81>  (7) 
hydroph_interaction:LEU:81    0
hydroph_interaction:LEU:81    0
Name: 6, dtype: object

>  <hydroph_interaction:ILE:82>  (7) 
hydroph_interaction:ILE:82    0
hydroph_interaction:ILE:82    0
Name: 6, dtype: object

>  <hbond:ILE:82>  (7) 
hbond:ILE:82    0
hbond:ILE:82    0
Name: 6, dtype: object

>  <hydroph_interaction:PHE:83>  (7) 
hydroph_interaction:PHE:83    0
hydroph_interaction:PHE:83    0
Name: 6, dtype: object

>  <hbond:PHE:83>  (7) 
hbond:PHE:83    0
hbond:PHE:83    0
Name: 6, dtype: object

>  <halogenbond:PHE:83>  (7) 
halogenbond:PHE:83    0
halogenbond:PHE:83    0
Name: 6, dtype: object

>  <pistack:PHE:83>  (7) 
pistack:PHE:83    0
pistack:PHE:83    0
Name: 6, dtype: object

>  <hydroph_interaction:VAL:84>  (7) 
hydroph_interaction:VAL:84    0
hydroph_interaction:VAL:84    0
Name: 6, dtype: object

>  <hbond:VAL:84>  (7) 
hbond:VAL:84    0
hbond:VAL:84    0
Name: 6, dtype: object

>  <halogenbond:VAL:84>  (7) 
halogenbond:VAL:84    0
halogenbond:VAL:84    0
Name: 6, dtype: object

>  <hydroph_interaction:GLU:85>  (7) 
hydroph_interaction:GLU:85    0
hydroph_interaction:GLU:85    0
Name: 6, dtype: object

>  <hbond:GLU:85>  (7) 
hbond:GLU:85    0
hbond:GLU:85    0
Name: 6, dtype: object

>  <saltbridge:GLU:85>  (7) 
saltbridge:GLU:85    0
saltbridge:GLU:85    0
Name: 6, dtype: object

>  <halogenbond:GLU:85>  (7) 
halogenbond:GLU:85    0
halogenbond:GLU:85    0
Name: 6, dtype: object

>  <hbond:ALA:86>  (7) 
hbond:ALA:86    0
hbond:ALA:86    0
Name: 6, dtype: object

>  <halogenbond:ALA:86>  (7) 
halogenbond:ALA:86    0
halogenbond:ALA:86    0
Name: 6, dtype: object

>  <hydroph_interaction:ALA:86>  (7) 
hydroph_interaction:ALA:86    0
hydroph_interaction:ALA:86    0
Name: 6, dtype: object

>  <hbond:SER:87>  (7) 
hbond:SER:87    1
hbond:SER:87    1
Name: 6, dtype: object

>  <halogenbond:SER:87>  (7) 
halogenbond:SER:87    0
halogenbond:SER:87    0
Name: 6, dtype: object

>  <hbond:GLU:88>  (7) 
hbond:GLU:88    0
hbond:GLU:88    0
Name: 6, dtype: object

>  <hydroph_interaction:GLU:88>  (7) 
hydroph_interaction:GLU:88    0
hydroph_interaction:GLU:88    0
Name: 6, dtype: object

>  <halogenbond:GLU:88>  (7) 
halogenbond:GLU:88    0
halogenbond:GLU:88    0
Name: 6, dtype: object

>  <saltbridge:GLU:88>  (7) 
saltbridge:GLU:88    0
saltbridge:GLU:88    0
Name: 6, dtype: object

>  <hydroph_interaction:TYR:89>  (7) 
hydroph_interaction:TYR:89    1
hydroph_interaction:TYR:89    1
Name: 6, dtype: object

>  <pistack:TYR:89>  (7) 
pistack:TYR:89    0
pistack:TYR:89    0
Name: 6, dtype: object

>  <hbond:TYR:89>  (7) 
hbond:TYR:89    0
hbond:TYR:89    0
Name: 6, dtype: object

>  <halogenbond:TYR:89>  (7) 
halogenbond:TYR:89    0
halogenbond:TYR:89    0
Name: 6, dtype: object

>  <hbond:TYR:90>  (7) 
hbond:TYR:90    0
hbond:TYR:90    0
Name: 6, dtype: object

>  <hydroph_interaction:TYR:90>  (7) 
hydroph_interaction:TYR:90    1
hydroph_interaction:TYR:90    1
Name: 6, dtype: object

>  <pistack:TYR:90>  (7) 
pistack:TYR:90    0
pistack:TYR:90    0
Name: 6, dtype: object

>  <halogenbond:TYR:90>  (7) 
halogenbond:TYR:90    0
halogenbond:TYR:90    0
Name: 6, dtype: object

>  <pication:TYR:90>  (7) 
pication:TYR:90    0
pication:TYR:90    0
Name: 6, dtype: object

>  <hydroph_interaction:PRO:91>  (7) 
hydroph_interaction:PRO:91    0
hydroph_interaction:PRO:91    0
Name: 6, dtype: object

>  <halogenbond:PRO:91>  (7) 
halogenbond:PRO:91    0
halogenbond:PRO:91    0
Name: 6, dtype: object

>  <hbond:PRO:91>  (7) 
hbond:PRO:91    0
hbond:PRO:91    0
Name: 6, dtype: object

>  <hydroph_interaction:ALA:92>  (7) 
hydroph_interaction:ALA:92    0
hydroph_interaction:ALA:92    0
Name: 6, dtype: object

>  <hbond:ARG:93>  (7) 
hbond:ARG:93    0
hbond:ARG:93    0
Name: 6, dtype: object

>  <pication:ARG:93>  (7) 
pication:ARG:93    0
pication:ARG:93    0
Name: 6, dtype: object

>  <saltbridge:ARG:93>  (7) 
saltbridge:ARG:93    0
saltbridge:ARG:93    0
Name: 6, dtype: object

>  <hydroph_interaction:ARG:93>  (7) 
hydroph_interaction:ARG:93    0
hydroph_interaction:ARG:93    0
Name: 6, dtype: object

>  <halogenbond:ARG:93>  (7) 
halogenbond:ARG:93    0
halogenbond:ARG:93    0
Name: 6, dtype: object

>  <hydroph_interaction:TYR:94>  (7) 
hydroph_interaction:TYR:94    0
hydroph_interaction:TYR:94    0
Name: 6, dtype: object

>  <hbond:TYR:94>  (7) 
hbond:TYR:94    0
hbond:TYR:94    0
Name: 6, dtype: object

>  <halogenbond:GLN:95>  (7) 
halogenbond:GLN:95    0
halogenbond:GLN:95    0
Name: 6, dtype: object

>  <hbond:GLN:95>  (7) 
hbond:GLN:95    0
hbond:GLN:95    0
Name: 6, dtype: object

>  <hydroph_interaction:GLN:95>  (7) 
hydroph_interaction:GLN:95    0
hydroph_interaction:GLN:95    0
Name: 6, dtype: object

>  <hbond:SER:96>  (7) 
hbond:SER:96    0
hbond:SER:96    0
Name: 6, dtype: object

>  <hydroph_interaction:LEU:98>  (7) 
hydroph_interaction:LEU:98    0
hydroph_interaction:LEU:98    0
Name: 6, dtype: object

>  <hbond:LEU:98>  (7) 
hbond:LEU:98    0
hbond:LEU:98    0
Name: 6, dtype: object

>  <hbond:MET:99>  (7) 
hbond:MET:99    0
hbond:MET:99    0
Name: 6, dtype: object

>  <hydroph_interaction:MET:99>  (7) 
hydroph_interaction:MET:99    0
hydroph_interaction:MET:99    0
Name: 6, dtype: object

>  <halogenbond:MET:99>  (7) 
halogenbond:MET:99    0
halogenbond:MET:99    0
Name: 6, dtype: object

>  <hydroph_interaction:LEU:100>  (7) 
hydroph_interaction:LEU:100    0
hydroph_interaction:LEU:100    0
Name: 6, dtype: object

>  <hbond:LEU:100>  (7) 
hbond:LEU:100    0
hbond:LEU:100    0
Name: 6, dtype: object

>  <hbond:ALA:101>  (7) 
hbond:ALA:101    0
hbond:ALA:101    0
Name: 6, dtype: object

>  <hydroph_interaction:ALA:101>  (7) 
hydroph_interaction:ALA:101    0
hydroph_interaction:ALA:101    0
Name: 6, dtype: object

>  <hydroph_interaction:VAL:102>  (7) 
hydroph_interaction:VAL:102    0
hydroph_interaction:VAL:102    0
Name: 6, dtype: object

>  <hbond:VAL:102>  (7) 
hbond:VAL:102    0
hbond:VAL:102    0
Name: 6, dtype: object

>  <hbond:GLY:103>  (7) 
hbond:GLY:103    0
hbond:GLY:103    0
Name: 6, dtype: object

>  <halogenbond:GLY:103>  (7) 
halogenbond:GLY:103    0
halogenbond:GLY:103    0
Name: 6, dtype: object

>  <hydroph_interaction:HIS:104>  (7) 
hydroph_interaction:HIS:104    0
hydroph_interaction:HIS:104    0
Name: 6, dtype: object

>  <hbond:HIS:104>  (7) 
hbond:HIS:104    0
hbond:HIS:104    0
Name: 6, dtype: object

>  <saltbridge:HIS:104>  (7) 
saltbridge:HIS:104    0
saltbridge:HIS:104    0
Name: 6, dtype: object

>  <pication:HIS:104>  (7) 
pication:HIS:104    0
pication:HIS:104    0
Name: 6, dtype: object

>  <pistack:HIS:104>  (7) 
pistack:HIS:104    0
pistack:HIS:104    0
Name: 6, dtype: object

>  <halogenbond:HIS:104>  (7) 
halogenbond:HIS:104    0
halogenbond:HIS:104    0
Name: 6, dtype: object

>  <hbond:SER:105>  (7) 
hbond:SER:105    0
hbond:SER:105    0
Name: 6, dtype: object

>  <halogenbond:SER:105>  (7) 
halogenbond:SER:105    0
halogenbond:SER:105    0
Name: 6, dtype: object

>  <hbond:GLU:106>  (7) 
hbond:GLU:106    0
hbond:GLU:106    0
Name: 6, dtype: object

>  <hydroph_interaction:GLU:106>  (7) 
hydroph_interaction:GLU:106    0
hydroph_interaction:GLU:106    0
Name: 6, dtype: object

>  <saltbridge:GLU:106>  (7) 
saltbridge:GLU:106    0
saltbridge:GLU:106    0
Name: 6, dtype: object

>  <halogenbond:GLU:106>  (7) 
halogenbond:GLU:106    0
halogenbond:GLU:106    0
Name: 6, dtype: object

>  <hydroph_interaction:PRO:107>  (7) 
hydroph_interaction:PRO:107    2
hydroph_interaction:PRO:107    2
Name: 6, dtype: object

>  <hbond:PRO:107>  (7) 
hbond:PRO:107    0
hbond:PRO:107    0
Name: 6, dtype: object

>  <halogenbond:PRO:107>  (7) 
halogenbond:PRO:107    0
halogenbond:PRO:107    0
Name: 6, dtype: object

>  <hbond:GLY:108>  (7) 
hbond:GLY:108    0
hbond:GLY:108    0
Name: 6, dtype: object

>  <halogenbond:GLY:108>  (7) 
halogenbond:GLY:108    0
halogenbond:GLY:108    0
Name: 6, dtype: object

>  <hbond:ASP:109>  (7) 
hbond:ASP:109    0
hbond:ASP:109    0
Name: 6, dtype: object

>  <hydroph_interaction:ASP:109>  (7) 
hydroph_interaction:ASP:109    0
hydroph_interaction:ASP:109    0
Name: 6, dtype: object

>  <saltbridge:ASP:109>  (7) 
saltbridge:ASP:109    0
saltbridge:ASP:109    0
Name: 6, dtype: object

>  <hbond:CYS:110>  (7) 
hbond:CYS:110    0
hbond:CYS:110    0
Name: 6, dtype: object

>  <halogenbond:CYS:110>  (7) 
halogenbond:CYS:110    1
halogenbond:CYS:110    1
Name: 6, dtype: object

>  <hbond:GLY:111>  (7) 
hbond:GLY:111    0
hbond:GLY:111    0
Name: 6, dtype: object

>  <hbond:GLY:112>  (7) 
hbond:GLY:112    0
hbond:GLY:112    0
Name: 6, dtype: object

>  <hbond:ILE:113>  (7) 
hbond:ILE:113    0
hbond:ILE:113    0
Name: 6, dtype: object

>  <hydroph_interaction:LEU:114>  (7) 
hydroph_interaction:LEU:114    0
hydroph_interaction:LEU:114    0
Name: 6, dtype: object

>  <hbond:LEU:114>  (7) 
hbond:LEU:114    0
hbond:LEU:114    0
Name: 6, dtype: object

>  <hydroph_interaction:ILE:123>  (7) 
hydroph_interaction:ILE:123    0
hydroph_interaction:ILE:123    0
Name: 6, dtype: object

>  <hbond:ILE:123>  (7) 
hbond:ILE:123    0
hbond:ILE:123    0
Name: 6, dtype: object

>  <hydroph_interaction:VAL:124>  (7) 
hydroph_interaction:VAL:124    1
hydroph_interaction:VAL:124    1
Name: 6, dtype: object

>  <hbond:VAL:124>  (7) 
hbond:VAL:124    0
hbond:VAL:124    0
Name: 6, dtype: object

>  <halogenbond:VAL:124>  (7) 
halogenbond:VAL:124    0
halogenbond:VAL:124    0
Name: 6, dtype: object

>  <hbond:SER:125>  (7) 
hbond:SER:125    1
hbond:SER:125    1
Name: 6, dtype: object

>  <halogenbond:SER:125>  (7) 
halogenbond:SER:125    0
halogenbond:SER:125    0
Name: 6, dtype: object

>  <hydroph_interaction:THR:126>  (7) 
hydroph_interaction:THR:126    0
hydroph_interaction:THR:126    0
Name: 6, dtype: object

>  <hbond:THR:126>  (7) 
hbond:THR:126    0
hbond:THR:126    0
Name: 6, dtype: object

>  <halogenbond:THR:126>  (7) 
halogenbond:THR:126    0
halogenbond:THR:126    0
Name: 6, dtype: object

>  <hbond:GLY:127>  (7) 
hbond:GLY:127    0
hbond:GLY:127    0
Name: 6, dtype: object

>  <halogenbond:GLY:127>  (7) 
halogenbond:GLY:127    0
halogenbond:GLY:127    0
Name: 6, dtype: object

>  <hydroph_interaction:GLY:127>  (7) 
hydroph_interaction:GLY:127    0
hydroph_interaction:GLY:127    0
Name: 6, dtype: object

>  <hbond:GLY:128>  (7) 
hbond:GLY:128    0
hbond:GLY:128    0
Name: 6, dtype: object

>  <halogenbond:GLY:128>  (7) 
halogenbond:GLY:128    0
halogenbond:GLY:128    0
Name: 6, dtype: object

>  <hydroph_interaction:GLY:128>  (7) 
hydroph_interaction:GLY:128    0
hydroph_interaction:GLY:128    0
Name: 6, dtype: object

>  <hbond:ASN:129>  (7) 
hbond:ASN:129    0
hbond:ASN:129    0
Name: 6, dtype: object

>  <hydroph_interaction:ASN:129>  (7) 
hydroph_interaction:ASN:129    0
hydroph_interaction:ASN:129    0
Name: 6, dtype: object

>  <halogenbond:ASN:129>  (7) 
halogenbond:ASN:129    0
halogenbond:ASN:129    0
Name: 6, dtype: object

>  <hbond:GLY:130>  (7) 
hbond:GLY:130    0
hbond:GLY:130    0
Name: 6, dtype: object

>  <hydroph_interaction:LEU:131>  (7) 
hydroph_interaction:LEU:131    0
hydroph_interaction:LEU:131    0
Name: 6, dtype: object

>  <hbond:LEU:131>  (7) 
hbond:LEU:131    0
hbond:LEU:131    0
Name: 6, dtype: object

>  <halogenbond:LEU:131>  (7) 
halogenbond:LEU:131    0
halogenbond:LEU:131    0
Name: 6, dtype: object

>  <hydroph_interaction:VAL:132>  (7) 
hydroph_interaction:VAL:132    0
hydroph_interaction:VAL:132    0
Name: 6, dtype: object

>  <hbond:VAL:132>  (7) 
hbond:VAL:132    0
hbond:VAL:132    0
Name: 6, dtype: object

>  <hbond:GLY:133>  (7) 
hbond:GLY:133    0
hbond:GLY:133    0
Name: 6, dtype: object

>  <halogenbond:GLY:133>  (7) 
halogenbond:GLY:133    0
halogenbond:GLY:133    0
Name: 6, dtype: object

>  <hydroph_interaction:PHE:134>  (7) 
hydroph_interaction:PHE:134    0
hydroph_interaction:PHE:134    0
Name: 6, dtype: object

>  <hbond:PHE:134>  (7) 
hbond:PHE:134    0
hbond:PHE:134    0
Name: 6, dtype: object

>  <pistack:PHE:134>  (7) 
pistack:PHE:134    0
pistack:PHE:134    0
Name: 6, dtype: object

>  <pication:PHE:134>  (7) 
pication:PHE:134    0
pication:PHE:134    0
Name: 6, dtype: object

>  <hydroph_interaction:ALA:135>  (7) 
hydroph_interaction:ALA:135    0
hydroph_interaction:ALA:135    0
Name: 6, dtype: object

>  <hbond:ALA:135>  (7) 
hbond:ALA:135    0
hbond:ALA:135    0
Name: 6, dtype: object

$$$$
Z131824262
     RDKit          3D

 53 54  0  0  0  0  0  0  0  0999 V2000
    6.4370   10.4200   26.0100 C   0  0  0  0  0  0  0  0  0  0  0  0
    7.5300   10.8170   25.0810 C   0  0  0  0  0  0  0  0  0  0  0  0
    8.3920    9.9570   24.3630 C   0  0  0  0  0  0  0  0  0  0  0  0
    9.3900   10.4400   23.4940 C   0  0  0  0  0  0  0  0  0  0  0  0
   10.2520    9.4550   22.7540 C   0  0  0  0  0  0  0  0  0  0  0  0
    9.5010   11.8240   23.3800 C   0  0  0  0  0  0  0  0  0  0  0  0
   10.4280   12.5400   22.5990 N   0  0  0  0  0  0  0  0  0  0  0  0
   11.2760   13.4660   23.1710 C   0  0  0  0  0  0  0  0  0  0  0  0
   11.1030   13.9590   24.2760 O   0  0  0  0  0  0  0  0  0  0  0  0
   12.4750   13.8360   22.3200 C   0  0  0  0  0  0  0  0  0  0  0  0
   13.1820   15.0570   22.8460 C   0  0  0  0  0  0  0  0  0  0  0  0
   13.8120   14.7430   24.2200 C   0  0  0  0  0  0  0  0  0  0  0  0
   14.7310   13.5870   24.3340 N   0  0  0  0  0  0  0  0  0  0  0  0
   15.5990   13.3530   23.1590 C   0  0  0  0  0  0  0  0  0  0  0  0
   16.9480   12.6160   23.3620 C   0  0  0  0  0  0  0  0  0  0  0  0
   17.3770   12.2900   24.8210 C   0  0  0  0  0  0  0  0  0  0  0  0
   18.0040   10.9020   24.9590 C   0  0  0  0  0  0  0  0  0  0  0  0
   18.5520   10.3730   23.8290 N   0  0  0  0  0  0  0  0  0  0  0  0
   18.0450   10.2580   26.0000 O   0  0  0  0  0  0  0  0  0  0  0  0
   16.2600   12.4330   25.8550 C   0  0  0  0  0  0  0  0  0  0  0  0
   15.4650   13.6860   25.5930 C   0  0  0  0  0  0  0  0  0  0  0  0
    8.6180   12.6310   24.1100 C   0  0  0  0  0  0  0  0  0  0  0  0
    8.6420   14.0870   24.0470 C   0  0  0  0  0  0  0  0  0  0  0  0
    7.6670   12.1370   24.9340 C   0  0  0  0  0  0  0  0  0  0  0  0
    6.7980   10.1060   26.9880 H   0  0  0  0  0  0  0  0  0  0  0  0
    5.7840   11.2790   26.1870 H   0  0  0  0  0  0  0  0  0  0  0  0
    5.8380    9.6280   25.5770 H   0  0  0  0  0  0  0  0  0  0  0  0
    8.2860    8.8960   24.4710 H   0  0  0  0  0  0  0  0  0  0  0  0
   10.9710    8.9610   23.4040 H   0  0  0  0  0  0  0  0  0  0  0  0
    9.6540    8.7310   22.2050 H   0  0  0  0  0  0  0  0  0  0  0  0
   10.8130    9.9780   21.9750 H   0  0  0  0  0  0  0  0  0  0  0  0
   10.6740   12.2060   21.6650 H   0  0  0  0  0  0  0  0  0  0  0  0
   12.1800   13.9280   21.2750 H   0  0  0  0  0  0  0  0  0  0  0  0
   13.1850   13.0440   22.3860 H   0  0  0  0  0  0  0  0  0  0  0  0
   12.4970   15.9110   22.9080 H   0  0  0  0  0  0  0  0  0  0  0  0
   13.9790   15.3480   22.1540 H   0  0  0  0  0  0  0  0  0  0  0  0
   14.3690   15.6230   24.5240 H   0  0  0  0  0  0  0  0  0  0  0  0
   12.9990   14.6450   24.9480 H   0  0  0  0  0  0  0  0  0  0  0  0
   15.8240   14.3180   22.7280 H   0  0  0  0  0  0  0  0  0  0  0  0
   15.0480   12.8600   22.3580 H   0  0  0  0  0  0  0  0  0  0  0  0
   16.9350   11.7140   22.7440 H   0  0  0  0  0  0  0  0  0  0  0  0
   17.7290   13.2470   22.9180 H   0  0  0  0  0  0  0  0  0  0  0  0
   18.1730   13.0010   25.0890 H   0  0  0  0  0  0  0  0  0  0  0  0
   19.5570   10.2320   23.8500 H   0  0  0  0  0  0  0  0  0  0  0  0
   18.0590   10.3760   22.9470 H   0  0  0  0  0  0  0  0  0  0  0  0
   16.6950   12.4690   26.8620 H   0  0  0  0  0  0  0  0  0  0  0  0
   15.5890   11.5720   25.8470 H   0  0  0  0  0  0  0  0  0  0  0  0
   16.1510   14.5390   25.5890 H   0  0  0  0  0  0  0  0  0  0  0  0
   14.7630   13.8400   26.4170 H   0  0  0  0  0  0  0  0  0  0  0  0
    9.2690   14.3730   23.2080 H   0  0  0  0  0  0  0  0  0  0  0  0
    9.0340   14.5070   24.9800 H   0  0  0  0  0  0  0  0  0  0  0  0
    7.6490   14.5140   23.8770 H   0  0  0  0  0  0  0  0  0  0  0  0
    7.0100   12.8100   25.4790 H   0  0  0  0  0  0  0  0  0  0  0  0
  1  2  1  0
  2  3  2  0
  3  4  1  0
  4  5  1  0
  4  6  2  0
  6  7  1  0
  7  8  1  0
  8  9  2  0
  8 10  1  0
 10 11  1  0
 11 12  1  0
 12 13  1  0
 13 14  1  0
 14 15  1  0
 15 16  1  0
 16 17  1  0
 17 18  1  0
 17 19  2  0
 16 20  1  0
 20 21  1  0
  6 22  1  0
 22 23  1  0
 22 24  2  0
 24  2  1  0
 21 13  1  0
  1 25  1  0
  1 26  1  0
  1 27  1  0
  3 28  1  0
  5 29  1  0
  5 30  1  0
  5 31  1  0
  7 32  1  0
 10 33  1  0
 10 34  1  0
 11 35  1  0
 11 36  1  0
 12 37  1  0
 12 38  1  0
 14 39  1  0
 14 40  1  0
 15 41  1  0
 15 42  1  0
 16 43  1  0
 18 44  1  0
 18 45  1  0
 20 46  1  0
 20 47  1  0
 21 48  1  0
 21 49  1  0
 23 50  1  0
 23 51  1  0
 23 52  1  0
 24 53  1  0
A    1
 C1 
A    2
 C2 
A    3
 C3 
A    4
 C4 
A    5
 C5 
A    6
 C6 
A    7
 N1 
A    8
 C7 
A    9
 O1 
A   10
 C8 
A   11
 C9 
A   12
 C10
A   13
 N2 
A   14
 C11
A   15
 C12
A   16
 C13
A   17
 C14
A   18
 N3 
A   19
 O2 
A   20
 C15
A   21
 C16
A   22
 C17
A   23
 C18
A   24
 C19
A   25
 H1 
A   26
 H2 
A   27
 H3 
A   28
 H4 
A   29
 H5 
A   30
 H6 
A   31
 H7 
A   32
 H8 
A   33
 H9 
A   34
 H10
A   35
 H11
A   36
 H12
A   37
 H13
A   38
 H14
A   39
 H15
A   40
 H16
A   41
 H17
A   42
 H18
A   43
 H19
A   44
 H20
A   45
 H21
A   46
 H22
A   47
 H23
A   48
 H24
A   49
 H25
A   50
 H26
A   51
 H27
A   52
 H28
A   53
 H29
M  END
>  <ref_pdb>  (8) 
x0310_0A

>  <ref_mols>  (8) 
x0310_0A,x0310_0A

>  <original SMILES>  (8) 
Cc1cc(C)c(NC(=O)CCCN2CCC(C(N)=O)CC2)c(C)c1

>  <rationale>  (8) 
info hbond:S125+S87+S7; hydroph_interaction:V124+Y90; 

>  <intxn_cluster>  (8) 
100

>  <intxn_cluster_rank>  (8) 
2

>  <N_interactions>  (8) 
6

>  <∆∆G>  (8) 
-12.0888

>  <$/mg>  (8) 
163.0

>  <comRMSD>  (8) 
0.573397

>  <N_rotatable_bonds>  (8) 
9

>  <N_analogues_07>  (8) 
6

>  <deep_P1_sidechain>  (8) 
True

>  <farthest_distance_to_substrate>  (8) 
4.331341

>  <hbond:SER:7>  (8) 
hbond:SER:7    2
hbond:SER:7    2
Name: 7, dtype: object

>  <halogenbond:SER:7>  (8) 
halogenbond:SER:7    0
halogenbond:SER:7    0
Name: 7, dtype: object

>  <hbond:GLY:8>  (8) 
hbond:GLY:8    0
hbond:GLY:8    0
Name: 7, dtype: object

>  <hydroph_interaction:ASN:19>  (8) 
hydroph_interaction:ASN:19    0
hydroph_interaction:ASN:19    0
Name: 7, dtype: object

>  <hbond:ASN:19>  (8) 
hbond:ASN:19    0
hbond:ASN:19    0
Name: 7, dtype: object

>  <halogenbond:ASN:19>  (8) 
halogenbond:ASN:19    0
halogenbond:ASN:19    0
Name: 7, dtype: object

>  <hbond:ARG:20>  (8) 
hbond:ARG:20    0
hbond:ARG:20    0
Name: 7, dtype: object

>  <hydroph_interaction:ARG:20>  (8) 
hydroph_interaction:ARG:20    0
hydroph_interaction:ARG:20    0
Name: 7, dtype: object

>  <saltbridge:ARG:20>  (8) 
saltbridge:ARG:20    0
saltbridge:ARG:20    0
Name: 7, dtype: object

>  <halogenbond:ARG:20>  (8) 
halogenbond:ARG:20    0
halogenbond:ARG:20    0
Name: 7, dtype: object

>  <pication:ARG:20>  (8) 
pication:ARG:20    0
pication:ARG:20    0
Name: 7, dtype: object

>  <hbond:HIS:21>  (8) 
hbond:HIS:21    0
hbond:HIS:21    0
Name: 7, dtype: object

>  <hydroph_interaction:HIS:21>  (8) 
hydroph_interaction:HIS:21    0
hydroph_interaction:HIS:21    0
Name: 7, dtype: object

>  <saltbridge:HIS:21>  (8) 
saltbridge:HIS:21    0
saltbridge:HIS:21    0
Name: 7, dtype: object

>  <pistack:HIS:21>  (8) 
pistack:HIS:21    0
pistack:HIS:21    0
Name: 7, dtype: object

>  <pication:HIS:21>  (8) 
pication:HIS:21    0
pication:HIS:21    0
Name: 7, dtype: object

>  <halogenbond:HIS:21>  (8) 
halogenbond:HIS:21    0
halogenbond:HIS:21    0
Name: 7, dtype: object

>  <hydroph_interaction:LEU:22>  (8) 
hydroph_interaction:LEU:22    0
hydroph_interaction:LEU:22    0
Name: 7, dtype: object

>  <hbond:LEU:22>  (8) 
hbond:LEU:22    0
hbond:LEU:22    0
Name: 7, dtype: object

>  <hydroph_interaction:TRP:28>  (8) 
hydroph_interaction:TRP:28    0
hydroph_interaction:TRP:28    0
Name: 7, dtype: object

>  <hbond:SER:36>  (8) 
hbond:SER:36    0
hbond:SER:36    0
Name: 7, dtype: object

>  <halogenbond:SER:36>  (8) 
halogenbond:SER:36    0
halogenbond:SER:36    0
Name: 7, dtype: object

>  <hbond:ARG:38>  (8) 
hbond:ARG:38    0
hbond:ARG:38    0
Name: 7, dtype: object

>  <halogenbond:ARG:38>  (8) 
halogenbond:ARG:38    0
halogenbond:ARG:38    0
Name: 7, dtype: object

>  <hbond:ASP:39>  (8) 
hbond:ASP:39    0
hbond:ASP:39    0
Name: 7, dtype: object

>  <saltbridge:ASP:39>  (8) 
saltbridge:ASP:39    0
saltbridge:ASP:39    0
Name: 7, dtype: object

>  <hydroph_interaction:ASP:39>  (8) 
hydroph_interaction:ASP:39    0
hydroph_interaction:ASP:39    0
Name: 7, dtype: object

>  <halogenbond:ASP:39>  (8) 
halogenbond:ASP:39    0
halogenbond:ASP:39    0
Name: 7, dtype: object

>  <hydroph_interaction:LEU:40>  (8) 
hydroph_interaction:LEU:40    0
hydroph_interaction:LEU:40    0
Name: 7, dtype: object

>  <hydroph_interaction:TYR:63>  (8) 
hydroph_interaction:TYR:63    0
hydroph_interaction:TYR:63    0
Name: 7, dtype: object

>  <pistack:TYR:63>  (8) 
pistack:TYR:63    0
pistack:TYR:63    0
Name: 7, dtype: object

>  <hbond:TYR:63>  (8) 
hbond:TYR:63    0
hbond:TYR:63    0
Name: 7, dtype: object

>  <hbond:TYR:64>  (8) 
hbond:TYR:64    0
hbond:TYR:64    0
Name: 7, dtype: object

>  <halogenbond:TYR:64>  (8) 
halogenbond:TYR:64    0
halogenbond:TYR:64    0
Name: 7, dtype: object

>  <hydroph_interaction:TYR:64>  (8) 
hydroph_interaction:TYR:64    0
hydroph_interaction:TYR:64    0
Name: 7, dtype: object

>  <hbond:CYS:65>  (8) 
hbond:CYS:65    0
hbond:CYS:65    0
Name: 7, dtype: object

>  <halogenbond:CYS:65>  (8) 
halogenbond:CYS:65    0
halogenbond:CYS:65    0
Name: 7, dtype: object

>  <hbond:SER:66>  (8) 
hbond:SER:66    0
hbond:SER:66    0
Name: 7, dtype: object

>  <hbond:SER:67>  (8) 
hbond:SER:67    0
hbond:SER:67    0
Name: 7, dtype: object

>  <halogenbond:SER:67>  (8) 
halogenbond:SER:67    0
halogenbond:SER:67    0
Name: 7, dtype: object

>  <hydroph_interaction:ARG:68>  (8) 
hydroph_interaction:ARG:68    0
hydroph_interaction:ARG:68    0
Name: 7, dtype: object

>  <hbond:ARG:68>  (8) 
hbond:ARG:68    0
hbond:ARG:68    0
Name: 7, dtype: object

>  <saltbridge:ARG:68>  (8) 
saltbridge:ARG:68    0
saltbridge:ARG:68    0
Name: 7, dtype: object

>  <pication:ARG:68>  (8) 
pication:ARG:68    0
pication:ARG:68    0
Name: 7, dtype: object

>  <hydroph_interaction:TYR:72>  (8) 
hydroph_interaction:TYR:72    0
hydroph_interaction:TYR:72    0
Name: 7, dtype: object

>  <hydroph_interaction:VAL:74>  (8) 
hydroph_interaction:VAL:74    0
hydroph_interaction:VAL:74    0
Name: 7, dtype: object

>  <hydroph_interaction:PHE:76>  (8) 
hydroph_interaction:PHE:76    0
hydroph_interaction:PHE:76    0
Name: 7, dtype: object

>  <hbond:SER:77>  (8) 
hbond:SER:77    0
hbond:SER:77    0
Name: 7, dtype: object

>  <hbond:SER:80>  (8) 
hbond:SER:80    0
hbond:SER:80    0
Name: 7, dtype: object

>  <hbond:LEU:81>  (8) 
hbond:LEU:81    0
hbond:LEU:81    0
Name: 7, dtype: object

>  <halogenbond:LEU:81>  (8) 
halogenbond:LEU:81    0
halogenbond:LEU:81    0
Name: 7, dtype: object

>  <hydroph_interaction:LEU:81>  (8) 
hydroph_interaction:LEU:81    0
hydroph_interaction:LEU:81    0
Name: 7, dtype: object

>  <hydroph_interaction:ILE:82>  (8) 
hydroph_interaction:ILE:82    0
hydroph_interaction:ILE:82    0
Name: 7, dtype: object

>  <hbond:ILE:82>  (8) 
hbond:ILE:82    0
hbond:ILE:82    0
Name: 7, dtype: object

>  <hydroph_interaction:PHE:83>  (8) 
hydroph_interaction:PHE:83    0
hydroph_interaction:PHE:83    0
Name: 7, dtype: object

>  <hbond:PHE:83>  (8) 
hbond:PHE:83    0
hbond:PHE:83    0
Name: 7, dtype: object

>  <halogenbond:PHE:83>  (8) 
halogenbond:PHE:83    0
halogenbond:PHE:83    0
Name: 7, dtype: object

>  <pistack:PHE:83>  (8) 
pistack:PHE:83    0
pistack:PHE:83    0
Name: 7, dtype: object

>  <hydroph_interaction:VAL:84>  (8) 
hydroph_interaction:VAL:84    0
hydroph_interaction:VAL:84    0
Name: 7, dtype: object

>  <hbond:VAL:84>  (8) 
hbond:VAL:84    0
hbond:VAL:84    0
Name: 7, dtype: object

>  <halogenbond:VAL:84>  (8) 
halogenbond:VAL:84    0
halogenbond:VAL:84    0
Name: 7, dtype: object

>  <hydroph_interaction:GLU:85>  (8) 
hydroph_interaction:GLU:85    0
hydroph_interaction:GLU:85    0
Name: 7, dtype: object

>  <hbond:GLU:85>  (8) 
hbond:GLU:85    0
hbond:GLU:85    0
Name: 7, dtype: object

>  <saltbridge:GLU:85>  (8) 
saltbridge:GLU:85    0
saltbridge:GLU:85    0
Name: 7, dtype: object

>  <halogenbond:GLU:85>  (8) 
halogenbond:GLU:85    0
halogenbond:GLU:85    0
Name: 7, dtype: object

>  <hbond:ALA:86>  (8) 
hbond:ALA:86    0
hbond:ALA:86    0
Name: 7, dtype: object

>  <halogenbond:ALA:86>  (8) 
halogenbond:ALA:86    0
halogenbond:ALA:86    0
Name: 7, dtype: object

>  <hydroph_interaction:ALA:86>  (8) 
hydroph_interaction:ALA:86    0
hydroph_interaction:ALA:86    0
Name: 7, dtype: object

>  <hbond:SER:87>  (8) 
hbond:SER:87    1
hbond:SER:87    1
Name: 7, dtype: object

>  <halogenbond:SER:87>  (8) 
halogenbond:SER:87    0
halogenbond:SER:87    0
Name: 7, dtype: object

>  <hbond:GLU:88>  (8) 
hbond:GLU:88    0
hbond:GLU:88    0
Name: 7, dtype: object

>  <hydroph_interaction:GLU:88>  (8) 
hydroph_interaction:GLU:88    0
hydroph_interaction:GLU:88    0
Name: 7, dtype: object

>  <halogenbond:GLU:88>  (8) 
halogenbond:GLU:88    0
halogenbond:GLU:88    0
Name: 7, dtype: object

>  <saltbridge:GLU:88>  (8) 
saltbridge:GLU:88    0
saltbridge:GLU:88    0
Name: 7, dtype: object

>  <hydroph_interaction:TYR:89>  (8) 
hydroph_interaction:TYR:89    0
hydroph_interaction:TYR:89    0
Name: 7, dtype: object

>  <pistack:TYR:89>  (8) 
pistack:TYR:89    0
pistack:TYR:89    0
Name: 7, dtype: object

>  <hbond:TYR:89>  (8) 
hbond:TYR:89    0
hbond:TYR:89    0
Name: 7, dtype: object

>  <halogenbond:TYR:89>  (8) 
halogenbond:TYR:89    0
halogenbond:TYR:89    0
Name: 7, dtype: object

>  <hbond:TYR:90>  (8) 
hbond:TYR:90    0
hbond:TYR:90    0
Name: 7, dtype: object

>  <hydroph_interaction:TYR:90>  (8) 
hydroph_interaction:TYR:90    1
hydroph_interaction:TYR:90    1
Name: 7, dtype: object

>  <pistack:TYR:90>  (8) 
pistack:TYR:90    0
pistack:TYR:90    0
Name: 7, dtype: object

>  <halogenbond:TYR:90>  (8) 
halogenbond:TYR:90    0
halogenbond:TYR:90    0
Name: 7, dtype: object

>  <pication:TYR:90>  (8) 
pication:TYR:90    0
pication:TYR:90    0
Name: 7, dtype: object

>  <hydroph_interaction:PRO:91>  (8) 
hydroph_interaction:PRO:91    0
hydroph_interaction:PRO:91    0
Name: 7, dtype: object

>  <halogenbond:PRO:91>  (8) 
halogenbond:PRO:91    0
halogenbond:PRO:91    0
Name: 7, dtype: object

>  <hbond:PRO:91>  (8) 
hbond:PRO:91    0
hbond:PRO:91    0
Name: 7, dtype: object

>  <hydroph_interaction:ALA:92>  (8) 
hydroph_interaction:ALA:92    0
hydroph_interaction:ALA:92    0
Name: 7, dtype: object

>  <hbond:ARG:93>  (8) 
hbond:ARG:93    0
hbond:ARG:93    0
Name: 7, dtype: object

>  <pication:ARG:93>  (8) 
pication:ARG:93    0
pication:ARG:93    0
Name: 7, dtype: object

>  <saltbridge:ARG:93>  (8) 
saltbridge:ARG:93    0
saltbridge:ARG:93    0
Name: 7, dtype: object

>  <hydroph_interaction:ARG:93>  (8) 
hydroph_interaction:ARG:93    0
hydroph_interaction:ARG:93    0
Name: 7, dtype: object

>  <halogenbond:ARG:93>  (8) 
halogenbond:ARG:93    0
halogenbond:ARG:93    0
Name: 7, dtype: object

>  <hydroph_interaction:TYR:94>  (8) 
hydroph_interaction:TYR:94    0
hydroph_interaction:TYR:94    0
Name: 7, dtype: object

>  <hbond:TYR:94>  (8) 
hbond:TYR:94    0
hbond:TYR:94    0
Name: 7, dtype: object

>  <halogenbond:GLN:95>  (8) 
halogenbond:GLN:95    0
halogenbond:GLN:95    0
Name: 7, dtype: object

>  <hbond:GLN:95>  (8) 
hbond:GLN:95    0
hbond:GLN:95    0
Name: 7, dtype: object

>  <hydroph_interaction:GLN:95>  (8) 
hydroph_interaction:GLN:95    0
hydroph_interaction:GLN:95    0
Name: 7, dtype: object

>  <hbond:SER:96>  (8) 
hbond:SER:96    0
hbond:SER:96    0
Name: 7, dtype: object

>  <hydroph_interaction:LEU:98>  (8) 
hydroph_interaction:LEU:98    0
hydroph_interaction:LEU:98    0
Name: 7, dtype: object

>  <hbond:LEU:98>  (8) 
hbond:LEU:98    0
hbond:LEU:98    0
Name: 7, dtype: object

>  <hbond:MET:99>  (8) 
hbond:MET:99    0
hbond:MET:99    0
Name: 7, dtype: object

>  <hydroph_interaction:MET:99>  (8) 
hydroph_interaction:MET:99    0
hydroph_interaction:MET:99    0
Name: 7, dtype: object

>  <halogenbond:MET:99>  (8) 
halogenbond:MET:99    0
halogenbond:MET:99    0
Name: 7, dtype: object

>  <hydroph_interaction:LEU:100>  (8) 
hydroph_interaction:LEU:100    0
hydroph_interaction:LEU:100    0
Name: 7, dtype: object

>  <hbond:LEU:100>  (8) 
hbond:LEU:100    0
hbond:LEU:100    0
Name: 7, dtype: object

>  <hbond:ALA:101>  (8) 
hbond:ALA:101    0
hbond:ALA:101    0
Name: 7, dtype: object

>  <hydroph_interaction:ALA:101>  (8) 
hydroph_interaction:ALA:101    0
hydroph_interaction:ALA:101    0
Name: 7, dtype: object

>  <hydroph_interaction:VAL:102>  (8) 
hydroph_interaction:VAL:102    0
hydroph_interaction:VAL:102    0
Name: 7, dtype: object

>  <hbond:VAL:102>  (8) 
hbond:VAL:102    0
hbond:VAL:102    0
Name: 7, dtype: object

>  <hbond:GLY:103>  (8) 
hbond:GLY:103    0
hbond:GLY:103    0
Name: 7, dtype: object

>  <halogenbond:GLY:103>  (8) 
halogenbond:GLY:103    0
halogenbond:GLY:103    0
Name: 7, dtype: object

>  <hydroph_interaction:HIS:104>  (8) 
hydroph_interaction:HIS:104    0
hydroph_interaction:HIS:104    0
Name: 7, dtype: object

>  <hbond:HIS:104>  (8) 
hbond:HIS:104    0
hbond:HIS:104    0
Name: 7, dtype: object

>  <saltbridge:HIS:104>  (8) 
saltbridge:HIS:104    0
saltbridge:HIS:104    0
Name: 7, dtype: object

>  <pication:HIS:104>  (8) 
pication:HIS:104    0
pication:HIS:104    0
Name: 7, dtype: object

>  <pistack:HIS:104>  (8) 
pistack:HIS:104    0
pistack:HIS:104    0
Name: 7, dtype: object

>  <halogenbond:HIS:104>  (8) 
halogenbond:HIS:104    0
halogenbond:HIS:104    0
Name: 7, dtype: object

>  <hbond:SER:105>  (8) 
hbond:SER:105    0
hbond:SER:105    0
Name: 7, dtype: object

>  <halogenbond:SER:105>  (8) 
halogenbond:SER:105    0
halogenbond:SER:105    0
Name: 7, dtype: object

>  <hbond:GLU:106>  (8) 
hbond:GLU:106    0
hbond:GLU:106    0
Name: 7, dtype: object

>  <hydroph_interaction:GLU:106>  (8) 
hydroph_interaction:GLU:106    0
hydroph_interaction:GLU:106    0
Name: 7, dtype: object

>  <saltbridge:GLU:106>  (8) 
saltbridge:GLU:106    0
saltbridge:GLU:106    0
Name: 7, dtype: object

>  <halogenbond:GLU:106>  (8) 
halogenbond:GLU:106    0
halogenbond:GLU:106    0
Name: 7, dtype: object

>  <hydroph_interaction:PRO:107>  (8) 
hydroph_interaction:PRO:107    0
hydroph_interaction:PRO:107    0
Name: 7, dtype: object

>  <hbond:PRO:107>  (8) 
hbond:PRO:107    0
hbond:PRO:107    0
Name: 7, dtype: object

>  <halogenbond:PRO:107>  (8) 
halogenbond:PRO:107    0
halogenbond:PRO:107    0
Name: 7, dtype: object

>  <hbond:GLY:108>  (8) 
hbond:GLY:108    0
hbond:GLY:108    0
Name: 7, dtype: object

>  <halogenbond:GLY:108>  (8) 
halogenbond:GLY:108    0
halogenbond:GLY:108    0
Name: 7, dtype: object

>  <hbond:ASP:109>  (8) 
hbond:ASP:109    0
hbond:ASP:109    0
Name: 7, dtype: object

>  <hydroph_interaction:ASP:109>  (8) 
hydroph_interaction:ASP:109    0
hydroph_interaction:ASP:109    0
Name: 7, dtype: object

>  <saltbridge:ASP:109>  (8) 
saltbridge:ASP:109    0
saltbridge:ASP:109    0
Name: 7, dtype: object

>  <hbond:CYS:110>  (8) 
hbond:CYS:110    0
hbond:CYS:110    0
Name: 7, dtype: object

>  <halogenbond:CYS:110>  (8) 
halogenbond:CYS:110    0
halogenbond:CYS:110    0
Name: 7, dtype: object

>  <hbond:GLY:111>  (8) 
hbond:GLY:111    0
hbond:GLY:111    0
Name: 7, dtype: object

>  <hbond:GLY:112>  (8) 
hbond:GLY:112    0
hbond:GLY:112    0
Name: 7, dtype: object

>  <hbond:ILE:113>  (8) 
hbond:ILE:113    0
hbond:ILE:113    0
Name: 7, dtype: object

>  <hydroph_interaction:LEU:114>  (8) 
hydroph_interaction:LEU:114    0
hydroph_interaction:LEU:114    0
Name: 7, dtype: object

>  <hbond:LEU:114>  (8) 
hbond:LEU:114    0
hbond:LEU:114    0
Name: 7, dtype: object

>  <hydroph_interaction:ILE:123>  (8) 
hydroph_interaction:ILE:123    0
hydroph_interaction:ILE:123    0
Name: 7, dtype: object

>  <hbond:ILE:123>  (8) 
hbond:ILE:123    0
hbond:ILE:123    0
Name: 7, dtype: object

>  <hydroph_interaction:VAL:124>  (8) 
hydroph_interaction:VAL:124    1
hydroph_interaction:VAL:124    1
Name: 7, dtype: object

>  <hbond:VAL:124>  (8) 
hbond:VAL:124    0
hbond:VAL:124    0
Name: 7, dtype: object

>  <halogenbond:VAL:124>  (8) 
halogenbond:VAL:124    0
halogenbond:VAL:124    0
Name: 7, dtype: object

>  <hbond:SER:125>  (8) 
hbond:SER:125    1
hbond:SER:125    1
Name: 7, dtype: object

>  <halogenbond:SER:125>  (8) 
halogenbond:SER:125    0
halogenbond:SER:125    0
Name: 7, dtype: object

>  <hydroph_interaction:THR:126>  (8) 
hydroph_interaction:THR:126    0
hydroph_interaction:THR:126    0
Name: 7, dtype: object

>  <hbond:THR:126>  (8) 
hbond:THR:126    0
hbond:THR:126    0
Name: 7, dtype: object

>  <halogenbond:THR:126>  (8) 
halogenbond:THR:126    0
halogenbond:THR:126    0
Name: 7, dtype: object

>  <hbond:GLY:127>  (8) 
hbond:GLY:127    0
hbond:GLY:127    0
Name: 7, dtype: object

>  <halogenbond:GLY:127>  (8) 
halogenbond:GLY:127    0
halogenbond:GLY:127    0
Name: 7, dtype: object

>  <hydroph_interaction:GLY:127>  (8) 
hydroph_interaction:GLY:127    0
hydroph_interaction:GLY:127    0
Name: 7, dtype: object

>  <hbond:GLY:128>  (8) 
hbond:GLY:128    0
hbond:GLY:128    0
Name: 7, dtype: object

>  <halogenbond:GLY:128>  (8) 
halogenbond:GLY:128    0
halogenbond:GLY:128    0
Name: 7, dtype: object

>  <hydroph_interaction:GLY:128>  (8) 
hydroph_interaction:GLY:128    0
hydroph_interaction:GLY:128    0
Name: 7, dtype: object

>  <hbond:ASN:129>  (8) 
hbond:ASN:129    0
hbond:ASN:129    0
Name: 7, dtype: object

>  <hydroph_interaction:ASN:129>  (8) 
hydroph_interaction:ASN:129    0
hydroph_interaction:ASN:129    0
Name: 7, dtype: object

>  <halogenbond:ASN:129>  (8) 
halogenbond:ASN:129    0
halogenbond:ASN:129    0
Name: 7, dtype: object

>  <hbond:GLY:130>  (8) 
hbond:GLY:130    0
hbond:GLY:130    0
Name: 7, dtype: object

>  <hydroph_interaction:LEU:131>  (8) 
hydroph_interaction:LEU:131    0
hydroph_interaction:LEU:131    0
Name: 7, dtype: object

>  <hbond:LEU:131>  (8) 
hbond:LEU:131    0
hbond:LEU:131    0
Name: 7, dtype: object

>  <halogenbond:LEU:131>  (8) 
halogenbond:LEU:131    0
halogenbond:LEU:131    0
Name: 7, dtype: object

>  <hydroph_interaction:VAL:132>  (8) 
hydroph_interaction:VAL:132    0
hydroph_interaction:VAL:132    0
Name: 7, dtype: object

>  <hbond:VAL:132>  (8) 
hbond:VAL:132    0
hbond:VAL:132    0
Name: 7, dtype: object

>  <hbond:GLY:133>  (8) 
hbond:GLY:133    0
hbond:GLY:133    0
Name: 7, dtype: object

>  <halogenbond:GLY:133>  (8) 
halogenbond:GLY:133    0
halogenbond:GLY:133    0
Name: 7, dtype: object

>  <hydroph_interaction:PHE:134>  (8) 
hydroph_interaction:PHE:134    0
hydroph_interaction:PHE:134    0
Name: 7, dtype: object

>  <hbond:PHE:134>  (8) 
hbond:PHE:134    0
hbond:PHE:134    0
Name: 7, dtype: object

>  <pistack:PHE:134>  (8) 
pistack:PHE:134    0
pistack:PHE:134    0
Name: 7, dtype: object

>  <pication:PHE:134>  (8) 
pication:PHE:134    0
pication:PHE:134    0
Name: 7, dtype: object

>  <hydroph_interaction:ALA:135>  (8) 
hydroph_interaction:ALA:135    0
hydroph_interaction:ALA:135    0
Name: 7, dtype: object

>  <hbond:ALA:135>  (8) 
hbond:ALA:135    0
hbond:ALA:135    0
Name: 7, dtype: object

$$$$
Z2989386255
     RDKit          3D

 38 39  0  0  0  0  0  0  0  0999 V2000
   15.2790   14.5320   26.7230 C   0  0  0  0  0  0  0  0  0  0  0  0
   15.7350   13.6380   25.6600 N   0  0  0  0  0  0  0  0  0  0  0  0
   16.1650   12.3010   26.1090 C   0  0  0  0  0  0  0  0  0  0  0  0
   17.3640   12.3650   26.9680 C   0  0  0  0  0  0  0  0  0  0  0  0
   18.1880   11.1270   26.7930 C   0  0  0  0  0  0  0  0  0  0  0  0
   18.0190   10.2450   25.9710 O   0  0  0  0  0  0  0  0  0  0  0  0
   19.2090   11.0470   27.6670 O   0  0  0  0  0  0  0  0  0  0  0  0
   15.0740   13.7190   24.4320 C   0  0  0  0  0  0  0  0  0  0  0  0
   13.7570   14.0290   24.4020 C   0  0  0  0  0  0  0  0  0  0  0  0
   13.0550   14.0990   23.1380 C   0  0  0  0  0  0  0  0  0  0  0  0
   11.3320   14.4520   23.2800 S   0  0  0  0  0  0  0  0  0  0  0  0
   10.7520   12.9470   22.4680 C   0  0  0  0  0  0  0  0  0  0  0  0
    9.8140   12.1050   23.2710 C   0  0  0  0  0  0  0  0  0  0  0  0
    9.8810   10.5830   23.1260 C   0  0  0  0  0  0  0  0  0  0  0  0
    8.9000    9.8610   23.9750 C   0  0  0  0  0  0  0  0  0  0  0  0
    8.0130   10.5290   24.8140 C   0  0  0  0  0  0  0  0  0  0  0  0
    8.0040   11.9120   24.8930 C   0  0  0  0  0  0  0  0  0  0  0  0
    8.8860   12.6850   24.1390 C   0  0  0  0  0  0  0  0  0  0  0  0
   13.6790   13.8920   21.9720 N   0  0  0  0  0  0  0  0  0  0  0  0
   14.9900   13.5990   22.1050 C   0  0  0  0  0  0  0  0  0  0  0  0
   15.6990   13.5010   23.2560 N   0  0  0  0  0  0  0  0  0  0  0  0
   14.6630   15.3410   26.3110 H   0  0  0  0  0  0  0  0  0  0  0  0
   16.1330   14.9560   27.2630 H   0  0  0  0  0  0  0  0  0  0  0  0
   14.6690   13.9880   27.4480 H   0  0  0  0  0  0  0  0  0  0  0  0
   15.3440   11.8540   26.6760 H   0  0  0  0  0  0  0  0  0  0  0  0
   16.3120   11.6160   25.2620 H   0  0  0  0  0  0  0  0  0  0  0  0
   17.9920   13.2280   26.7240 H   0  0  0  0  0  0  0  0  0  0  0  0
   17.1000   12.4660   28.0260 H   0  0  0  0  0  0  0  0  0  0  0  0
   19.5310   11.9710   27.7440 H   0  0  0  0  0  0  0  0  0  0  0  0
   13.2080   14.2250   25.2950 H   0  0  0  0  0  0  0  0  0  0  0  0
   10.2630   13.2370   21.5460 H   0  0  0  0  0  0  0  0  0  0  0  0
   11.6030   12.3670   22.1560 H   0  0  0  0  0  0  0  0  0  0  0  0
   10.5770   10.0680   22.4680 H   0  0  0  0  0  0  0  0  0  0  0  0
    8.8680    8.7980   23.9480 H   0  0  0  0  0  0  0  0  0  0  0  0
    7.3130    9.9600   25.4170 H   0  0  0  0  0  0  0  0  0  0  0  0
    7.2960   12.4000   25.5570 H   0  0  0  0  0  0  0  0  0  0  0  0
    8.8430   13.7680   24.2360 H   0  0  0  0  0  0  0  0  0  0  0  0
   15.5380   13.4180   21.1870 H   0  0  0  0  0  0  0  0  0  0  0  0
  1  2  1  0
  2  3  1  0
  3  4  1  0
  4  5  1  0
  5  6  2  0
  5  7  1  0
  2  8  1  0
  8  9  2  0
  9 10  1  0
 10 11  1  0
 11 12  1  0
 12 13  1  0
 13 14  2  0
 14 15  1  0
 15 16  2  0
 16 17  1  0
 17 18  2  0
 10 19  2  0
 19 20  1  0
 20 21  2  0
 21  8  1  0
 18 13  1  0
  1 22  1  0
  1 23  1  0
  1 24  1  0
  3 25  1  0
  3 26  1  0
  4 27  1  0
  4 28  1  0
  7 29  1  0
  9 30  1  0
 12 31  1  0
 12 32  1  0
 14 33  1  0
 15 34  1  0
 16 35  1  0
 17 36  1  0
 18 37  1  0
 20 38  1  0
A    1
 C1 
A    2
 N1 
A    3
 C2 
A    4
 C3 
A    5
 C4 
A    6
 O1 
A    7
 O2 
A    8
 C5 
A    9
 C6 
A   10
 C7 
A   11
 S1 
A   12
 C8 
A   13
 C9 
A   14
 C10
A   15
 C11
A   16
 C12
A   17
 C13
A   18
 C14
A   19
 N2 
A   20
 C15
A   21
 N3 
A   22
 H1 
A   23
 H2 
A   24
 H3 
A   25
 H4 
A   26
 H5 
A   27
 H6 
A   28
 H7 
A   29
 H8 
A   30
 H9 
A   31
 H10
A   32
 H11
A   33
 H12
A   34
 H13
A   35
 H14
A   36
 H15
A   37
 H16
A   38
 H17
M  END
>  <ref_pdb>  (9) 
x0310_0A

>  <ref_mols>  (9) 
x0554_0A,x0732_0A

>  <original SMILES>  (9) 
CN(CCC(=O)O)c1cc(SCc2ccccc2)ncn1

>  <rationale>  (9) 
info hbond:S7; hydroph_interaction:P107+Y89+L22; 

>  <intxn_cluster>  (9) 
207

>  <intxn_cluster_rank>  (9) 
2

>  <N_interactions>  (9) 
5

>  <∆∆G>  (9) 
-10.133928

>  <$/mg>  (9) 
nan

>  <comRMSD>  (9) 
0.929321

>  <N_rotatable_bonds>  (9) 
8

>  <N_analogues_07>  (9) 
0

>  <deep_P1_sidechain>  (9) 
False

>  <farthest_distance_to_substrate>  (9) 
4.553077

>  <hbond:SER:7>  (9) 
hbond:SER:7    1
hbond:SER:7    1
Name: 8, dtype: object

>  <halogenbond:SER:7>  (9) 
halogenbond:SER:7    0
halogenbond:SER:7    0
Name: 8, dtype: object

>  <hbond:GLY:8>  (9) 
hbond:GLY:8    0
hbond:GLY:8    0
Name: 8, dtype: object

>  <hydroph_interaction:ASN:19>  (9) 
hydroph_interaction:ASN:19    0
hydroph_interaction:ASN:19    0
Name: 8, dtype: object

>  <hbond:ASN:19>  (9) 
hbond:ASN:19    0
hbond:ASN:19    0
Name: 8, dtype: object

>  <halogenbond:ASN:19>  (9) 
halogenbond:ASN:19    0
halogenbond:ASN:19    0
Name: 8, dtype: object

>  <hbond:ARG:20>  (9) 
hbond:ARG:20    0
hbond:ARG:20    0
Name: 8, dtype: object

>  <hydroph_interaction:ARG:20>  (9) 
hydroph_interaction:ARG:20    0
hydroph_interaction:ARG:20    0
Name: 8, dtype: object

>  <saltbridge:ARG:20>  (9) 
saltbridge:ARG:20    0
saltbridge:ARG:20    0
Name: 8, dtype: object

>  <halogenbond:ARG:20>  (9) 
halogenbond:ARG:20    0
halogenbond:ARG:20    0
Name: 8, dtype: object

>  <pication:ARG:20>  (9) 
pication:ARG:20    0
pication:ARG:20    0
Name: 8, dtype: object

>  <hbond:HIS:21>  (9) 
hbond:HIS:21    0
hbond:HIS:21    0
Name: 8, dtype: object

>  <hydroph_interaction:HIS:21>  (9) 
hydroph_interaction:HIS:21    0
hydroph_interaction:HIS:21    0
Name: 8, dtype: object

>  <saltbridge:HIS:21>  (9) 
saltbridge:HIS:21    0
saltbridge:HIS:21    0
Name: 8, dtype: object

>  <pistack:HIS:21>  (9) 
pistack:HIS:21    0
pistack:HIS:21    0
Name: 8, dtype: object

>  <pication:HIS:21>  (9) 
pication:HIS:21    0
pication:HIS:21    0
Name: 8, dtype: object

>  <halogenbond:HIS:21>  (9) 
halogenbond:HIS:21    0
halogenbond:HIS:21    0
Name: 8, dtype: object

>  <hydroph_interaction:LEU:22>  (9) 
hydroph_interaction:LEU:22    1
hydroph_interaction:LEU:22    1
Name: 8, dtype: object

>  <hbond:LEU:22>  (9) 
hbond:LEU:22    0
hbond:LEU:22    0
Name: 8, dtype: object

>  <hydroph_interaction:TRP:28>  (9) 
hydroph_interaction:TRP:28    0
hydroph_interaction:TRP:28    0
Name: 8, dtype: object

>  <hbond:SER:36>  (9) 
hbond:SER:36    0
hbond:SER:36    0
Name: 8, dtype: object

>  <halogenbond:SER:36>  (9) 
halogenbond:SER:36    0
halogenbond:SER:36    0
Name: 8, dtype: object

>  <hbond:ARG:38>  (9) 
hbond:ARG:38    0
hbond:ARG:38    0
Name: 8, dtype: object

>  <halogenbond:ARG:38>  (9) 
halogenbond:ARG:38    0
halogenbond:ARG:38    0
Name: 8, dtype: object

>  <hbond:ASP:39>  (9) 
hbond:ASP:39    0
hbond:ASP:39    0
Name: 8, dtype: object

>  <saltbridge:ASP:39>  (9) 
saltbridge:ASP:39    0
saltbridge:ASP:39    0
Name: 8, dtype: object

>  <hydroph_interaction:ASP:39>  (9) 
hydroph_interaction:ASP:39    0
hydroph_interaction:ASP:39    0
Name: 8, dtype: object

>  <halogenbond:ASP:39>  (9) 
halogenbond:ASP:39    0
halogenbond:ASP:39    0
Name: 8, dtype: object

>  <hydroph_interaction:LEU:40>  (9) 
hydroph_interaction:LEU:40    0
hydroph_interaction:LEU:40    0
Name: 8, dtype: object

>  <hydroph_interaction:TYR:63>  (9) 
hydroph_interaction:TYR:63    0
hydroph_interaction:TYR:63    0
Name: 8, dtype: object

>  <pistack:TYR:63>  (9) 
pistack:TYR:63    0
pistack:TYR:63    0
Name: 8, dtype: object

>  <hbond:TYR:63>  (9) 
hbond:TYR:63    0
hbond:TYR:63    0
Name: 8, dtype: object

>  <hbond:TYR:64>  (9) 
hbond:TYR:64    0
hbond:TYR:64    0
Name: 8, dtype: object

>  <halogenbond:TYR:64>  (9) 
halogenbond:TYR:64    0
halogenbond:TYR:64    0
Name: 8, dtype: object

>  <hydroph_interaction:TYR:64>  (9) 
hydroph_interaction:TYR:64    0
hydroph_interaction:TYR:64    0
Name: 8, dtype: object

>  <hbond:CYS:65>  (9) 
hbond:CYS:65    0
hbond:CYS:65    0
Name: 8, dtype: object

>  <halogenbond:CYS:65>  (9) 
halogenbond:CYS:65    0
halogenbond:CYS:65    0
Name: 8, dtype: object

>  <hbond:SER:66>  (9) 
hbond:SER:66    0
hbond:SER:66    0
Name: 8, dtype: object

>  <hbond:SER:67>  (9) 
hbond:SER:67    0
hbond:SER:67    0
Name: 8, dtype: object

>  <halogenbond:SER:67>  (9) 
halogenbond:SER:67    0
halogenbond:SER:67    0
Name: 8, dtype: object

>  <hydroph_interaction:ARG:68>  (9) 
hydroph_interaction:ARG:68    0
hydroph_interaction:ARG:68    0
Name: 8, dtype: object

>  <hbond:ARG:68>  (9) 
hbond:ARG:68    0
hbond:ARG:68    0
Name: 8, dtype: object

>  <saltbridge:ARG:68>  (9) 
saltbridge:ARG:68    0
saltbridge:ARG:68    0
Name: 8, dtype: object

>  <pication:ARG:68>  (9) 
pication:ARG:68    0
pication:ARG:68    0
Name: 8, dtype: object

>  <hydroph_interaction:TYR:72>  (9) 
hydroph_interaction:TYR:72    0
hydroph_interaction:TYR:72    0
Name: 8, dtype: object

>  <hydroph_interaction:VAL:74>  (9) 
hydroph_interaction:VAL:74    0
hydroph_interaction:VAL:74    0
Name: 8, dtype: object

>  <hydroph_interaction:PHE:76>  (9) 
hydroph_interaction:PHE:76    0
hydroph_interaction:PHE:76    0
Name: 8, dtype: object

>  <hbond:SER:77>  (9) 
hbond:SER:77    0
hbond:SER:77    0
Name: 8, dtype: object

>  <hbond:SER:80>  (9) 
hbond:SER:80    0
hbond:SER:80    0
Name: 8, dtype: object

>  <hbond:LEU:81>  (9) 
hbond:LEU:81    0
hbond:LEU:81    0
Name: 8, dtype: object

>  <halogenbond:LEU:81>  (9) 
halogenbond:LEU:81    0
halogenbond:LEU:81    0
Name: 8, dtype: object

>  <hydroph_interaction:LEU:81>  (9) 
hydroph_interaction:LEU:81    0
hydroph_interaction:LEU:81    0
Name: 8, dtype: object

>  <hydroph_interaction:ILE:82>  (9) 
hydroph_interaction:ILE:82    0
hydroph_interaction:ILE:82    0
Name: 8, dtype: object

>  <hbond:ILE:82>  (9) 
hbond:ILE:82    0
hbond:ILE:82    0
Name: 8, dtype: object

>  <hydroph_interaction:PHE:83>  (9) 
hydroph_interaction:PHE:83    0
hydroph_interaction:PHE:83    0
Name: 8, dtype: object

>  <hbond:PHE:83>  (9) 
hbond:PHE:83    0
hbond:PHE:83    0
Name: 8, dtype: object

>  <halogenbond:PHE:83>  (9) 
halogenbond:PHE:83    0
halogenbond:PHE:83    0
Name: 8, dtype: object

>  <pistack:PHE:83>  (9) 
pistack:PHE:83    0
pistack:PHE:83    0
Name: 8, dtype: object

>  <hydroph_interaction:VAL:84>  (9) 
hydroph_interaction:VAL:84    0
hydroph_interaction:VAL:84    0
Name: 8, dtype: object

>  <hbond:VAL:84>  (9) 
hbond:VAL:84    0
hbond:VAL:84    0
Name: 8, dtype: object

>  <halogenbond:VAL:84>  (9) 
halogenbond:VAL:84    0
halogenbond:VAL:84    0
Name: 8, dtype: object

>  <hydroph_interaction:GLU:85>  (9) 
hydroph_interaction:GLU:85    0
hydroph_interaction:GLU:85    0
Name: 8, dtype: object

>  <hbond:GLU:85>  (9) 
hbond:GLU:85    0
hbond:GLU:85    0
Name: 8, dtype: object

>  <saltbridge:GLU:85>  (9) 
saltbridge:GLU:85    0
saltbridge:GLU:85    0
Name: 8, dtype: object

>  <halogenbond:GLU:85>  (9) 
halogenbond:GLU:85    0
halogenbond:GLU:85    0
Name: 8, dtype: object

>  <hbond:ALA:86>  (9) 
hbond:ALA:86    0
hbond:ALA:86    0
Name: 8, dtype: object

>  <halogenbond:ALA:86>  (9) 
halogenbond:ALA:86    0
halogenbond:ALA:86    0
Name: 8, dtype: object

>  <hydroph_interaction:ALA:86>  (9) 
hydroph_interaction:ALA:86    0
hydroph_interaction:ALA:86    0
Name: 8, dtype: object

>  <hbond:SER:87>  (9) 
hbond:SER:87    0
hbond:SER:87    0
Name: 8, dtype: object

>  <halogenbond:SER:87>  (9) 
halogenbond:SER:87    0
halogenbond:SER:87    0
Name: 8, dtype: object

>  <hbond:GLU:88>  (9) 
hbond:GLU:88    0
hbond:GLU:88    0
Name: 8, dtype: object

>  <hydroph_interaction:GLU:88>  (9) 
hydroph_interaction:GLU:88    0
hydroph_interaction:GLU:88    0
Name: 8, dtype: object

>  <halogenbond:GLU:88>  (9) 
halogenbond:GLU:88    0
halogenbond:GLU:88    0
Name: 8, dtype: object

>  <saltbridge:GLU:88>  (9) 
saltbridge:GLU:88    0
saltbridge:GLU:88    0
Name: 8, dtype: object

>  <hydroph_interaction:TYR:89>  (9) 
hydroph_interaction:TYR:89    1
hydroph_interaction:TYR:89    1
Name: 8, dtype: object

>  <pistack:TYR:89>  (9) 
pistack:TYR:89    0
pistack:TYR:89    0
Name: 8, dtype: object

>  <hbond:TYR:89>  (9) 
hbond:TYR:89    0
hbond:TYR:89    0
Name: 8, dtype: object

>  <halogenbond:TYR:89>  (9) 
halogenbond:TYR:89    0
halogenbond:TYR:89    0
Name: 8, dtype: object

>  <hbond:TYR:90>  (9) 
hbond:TYR:90    0
hbond:TYR:90    0
Name: 8, dtype: object

>  <hydroph_interaction:TYR:90>  (9) 
hydroph_interaction:TYR:90    0
hydroph_interaction:TYR:90    0
Name: 8, dtype: object

>  <pistack:TYR:90>  (9) 
pistack:TYR:90    0
pistack:TYR:90    0
Name: 8, dtype: object

>  <halogenbond:TYR:90>  (9) 
halogenbond:TYR:90    0
halogenbond:TYR:90    0
Name: 8, dtype: object

>  <pication:TYR:90>  (9) 
pication:TYR:90    0
pication:TYR:90    0
Name: 8, dtype: object

>  <hydroph_interaction:PRO:91>  (9) 
hydroph_interaction:PRO:91    0
hydroph_interaction:PRO:91    0
Name: 8, dtype: object

>  <halogenbond:PRO:91>  (9) 
halogenbond:PRO:91    0
halogenbond:PRO:91    0
Name: 8, dtype: object

>  <hbond:PRO:91>  (9) 
hbond:PRO:91    0
hbond:PRO:91    0
Name: 8, dtype: object

>  <hydroph_interaction:ALA:92>  (9) 
hydroph_interaction:ALA:92    0
hydroph_interaction:ALA:92    0
Name: 8, dtype: object

>  <hbond:ARG:93>  (9) 
hbond:ARG:93    0
hbond:ARG:93    0
Name: 8, dtype: object

>  <pication:ARG:93>  (9) 
pication:ARG:93    0
pication:ARG:93    0
Name: 8, dtype: object

>  <saltbridge:ARG:93>  (9) 
saltbridge:ARG:93    0
saltbridge:ARG:93    0
Name: 8, dtype: object

>  <hydroph_interaction:ARG:93>  (9) 
hydroph_interaction:ARG:93    0
hydroph_interaction:ARG:93    0
Name: 8, dtype: object

>  <halogenbond:ARG:93>  (9) 
halogenbond:ARG:93    0
halogenbond:ARG:93    0
Name: 8, dtype: object

>  <hydroph_interaction:TYR:94>  (9) 
hydroph_interaction:TYR:94    0
hydroph_interaction:TYR:94    0
Name: 8, dtype: object

>  <hbond:TYR:94>  (9) 
hbond:TYR:94    0
hbond:TYR:94    0
Name: 8, dtype: object

>  <halogenbond:GLN:95>  (9) 
halogenbond:GLN:95    0
halogenbond:GLN:95    0
Name: 8, dtype: object

>  <hbond:GLN:95>  (9) 
hbond:GLN:95    0
hbond:GLN:95    0
Name: 8, dtype: object

>  <hydroph_interaction:GLN:95>  (9) 
hydroph_interaction:GLN:95    0
hydroph_interaction:GLN:95    0
Name: 8, dtype: object

>  <hbond:SER:96>  (9) 
hbond:SER:96    0
hbond:SER:96    0
Name: 8, dtype: object

>  <hydroph_interaction:LEU:98>  (9) 
hydroph_interaction:LEU:98    0
hydroph_interaction:LEU:98    0
Name: 8, dtype: object

>  <hbond:LEU:98>  (9) 
hbond:LEU:98    0
hbond:LEU:98    0
Name: 8, dtype: object

>  <hbond:MET:99>  (9) 
hbond:MET:99    0
hbond:MET:99    0
Name: 8, dtype: object

>  <hydroph_interaction:MET:99>  (9) 
hydroph_interaction:MET:99    0
hydroph_interaction:MET:99    0
Name: 8, dtype: object

>  <halogenbond:MET:99>  (9) 
halogenbond:MET:99    0
halogenbond:MET:99    0
Name: 8, dtype: object

>  <hydroph_interaction:LEU:100>  (9) 
hydroph_interaction:LEU:100    0
hydroph_interaction:LEU:100    0
Name: 8, dtype: object

>  <hbond:LEU:100>  (9) 
hbond:LEU:100    0
hbond:LEU:100    0
Name: 8, dtype: object

>  <hbond:ALA:101>  (9) 
hbond:ALA:101    0
hbond:ALA:101    0
Name: 8, dtype: object

>  <hydroph_interaction:ALA:101>  (9) 
hydroph_interaction:ALA:101    0
hydroph_interaction:ALA:101    0
Name: 8, dtype: object

>  <hydroph_interaction:VAL:102>  (9) 
hydroph_interaction:VAL:102    0
hydroph_interaction:VAL:102    0
Name: 8, dtype: object

>  <hbond:VAL:102>  (9) 
hbond:VAL:102    0
hbond:VAL:102    0
Name: 8, dtype: object

>  <hbond:GLY:103>  (9) 
hbond:GLY:103    0
hbond:GLY:103    0
Name: 8, dtype: object

>  <halogenbond:GLY:103>  (9) 
halogenbond:GLY:103    0
halogenbond:GLY:103    0
Name: 8, dtype: object

>  <hydroph_interaction:HIS:104>  (9) 
hydroph_interaction:HIS:104    0
hydroph_interaction:HIS:104    0
Name: 8, dtype: object

>  <hbond:HIS:104>  (9) 
hbond:HIS:104    0
hbond:HIS:104    0
Name: 8, dtype: object

>  <saltbridge:HIS:104>  (9) 
saltbridge:HIS:104    0
saltbridge:HIS:104    0
Name: 8, dtype: object

>  <pication:HIS:104>  (9) 
pication:HIS:104    0
pication:HIS:104    0
Name: 8, dtype: object

>  <pistack:HIS:104>  (9) 
pistack:HIS:104    0
pistack:HIS:104    0
Name: 8, dtype: object

>  <halogenbond:HIS:104>  (9) 
halogenbond:HIS:104    0
halogenbond:HIS:104    0
Name: 8, dtype: object

>  <hbond:SER:105>  (9) 
hbond:SER:105    0
hbond:SER:105    0
Name: 8, dtype: object

>  <halogenbond:SER:105>  (9) 
halogenbond:SER:105    0
halogenbond:SER:105    0
Name: 8, dtype: object

>  <hbond:GLU:106>  (9) 
hbond:GLU:106    0
hbond:GLU:106    0
Name: 8, dtype: object

>  <hydroph_interaction:GLU:106>  (9) 
hydroph_interaction:GLU:106    0
hydroph_interaction:GLU:106    0
Name: 8, dtype: object

>  <saltbridge:GLU:106>  (9) 
saltbridge:GLU:106    0
saltbridge:GLU:106    0
Name: 8, dtype: object

>  <halogenbond:GLU:106>  (9) 
halogenbond:GLU:106    0
halogenbond:GLU:106    0
Name: 8, dtype: object

>  <hydroph_interaction:PRO:107>  (9) 
hydroph_interaction:PRO:107    2
hydroph_interaction:PRO:107    2
Name: 8, dtype: object

>  <hbond:PRO:107>  (9) 
hbond:PRO:107    0
hbond:PRO:107    0
Name: 8, dtype: object

>  <halogenbond:PRO:107>  (9) 
halogenbond:PRO:107    0
halogenbond:PRO:107    0
Name: 8, dtype: object

>  <hbond:GLY:108>  (9) 
hbond:GLY:108    0
hbond:GLY:108    0
Name: 8, dtype: object

>  <halogenbond:GLY:108>  (9) 
halogenbond:GLY:108    0
halogenbond:GLY:108    0
Name: 8, dtype: object

>  <hbond:ASP:109>  (9) 
hbond:ASP:109    0
hbond:ASP:109    0
Name: 8, dtype: object

>  <hydroph_interaction:ASP:109>  (9) 
hydroph_interaction:ASP:109    0
hydroph_interaction:ASP:109    0
Name: 8, dtype: object

>  <saltbridge:ASP:109>  (9) 
saltbridge:ASP:109    0
saltbridge:ASP:109    0
Name: 8, dtype: object

>  <hbond:CYS:110>  (9) 
hbond:CYS:110    0
hbond:CYS:110    0
Name: 8, dtype: object

>  <halogenbond:CYS:110>  (9) 
halogenbond:CYS:110    0
halogenbond:CYS:110    0
Name: 8, dtype: object

>  <hbond:GLY:111>  (9) 
hbond:GLY:111    0
hbond:GLY:111    0
Name: 8, dtype: object

>  <hbond:GLY:112>  (9) 
hbond:GLY:112    0
hbond:GLY:112    0
Name: 8, dtype: object

>  <hbond:ILE:113>  (9) 
hbond:ILE:113    0
hbond:ILE:113    0
Name: 8, dtype: object

>  <hydroph_interaction:LEU:114>  (9) 
hydroph_interaction:LEU:114    0
hydroph_interaction:LEU:114    0
Name: 8, dtype: object

>  <hbond:LEU:114>  (9) 
hbond:LEU:114    0
hbond:LEU:114    0
Name: 8, dtype: object

>  <hydroph_interaction:ILE:123>  (9) 
hydroph_interaction:ILE:123    0
hydroph_interaction:ILE:123    0
Name: 8, dtype: object

>  <hbond:ILE:123>  (9) 
hbond:ILE:123    0
hbond:ILE:123    0
Name: 8, dtype: object

>  <hydroph_interaction:VAL:124>  (9) 
hydroph_interaction:VAL:124    0
hydroph_interaction:VAL:124    0
Name: 8, dtype: object

>  <hbond:VAL:124>  (9) 
hbond:VAL:124    0
hbond:VAL:124    0
Name: 8, dtype: object

>  <halogenbond:VAL:124>  (9) 
halogenbond:VAL:124    0
halogenbond:VAL:124    0
Name: 8, dtype: object

>  <hbond:SER:125>  (9) 
hbond:SER:125    0
hbond:SER:125    0
Name: 8, dtype: object

>  <halogenbond:SER:125>  (9) 
halogenbond:SER:125    0
halogenbond:SER:125    0
Name: 8, dtype: object

>  <hydroph_interaction:THR:126>  (9) 
hydroph_interaction:THR:126    0
hydroph_interaction:THR:126    0
Name: 8, dtype: object

>  <hbond:THR:126>  (9) 
hbond:THR:126    0
hbond:THR:126    0
Name: 8, dtype: object

>  <halogenbond:THR:126>  (9) 
halogenbond:THR:126    0
halogenbond:THR:126    0
Name: 8, dtype: object

>  <hbond:GLY:127>  (9) 
hbond:GLY:127    0
hbond:GLY:127    0
Name: 8, dtype: object

>  <halogenbond:GLY:127>  (9) 
halogenbond:GLY:127    0
halogenbond:GLY:127    0
Name: 8, dtype: object

>  <hydroph_interaction:GLY:127>  (9) 
hydroph_interaction:GLY:127    0
hydroph_interaction:GLY:127    0
Name: 8, dtype: object

>  <hbond:GLY:128>  (9) 
hbond:GLY:128    0
hbond:GLY:128    0
Name: 8, dtype: object

>  <halogenbond:GLY:128>  (9) 
halogenbond:GLY:128    0
halogenbond:GLY:128    0
Name: 8, dtype: object

>  <hydroph_interaction:GLY:128>  (9) 
hydroph_interaction:GLY:128    0
hydroph_interaction:GLY:128    0
Name: 8, dtype: object

>  <hbond:ASN:129>  (9) 
hbond:ASN:129    0
hbond:ASN:129    0
Name: 8, dtype: object

>  <hydroph_interaction:ASN:129>  (9) 
hydroph_interaction:ASN:129    0
hydroph_interaction:ASN:129    0
Name: 8, dtype: object

>  <halogenbond:ASN:129>  (9) 
halogenbond:ASN:129    0
halogenbond:ASN:129    0
Name: 8, dtype: object

>  <hbond:GLY:130>  (9) 
hbond:GLY:130    0
hbond:GLY:130    0
Name: 8, dtype: object

>  <hydroph_interaction:LEU:131>  (9) 
hydroph_interaction:LEU:131    0
hydroph_interaction:LEU:131    0
Name: 8, dtype: object

>  <hbond:LEU:131>  (9) 
hbond:LEU:131    0
hbond:LEU:131    0
Name: 8, dtype: object

>  <halogenbond:LEU:131>  (9) 
halogenbond:LEU:131    0
halogenbond:LEU:131    0
Name: 8, dtype: object

>  <hydroph_interaction:VAL:132>  (9) 
hydroph_interaction:VAL:132    0
hydroph_interaction:VAL:132    0
Name: 8, dtype: object

>  <hbond:VAL:132>  (9) 
hbond:VAL:132    0
hbond:VAL:132    0
Name: 8, dtype: object

>  <hbond:GLY:133>  (9) 
hbond:GLY:133    0
hbond:GLY:133    0
Name: 8, dtype: object

>  <halogenbond:GLY:133>  (9) 
halogenbond:GLY:133    0
halogenbond:GLY:133    0
Name: 8, dtype: object

>  <hydroph_interaction:PHE:134>  (9) 
hydroph_interaction:PHE:134    0
hydroph_interaction:PHE:134    0
Name: 8, dtype: object

>  <hbond:PHE:134>  (9) 
hbond:PHE:134    0
hbond:PHE:134    0
Name: 8, dtype: object

>  <pistack:PHE:134>  (9) 
pistack:PHE:134    0
pistack:PHE:134    0
Name: 8, dtype: object

>  <pication:PHE:134>  (9) 
pication:PHE:134    0
pication:PHE:134    0
Name: 8, dtype: object

>  <hydroph_interaction:ALA:135>  (9) 
hydroph_interaction:ALA:135    0
hydroph_interaction:ALA:135    0
Name: 8, dtype: object

>  <hbond:ALA:135>  (9) 
hbond:ALA:135    0
hbond:ALA:135    0
Name: 8, dtype: object

$$$$
PV_005597406472
     RDKit          3D

 32 33  0  0  0  0  0  0  0  0999 V2000
    9.8810    9.0760   22.6880 C   0  0  0  0  0  0  0  0  0  0  0  0
    9.5950   10.3710   23.2390 N   0  0  0  0  0  0  0  0  0  0  0  0
    8.6710   10.6820   24.1950 C   0  0  0  0  0  0  0  0  0  0  0  0
    8.7410   12.0390   24.4110 C   0  0  0  0  0  0  0  0  0  0  0  0
    9.7440   12.5870   23.5620 C   0  0  0  0  0  0  0  0  0  0  0  0
   10.2060   13.8840   23.3910 C   0  0  0  0  0  0  0  0  0  0  0  0
   11.3050   14.0720   22.6100 N   0  0  0  0  0  0  0  0  0  0  0  0
   11.1450   14.5150   21.3250 C   0  0  0  0  0  0  0  0  0  0  0  0
   12.2060   14.7600   20.4640 N   0  0  0  0  0  0  0  0  0  0  0  0
    9.9380   14.7610   20.7130 N   0  0  0  0  0  0  0  0  0  0  0  0
    9.5230   15.7970   19.8440 C   0  0  0  0  0  0  0  0  0  0  0  0
   10.0850   15.8610   18.5970 C   0  0  0  0  0  0  0  0  0  0  0  0
    9.6550   16.8700   17.7520 C   0  0  0  0  0  0  0  0  0  0  0  0
    8.7110   17.7880   18.1230 C   0  0  0  0  0  0  0  0  0  0  0  0
    8.1880   17.6920   19.3770 C   0  0  0  0  0  0  0  0  0  0  0  0
    8.5960   16.7030   20.2000 N   0  0  0  0  0  0  0  0  0  0  0  0
   10.2310   11.5070   22.8650 C   0  0  0  0  0  0  0  0  0  0  0  0
   10.4820    8.5070   23.3940 H   0  0  0  0  0  0  0  0  0  0  0  0
    8.9480    8.5610   22.4880 H   0  0  0  0  0  0  0  0  0  0  0  0
   10.4240    9.2190   21.7530 H   0  0  0  0  0  0  0  0  0  0  0  0
    8.0400    9.9210   24.6410 H   0  0  0  0  0  0  0  0  0  0  0  0
    8.1280   12.5860   25.1150 H   0  0  0  0  0  0  0  0  0  0  0  0
   10.2970   14.4810   24.2910 H   0  0  0  0  0  0  0  0  0  0  0  0
    9.4160   14.3940   22.8350 H   0  0  0  0  0  0  0  0  0  0  0  0
   12.4990   13.8940   20.0160 H   0  0  0  0  0  0  0  0  0  0  0  0
   13.0080   15.1490   20.9410 H   0  0  0  0  0  0  0  0  0  0  0  0
    9.1510   14.4020   21.2300 H   0  0  0  0  0  0  0  0  0  0  0  0
   10.8370   15.1470   18.2740 H   0  0  0  0  0  0  0  0  0  0  0  0
   10.0200   17.0120   16.7490 H   0  0  0  0  0  0  0  0  0  0  0  0
    8.3870   18.5620   17.4640 H   0  0  0  0  0  0  0  0  0  0  0  0
    7.4460   18.3300   19.8330 H   0  0  0  0  0  0  0  0  0  0  0  0
   11.0050   11.4710   22.1130 H   0  0  0  0  0  0  0  0  0  0  0  0
  1  2  1  0
  2  3  1  0
  3  4  2  0
  4  5  1  0
  5  6  1  0
  6  7  1  0
  7  8  2  3
  8  9  1  0
  8 10  1  0
 10 11  1  0
 11 12  2  0
 12 13  1  0
 13 14  2  0
 14 15  1  0
 15 16  2  0
  5 17  2  0
 17  2  1  0
 16 11  1  0
  1 18  1  0
  1 19  1  0
  1 20  1  0
  3 21  1  0
  4 22  1  0
  6 23  1  0
  6 24  1  0
  9 25  1  0
  9 26  1  0
 10 27  1  0
 12 28  1  0
 13 29  1  0
 14 30  1  0
 15 31  1  0
 17 32  1  0
A    1
 C1 
A    2
 N1 
A    3
 C2 
A    4
 C3 
A    5
 C4 
A    6
 C5 
A    7
 N2 
A    8
 C6 
A    9
 N3 
A   10
 N4 
A   11
 C7 
A   12
 C8 
A   13
 C9 
A   14
 C10
A   15
 C11
A   16
 N5 
A   17
 C12
A   18
 H1 
A   19
 H2 
A   20
 H3 
A   21
 H4 
A   22
 H5 
A   23
 H6 
A   24
 H7 
A   25
 H8 
A   26
 H9 
A   27
 H10
A   28
 H11
A   29
 H12
A   30
 H13
A   31
 H14
A   32
 H15
M  END
>  <ref_pdb>  (10) 
x0310_0A

>  <ref_mols>  (10) 
x0451_0A,x0416_0A

>  <original SMILES>  (10) 
Cn1ccc(CN=C(N)Nc2ccccn2)c1

>  <rationale>  (10) 
info hbond:S87+D39; hydroph_interaction:P107+Y90+T126+V84+R93; pication:H21; 

>  <intxn_cluster>  (10) 
206

>  <intxn_cluster_rank>  (10) 
2

>  <N_interactions>  (10) 
9

>  <∆∆G>  (10) 
-9.493793

>  <$/mg>  (10) 
163.0

>  <comRMSD>  (10) 
0.860075

>  <N_rotatable_bonds>  (10) 
4

>  <N_analogues_07>  (10) 
0

>  <deep_P1_sidechain>  (10) 
False

>  <farthest_distance_to_substrate>  (10) 
2.310476

>  <hbond:SER:7>  (10) 
hbond:SER:7    0
hbond:SER:7    0
Name: 9, dtype: object

>  <halogenbond:SER:7>  (10) 
halogenbond:SER:7    0
halogenbond:SER:7    0
Name: 9, dtype: object

>  <hbond:GLY:8>  (10) 
hbond:GLY:8    0
hbond:GLY:8    0
Name: 9, dtype: object

>  <hydroph_interaction:ASN:19>  (10) 
hydroph_interaction:ASN:19    0
hydroph_interaction:ASN:19    0
Name: 9, dtype: object

>  <hbond:ASN:19>  (10) 
hbond:ASN:19    0
hbond:ASN:19    0
Name: 9, dtype: object

>  <halogenbond:ASN:19>  (10) 
halogenbond:ASN:19    0
halogenbond:ASN:19    0
Name: 9, dtype: object

>  <hbond:ARG:20>  (10) 
hbond:ARG:20    0
hbond:ARG:20    0
Name: 9, dtype: object

>  <hydroph_interaction:ARG:20>  (10) 
hydroph_interaction:ARG:20    0
hydroph_interaction:ARG:20    0
Name: 9, dtype: object

>  <saltbridge:ARG:20>  (10) 
saltbridge:ARG:20    0
saltbridge:ARG:20    0
Name: 9, dtype: object

>  <halogenbond:ARG:20>  (10) 
halogenbond:ARG:20    0
halogenbond:ARG:20    0
Name: 9, dtype: object

>  <pication:ARG:20>  (10) 
pication:ARG:20    0
pication:ARG:20    0
Name: 9, dtype: object

>  <hbond:HIS:21>  (10) 
hbond:HIS:21    0
hbond:HIS:21    0
Name: 9, dtype: object

>  <hydroph_interaction:HIS:21>  (10) 
hydroph_interaction:HIS:21    0
hydroph_interaction:HIS:21    0
Name: 9, dtype: object

>  <saltbridge:HIS:21>  (10) 
saltbridge:HIS:21    0
saltbridge:HIS:21    0
Name: 9, dtype: object

>  <pistack:HIS:21>  (10) 
pistack:HIS:21    0
pistack:HIS:21    0
Name: 9, dtype: object

>  <pication:HIS:21>  (10) 
pication:HIS:21    1
pication:HIS:21    1
Name: 9, dtype: object

>  <halogenbond:HIS:21>  (10) 
halogenbond:HIS:21    0
halogenbond:HIS:21    0
Name: 9, dtype: object

>  <hydroph_interaction:LEU:22>  (10) 
hydroph_interaction:LEU:22    0
hydroph_interaction:LEU:22    0
Name: 9, dtype: object

>  <hbond:LEU:22>  (10) 
hbond:LEU:22    0
hbond:LEU:22    0
Name: 9, dtype: object

>  <hydroph_interaction:TRP:28>  (10) 
hydroph_interaction:TRP:28    0
hydroph_interaction:TRP:28    0
Name: 9, dtype: object

>  <hbond:SER:36>  (10) 
hbond:SER:36    0
hbond:SER:36    0
Name: 9, dtype: object

>  <halogenbond:SER:36>  (10) 
halogenbond:SER:36    0
halogenbond:SER:36    0
Name: 9, dtype: object

>  <hbond:ARG:38>  (10) 
hbond:ARG:38    0
hbond:ARG:38    0
Name: 9, dtype: object

>  <halogenbond:ARG:38>  (10) 
halogenbond:ARG:38    0
halogenbond:ARG:38    0
Name: 9, dtype: object

>  <hbond:ASP:39>  (10) 
hbond:ASP:39    1
hbond:ASP:39    1
Name: 9, dtype: object

>  <saltbridge:ASP:39>  (10) 
saltbridge:ASP:39    0
saltbridge:ASP:39    0
Name: 9, dtype: object

>  <hydroph_interaction:ASP:39>  (10) 
hydroph_interaction:ASP:39    0
hydroph_interaction:ASP:39    0
Name: 9, dtype: object

>  <halogenbond:ASP:39>  (10) 
halogenbond:ASP:39    0
halogenbond:ASP:39    0
Name: 9, dtype: object

>  <hydroph_interaction:LEU:40>  (10) 
hydroph_interaction:LEU:40    0
hydroph_interaction:LEU:40    0
Name: 9, dtype: object

>  <hydroph_interaction:TYR:63>  (10) 
hydroph_interaction:TYR:63    0
hydroph_interaction:TYR:63    0
Name: 9, dtype: object

>  <pistack:TYR:63>  (10) 
pistack:TYR:63    0
pistack:TYR:63    0
Name: 9, dtype: object

>  <hbond:TYR:63>  (10) 
hbond:TYR:63    0
hbond:TYR:63    0
Name: 9, dtype: object

>  <hbond:TYR:64>  (10) 
hbond:TYR:64    0
hbond:TYR:64    0
Name: 9, dtype: object

>  <halogenbond:TYR:64>  (10) 
halogenbond:TYR:64    0
halogenbond:TYR:64    0
Name: 9, dtype: object

>  <hydroph_interaction:TYR:64>  (10) 
hydroph_interaction:TYR:64    0
hydroph_interaction:TYR:64    0
Name: 9, dtype: object

>  <hbond:CYS:65>  (10) 
hbond:CYS:65    0
hbond:CYS:65    0
Name: 9, dtype: object

>  <halogenbond:CYS:65>  (10) 
halogenbond:CYS:65    0
halogenbond:CYS:65    0
Name: 9, dtype: object

>  <hbond:SER:66>  (10) 
hbond:SER:66    0
hbond:SER:66    0
Name: 9, dtype: object

>  <hbond:SER:67>  (10) 
hbond:SER:67    0
hbond:SER:67    0
Name: 9, dtype: object

>  <halogenbond:SER:67>  (10) 
halogenbond:SER:67    0
halogenbond:SER:67    0
Name: 9, dtype: object

>  <hydroph_interaction:ARG:68>  (10) 
hydroph_interaction:ARG:68    0
hydroph_interaction:ARG:68    0
Name: 9, dtype: object

>  <hbond:ARG:68>  (10) 
hbond:ARG:68    0
hbond:ARG:68    0
Name: 9, dtype: object

>  <saltbridge:ARG:68>  (10) 
saltbridge:ARG:68    0
saltbridge:ARG:68    0
Name: 9, dtype: object

>  <pication:ARG:68>  (10) 
pication:ARG:68    0
pication:ARG:68    0
Name: 9, dtype: object

>  <hydroph_interaction:TYR:72>  (10) 
hydroph_interaction:TYR:72    0
hydroph_interaction:TYR:72    0
Name: 9, dtype: object

>  <hydroph_interaction:VAL:74>  (10) 
hydroph_interaction:VAL:74    0
hydroph_interaction:VAL:74    0
Name: 9, dtype: object

>  <hydroph_interaction:PHE:76>  (10) 
hydroph_interaction:PHE:76    0
hydroph_interaction:PHE:76    0
Name: 9, dtype: object

>  <hbond:SER:77>  (10) 
hbond:SER:77    0
hbond:SER:77    0
Name: 9, dtype: object

>  <hbond:SER:80>  (10) 
hbond:SER:80    0
hbond:SER:80    0
Name: 9, dtype: object

>  <hbond:LEU:81>  (10) 
hbond:LEU:81    0
hbond:LEU:81    0
Name: 9, dtype: object

>  <halogenbond:LEU:81>  (10) 
halogenbond:LEU:81    0
halogenbond:LEU:81    0
Name: 9, dtype: object

>  <hydroph_interaction:LEU:81>  (10) 
hydroph_interaction:LEU:81    0
hydroph_interaction:LEU:81    0
Name: 9, dtype: object

>  <hydroph_interaction:ILE:82>  (10) 
hydroph_interaction:ILE:82    0
hydroph_interaction:ILE:82    0
Name: 9, dtype: object

>  <hbond:ILE:82>  (10) 
hbond:ILE:82    0
hbond:ILE:82    0
Name: 9, dtype: object

>  <hydroph_interaction:PHE:83>  (10) 
hydroph_interaction:PHE:83    0
hydroph_interaction:PHE:83    0
Name: 9, dtype: object

>  <hbond:PHE:83>  (10) 
hbond:PHE:83    0
hbond:PHE:83    0
Name: 9, dtype: object

>  <halogenbond:PHE:83>  (10) 
halogenbond:PHE:83    0
halogenbond:PHE:83    0
Name: 9, dtype: object

>  <pistack:PHE:83>  (10) 
pistack:PHE:83    0
pistack:PHE:83    0
Name: 9, dtype: object

>  <hydroph_interaction:VAL:84>  (10) 
hydroph_interaction:VAL:84    1
hydroph_interaction:VAL:84    1
Name: 9, dtype: object

>  <hbond:VAL:84>  (10) 
hbond:VAL:84    0
hbond:VAL:84    0
Name: 9, dtype: object

>  <halogenbond:VAL:84>  (10) 
halogenbond:VAL:84    0
halogenbond:VAL:84    0
Name: 9, dtype: object

>  <hydroph_interaction:GLU:85>  (10) 
hydroph_interaction:GLU:85    0
hydroph_interaction:GLU:85    0
Name: 9, dtype: object

>  <hbond:GLU:85>  (10) 
hbond:GLU:85    0
hbond:GLU:85    0
Name: 9, dtype: object

>  <saltbridge:GLU:85>  (10) 
saltbridge:GLU:85    0
saltbridge:GLU:85    0
Name: 9, dtype: object

>  <halogenbond:GLU:85>  (10) 
halogenbond:GLU:85    0
halogenbond:GLU:85    0
Name: 9, dtype: object

>  <hbond:ALA:86>  (10) 
hbond:ALA:86    0
hbond:ALA:86    0
Name: 9, dtype: object

>  <halogenbond:ALA:86>  (10) 
halogenbond:ALA:86    0
halogenbond:ALA:86    0
Name: 9, dtype: object

>  <hydroph_interaction:ALA:86>  (10) 
hydroph_interaction:ALA:86    0
hydroph_interaction:ALA:86    0
Name: 9, dtype: object

>  <hbond:SER:87>  (10) 
hbond:SER:87    1
hbond:SER:87    1
Name: 9, dtype: object

>  <halogenbond:SER:87>  (10) 
halogenbond:SER:87    0
halogenbond:SER:87    0
Name: 9, dtype: object

>  <hbond:GLU:88>  (10) 
hbond:GLU:88    0
hbond:GLU:88    0
Name: 9, dtype: object

>  <hydroph_interaction:GLU:88>  (10) 
hydroph_interaction:GLU:88    0
hydroph_interaction:GLU:88    0
Name: 9, dtype: object

>  <halogenbond:GLU:88>  (10) 
halogenbond:GLU:88    0
halogenbond:GLU:88    0
Name: 9, dtype: object

>  <saltbridge:GLU:88>  (10) 
saltbridge:GLU:88    0
saltbridge:GLU:88    0
Name: 9, dtype: object

>  <hydroph_interaction:TYR:89>  (10) 
hydroph_interaction:TYR:89    0
hydroph_interaction:TYR:89    0
Name: 9, dtype: object

>  <pistack:TYR:89>  (10) 
pistack:TYR:89    0
pistack:TYR:89    0
Name: 9, dtype: object

>  <hbond:TYR:89>  (10) 
hbond:TYR:89    0
hbond:TYR:89    0
Name: 9, dtype: object

>  <halogenbond:TYR:89>  (10) 
halogenbond:TYR:89    0
halogenbond:TYR:89    0
Name: 9, dtype: object

>  <hbond:TYR:90>  (10) 
hbond:TYR:90    0
hbond:TYR:90    0
Name: 9, dtype: object

>  <hydroph_interaction:TYR:90>  (10) 
hydroph_interaction:TYR:90    2
hydroph_interaction:TYR:90    2
Name: 9, dtype: object

>  <pistack:TYR:90>  (10) 
pistack:TYR:90    0
pistack:TYR:90    0
Name: 9, dtype: object

>  <halogenbond:TYR:90>  (10) 
halogenbond:TYR:90    0
halogenbond:TYR:90    0
Name: 9, dtype: object

>  <pication:TYR:90>  (10) 
pication:TYR:90    0
pication:TYR:90    0
Name: 9, dtype: object

>  <hydroph_interaction:PRO:91>  (10) 
hydroph_interaction:PRO:91    0
hydroph_interaction:PRO:91    0
Name: 9, dtype: object

>  <halogenbond:PRO:91>  (10) 
halogenbond:PRO:91    0
halogenbond:PRO:91    0
Name: 9, dtype: object

>  <hbond:PRO:91>  (10) 
hbond:PRO:91    0
hbond:PRO:91    0
Name: 9, dtype: object

>  <hydroph_interaction:ALA:92>  (10) 
hydroph_interaction:ALA:92    0
hydroph_interaction:ALA:92    0
Name: 9, dtype: object

>  <hbond:ARG:93>  (10) 
hbond:ARG:93    0
hbond:ARG:93    0
Name: 9, dtype: object

>  <pication:ARG:93>  (10) 
pication:ARG:93    0
pication:ARG:93    0
Name: 9, dtype: object

>  <saltbridge:ARG:93>  (10) 
saltbridge:ARG:93    0
saltbridge:ARG:93    0
Name: 9, dtype: object

>  <hydroph_interaction:ARG:93>  (10) 
hydroph_interaction:ARG:93    1
hydroph_interaction:ARG:93    1
Name: 9, dtype: object

>  <halogenbond:ARG:93>  (10) 
halogenbond:ARG:93    0
halogenbond:ARG:93    0
Name: 9, dtype: object

>  <hydroph_interaction:TYR:94>  (10) 
hydroph_interaction:TYR:94    0
hydroph_interaction:TYR:94    0
Name: 9, dtype: object

>  <hbond:TYR:94>  (10) 
hbond:TYR:94    0
hbond:TYR:94    0
Name: 9, dtype: object

>  <halogenbond:GLN:95>  (10) 
halogenbond:GLN:95    0
halogenbond:GLN:95    0
Name: 9, dtype: object

>  <hbond:GLN:95>  (10) 
hbond:GLN:95    0
hbond:GLN:95    0
Name: 9, dtype: object

>  <hydroph_interaction:GLN:95>  (10) 
hydroph_interaction:GLN:95    0
hydroph_interaction:GLN:95    0
Name: 9, dtype: object

>  <hbond:SER:96>  (10) 
hbond:SER:96    0
hbond:SER:96    0
Name: 9, dtype: object

>  <hydroph_interaction:LEU:98>  (10) 
hydroph_interaction:LEU:98    0
hydroph_interaction:LEU:98    0
Name: 9, dtype: object

>  <hbond:LEU:98>  (10) 
hbond:LEU:98    0
hbond:LEU:98    0
Name: 9, dtype: object

>  <hbond:MET:99>  (10) 
hbond:MET:99    0
hbond:MET:99    0
Name: 9, dtype: object

>  <hydroph_interaction:MET:99>  (10) 
hydroph_interaction:MET:99    0
hydroph_interaction:MET:99    0
Name: 9, dtype: object

>  <halogenbond:MET:99>  (10) 
halogenbond:MET:99    0
halogenbond:MET:99    0
Name: 9, dtype: object

>  <hydroph_interaction:LEU:100>  (10) 
hydroph_interaction:LEU:100    0
hydroph_interaction:LEU:100    0
Name: 9, dtype: object

>  <hbond:LEU:100>  (10) 
hbond:LEU:100    0
hbond:LEU:100    0
Name: 9, dtype: object

>  <hbond:ALA:101>  (10) 
hbond:ALA:101    0
hbond:ALA:101    0
Name: 9, dtype: object

>  <hydroph_interaction:ALA:101>  (10) 
hydroph_interaction:ALA:101    0
hydroph_interaction:ALA:101    0
Name: 9, dtype: object

>  <hydroph_interaction:VAL:102>  (10) 
hydroph_interaction:VAL:102    0
hydroph_interaction:VAL:102    0
Name: 9, dtype: object

>  <hbond:VAL:102>  (10) 
hbond:VAL:102    0
hbond:VAL:102    0
Name: 9, dtype: object

>  <hbond:GLY:103>  (10) 
hbond:GLY:103    0
hbond:GLY:103    0
Name: 9, dtype: object

>  <halogenbond:GLY:103>  (10) 
halogenbond:GLY:103    0
halogenbond:GLY:103    0
Name: 9, dtype: object

>  <hydroph_interaction:HIS:104>  (10) 
hydroph_interaction:HIS:104    0
hydroph_interaction:HIS:104    0
Name: 9, dtype: object

>  <hbond:HIS:104>  (10) 
hbond:HIS:104    0
hbond:HIS:104    0
Name: 9, dtype: object

>  <saltbridge:HIS:104>  (10) 
saltbridge:HIS:104    0
saltbridge:HIS:104    0
Name: 9, dtype: object

>  <pication:HIS:104>  (10) 
pication:HIS:104    0
pication:HIS:104    0
Name: 9, dtype: object

>  <pistack:HIS:104>  (10) 
pistack:HIS:104    0
pistack:HIS:104    0
Name: 9, dtype: object

>  <halogenbond:HIS:104>  (10) 
halogenbond:HIS:104    0
halogenbond:HIS:104    0
Name: 9, dtype: object

>  <hbond:SER:105>  (10) 
hbond:SER:105    0
hbond:SER:105    0
Name: 9, dtype: object

>  <halogenbond:SER:105>  (10) 
halogenbond:SER:105    0
halogenbond:SER:105    0
Name: 9, dtype: object

>  <hbond:GLU:106>  (10) 
hbond:GLU:106    0
hbond:GLU:106    0
Name: 9, dtype: object

>  <hydroph_interaction:GLU:106>  (10) 
hydroph_interaction:GLU:106    0
hydroph_interaction:GLU:106    0
Name: 9, dtype: object

>  <saltbridge:GLU:106>  (10) 
saltbridge:GLU:106    0
saltbridge:GLU:106    0
Name: 9, dtype: object

>  <halogenbond:GLU:106>  (10) 
halogenbond:GLU:106    0
halogenbond:GLU:106    0
Name: 9, dtype: object

>  <hydroph_interaction:PRO:107>  (10) 
hydroph_interaction:PRO:107    1
hydroph_interaction:PRO:107    1
Name: 9, dtype: object

>  <hbond:PRO:107>  (10) 
hbond:PRO:107    0
hbond:PRO:107    0
Name: 9, dtype: object

>  <halogenbond:PRO:107>  (10) 
halogenbond:PRO:107    0
halogenbond:PRO:107    0
Name: 9, dtype: object

>  <hbond:GLY:108>  (10) 
hbond:GLY:108    0
hbond:GLY:108    0
Name: 9, dtype: object

>  <halogenbond:GLY:108>  (10) 
halogenbond:GLY:108    0
halogenbond:GLY:108    0
Name: 9, dtype: object

>  <hbond:ASP:109>  (10) 
hbond:ASP:109    0
hbond:ASP:109    0
Name: 9, dtype: object

>  <hydroph_interaction:ASP:109>  (10) 
hydroph_interaction:ASP:109    0
hydroph_interaction:ASP:109    0
Name: 9, dtype: object

>  <saltbridge:ASP:109>  (10) 
saltbridge:ASP:109    0
saltbridge:ASP:109    0
Name: 9, dtype: object

>  <hbond:CYS:110>  (10) 
hbond:CYS:110    0
hbond:CYS:110    0
Name: 9, dtype: object

>  <halogenbond:CYS:110>  (10) 
halogenbond:CYS:110    0
halogenbond:CYS:110    0
Name: 9, dtype: object

>  <hbond:GLY:111>  (10) 
hbond:GLY:111    0
hbond:GLY:111    0
Name: 9, dtype: object

>  <hbond:GLY:112>  (10) 
hbond:GLY:112    0
hbond:GLY:112    0
Name: 9, dtype: object

>  <hbond:ILE:113>  (10) 
hbond:ILE:113    0
hbond:ILE:113    0
Name: 9, dtype: object

>  <hydroph_interaction:LEU:114>  (10) 
hydroph_interaction:LEU:114    0
hydroph_interaction:LEU:114    0
Name: 9, dtype: object

>  <hbond:LEU:114>  (10) 
hbond:LEU:114    0
hbond:LEU:114    0
Name: 9, dtype: object

>  <hydroph_interaction:ILE:123>  (10) 
hydroph_interaction:ILE:123    0
hydroph_interaction:ILE:123    0
Name: 9, dtype: object

>  <hbond:ILE:123>  (10) 
hbond:ILE:123    0
hbond:ILE:123    0
Name: 9, dtype: object

>  <hydroph_interaction:VAL:124>  (10) 
hydroph_interaction:VAL:124    0
hydroph_interaction:VAL:124    0
Name: 9, dtype: object

>  <hbond:VAL:124>  (10) 
hbond:VAL:124    0
hbond:VAL:124    0
Name: 9, dtype: object

>  <halogenbond:VAL:124>  (10) 
halogenbond:VAL:124    0
halogenbond:VAL:124    0
Name: 9, dtype: object

>  <hbond:SER:125>  (10) 
hbond:SER:125    0
hbond:SER:125    0
Name: 9, dtype: object

>  <halogenbond:SER:125>  (10) 
halogenbond:SER:125    0
halogenbond:SER:125    0
Name: 9, dtype: object

>  <hydroph_interaction:THR:126>  (10) 
hydroph_interaction:THR:126    1
hydroph_interaction:THR:126    1
Name: 9, dtype: object

>  <hbond:THR:126>  (10) 
hbond:THR:126    0
hbond:THR:126    0
Name: 9, dtype: object

>  <halogenbond:THR:126>  (10) 
halogenbond:THR:126    0
halogenbond:THR:126    0
Name: 9, dtype: object

>  <hbond:GLY:127>  (10) 
hbond:GLY:127    0
hbond:GLY:127    0
Name: 9, dtype: object

>  <halogenbond:GLY:127>  (10) 
halogenbond:GLY:127    0
halogenbond:GLY:127    0
Name: 9, dtype: object

>  <hydroph_interaction:GLY:127>  (10) 
hydroph_interaction:GLY:127    0
hydroph_interaction:GLY:127    0
Name: 9, dtype: object

>  <hbond:GLY:128>  (10) 
hbond:GLY:128    0
hbond:GLY:128    0
Name: 9, dtype: object

>  <halogenbond:GLY:128>  (10) 
halogenbond:GLY:128    0
halogenbond:GLY:128    0
Name: 9, dtype: object

>  <hydroph_interaction:GLY:128>  (10) 
hydroph_interaction:GLY:128    0
hydroph_interaction:GLY:128    0
Name: 9, dtype: object

>  <hbond:ASN:129>  (10) 
hbond:ASN:129    0
hbond:ASN:129    0
Name: 9, dtype: object

>  <hydroph_interaction:ASN:129>  (10) 
hydroph_interaction:ASN:129    0
hydroph_interaction:ASN:129    0
Name: 9, dtype: object

>  <halogenbond:ASN:129>  (10) 
halogenbond:ASN:129    0
halogenbond:ASN:129    0
Name: 9, dtype: object

>  <hbond:GLY:130>  (10) 
hbond:GLY:130    0
hbond:GLY:130    0
Name: 9, dtype: object

>  <hydroph_interaction:LEU:131>  (10) 
hydroph_interaction:LEU:131    0
hydroph_interaction:LEU:131    0
Name: 9, dtype: object

>  <hbond:LEU:131>  (10) 
hbond:LEU:131    0
hbond:LEU:131    0
Name: 9, dtype: object

>  <halogenbond:LEU:131>  (10) 
halogenbond:LEU:131    0
halogenbond:LEU:131    0
Name: 9, dtype: object

>  <hydroph_interaction:VAL:132>  (10) 
hydroph_interaction:VAL:132    0
hydroph_interaction:VAL:132    0
Name: 9, dtype: object

>  <hbond:VAL:132>  (10) 
hbond:VAL:132    0
hbond:VAL:132    0
Name: 9, dtype: object

>  <hbond:GLY:133>  (10) 
hbond:GLY:133    0
hbond:GLY:133    0
Name: 9, dtype: object

>  <halogenbond:GLY:133>  (10) 
halogenbond:GLY:133    0
halogenbond:GLY:133    0
Name: 9, dtype: object

>  <hydroph_interaction:PHE:134>  (10) 
hydroph_interaction:PHE:134    0
hydroph_interaction:PHE:134    0
Name: 9, dtype: object

>  <hbond:PHE:134>  (10) 
hbond:PHE:134    0
hbond:PHE:134    0
Name: 9, dtype: object

>  <pistack:PHE:134>  (10) 
pistack:PHE:134    0
pistack:PHE:134    0
Name: 9, dtype: object

>  <pication:PHE:134>  (10) 
pication:PHE:134    0
pication:PHE:134    0
Name: 9, dtype: object

>  <hydroph_interaction:ALA:135>  (10) 
hydroph_interaction:ALA:135    0
hydroph_interaction:ALA:135    0
Name: 9, dtype: object

>  <hbond:ALA:135>  (10) 
hbond:ALA:135    0
hbond:ALA:135    0
Name: 9, dtype: object

$$$$
Z2645531041
     RDKit          3D

 46 47  0  0  0  0  0  0  0  0999 V2000
   13.6250   21.6200   16.6790 C   0  0  0  0  0  0  0  0  0  0  0  0
   13.4490   20.3890   16.1780 C   0  0  0  0  0  0  0  0  0  0  0  0
   14.1940   19.2110   16.7550 C   0  0  1  0  0  0  0  0  0  0  0  0
   14.9730   18.6350   15.7320 O   0  0  0  0  0  0  0  0  0  0  0  0
   14.9960   19.1690   17.8670 C   0  0  0  0  0  0  0  0  0  0  0  0
   14.3550   18.3730   18.7870 N   0  0  0  0  0  0  0  0  0  0  0  0
   14.3460   17.0070   18.6950 C   0  0  0  0  0  0  0  0  0  0  0  0
   15.0160   16.3750   17.8980 O   0  0  0  0  0  0  0  0  0  0  0  0
   13.6140   16.1380   19.6700 C   0  0  0  0  0  0  0  0  0  0  0  0
   13.6330   14.7600   19.5830 C   0  0  0  0  0  0  0  0  0  0  0  0
   13.0010   13.9560   20.5280 C   0  0  0  0  0  0  0  0  0  0  0  0
   12.3080   14.5210   21.6020 C   0  0  0  0  0  0  0  0  0  0  0  0
   11.5790   13.9690   22.7140 C   0  0  0  0  0  0  0  0  0  0  0  0
   12.0740   14.0500   23.8370 O   0  0  0  0  0  0  0  0  0  0  0  0
   10.3510   13.3960   22.3970 N   0  0  0  0  0  0  0  0  0  0  0  0
    9.5310   14.1850   21.5030 C   0  0  0  0  0  0  0  0  0  0  0  0
    9.7190   12.3050   23.1050 C   0  0  0  0  0  0  0  0  0  0  0  0
   10.0580   10.9700   22.8460 C   0  0  0  0  0  0  0  0  0  0  0  0
    9.4410    9.9350   23.5190 C   0  0  0  0  0  0  0  0  0  0  0  0
    8.4710   10.2300   24.4620 C   0  0  0  0  0  0  0  0  0  0  0  0
    8.1070   11.5290   24.7520 C   0  0  0  0  0  0  0  0  0  0  0  0
    8.7360   12.5670   24.0700 C   0  0  0  0  0  0  0  0  0  0  0  0
   12.2800   15.9110   21.6580 C   0  0  0  0  0  0  0  0  0  0  0  0
   12.9130   16.7200   20.7100 C   0  0  0  0  0  0  0  0  0  0  0  0
   14.3190   22.2490   16.1300 H   0  0  0  0  0  0  0  0  0  0  0  0
   13.8290   21.6750   17.7420 H   0  0  0  0  0  0  0  0  0  0  0  0
   12.6460   22.0970   16.5780 H   0  0  0  0  0  0  0  0  0  0  0  0
   13.6610   20.4660   15.1160 H   0  0  0  0  0  0  0  0  0  0  0  0
   12.3820   20.1660   16.2410 H   0  0  0  0  0  0  0  0  0  0  0  0
   13.4240   18.4590   16.9500 H   0  0  0  0  0  0  0  0  0  0  0  0
   14.3820   17.9180   15.3830 H   0  0  0  0  0  0  0  0  0  0  0  0
   15.9950   18.7880   17.6410 H   0  0  0  0  0  0  0  0  0  0  0  0
   15.0780   20.1660   18.3080 H   0  0  0  0  0  0  0  0  0  0  0  0
   13.8410   18.8440   19.5150 H   0  0  0  0  0  0  0  0  0  0  0  0
   14.1680   14.2820   18.7660 H   0  0  0  0  0  0  0  0  0  0  0  0
   13.0660   12.8860   20.4150 H   0  0  0  0  0  0  0  0  0  0  0  0
    9.7960   13.9570   20.4770 H   0  0  0  0  0  0  0  0  0  0  0  0
    8.4700   14.0020   21.6960 H   0  0  0  0  0  0  0  0  0  0  0  0
    9.7370   15.2370   21.6090 H   0  0  0  0  0  0  0  0  0  0  0  0
   10.8040   10.6950   22.1150 H   0  0  0  0  0  0  0  0  0  0  0  0
    9.7230    8.9200   23.2980 H   0  0  0  0  0  0  0  0  0  0  0  0
    8.0330    9.3620   24.9410 H   0  0  0  0  0  0  0  0  0  0  0  0
    7.3480   11.7350   25.4940 H   0  0  0  0  0  0  0  0  0  0  0  0
    8.4260   13.5770   24.3200 H   0  0  0  0  0  0  0  0  0  0  0  0
   11.7620   16.3920   22.4550 H   0  0  0  0  0  0  0  0  0  0  0  0
   12.8490   17.7890   20.8210 H   0  0  0  0  0  0  0  0  0  0  0  0
  1  2  1  0
  2  3  1  0
  3  4  1  0
  3  5  1  0
  5  6  1  0
  6  7  1  0
  7  8  2  0
  7  9  1  0
  9 10  2  0
 10 11  1  0
 11 12  2  0
 12 13  1  0
 13 14  2  0
 13 15  1  0
 15 16  1  0
 15 17  1  0
 17 18  2  0
 18 19  1  0
 19 20  2  0
 20 21  1  0
 21 22  2  0
 12 23  1  0
 23 24  2  0
 24  9  1  0
 22 17  1  0
  1 25  1  0
  1 26  1  0
  1 27  1  0
  2 28  1  0
  2 29  1  0
  3 30  1  1
  4 31  1  0
  5 32  1  0
  5 33  1  0
  6 34  1  0
 10 35  1  0
 11 36  1  0
 16 37  1  0
 16 38  1  0
 16 39  1  0
 18 40  1  0
 19 41  1  0
 20 42  1  0
 21 43  1  0
 22 44  1  0
 23 45  1  0
 24 46  1  0
A    1
 C1 
A    2
 C2 
A    3
 C3 
A    4
 O1 
A    5
 C4 
A    6
 N1 
A    7
 C5 
A    8
 O2 
A    9
 C6 
A   10
 C7 
A   11
 C8 
A   12
 C9 
A   13
 C10
A   14
 O3 
A   15
 N2 
A   16
 C11
A   17
 C12
A   18
 C13
A   19
 C14
A   20
 C15
A   21
 C16
A   22
 C17
A   23
 C18
A   24
 C19
A   25
 H1 
A   26
 H2 
A   27
 H3 
A   28
 H4 
A   29
 H5 
A   30
 H6 
A   31
 H7 
A   32
 H8 
A   33
 H9 
A   34
 H10
A   35
 H11
A   36
 H12
A   37
 H13
A   38
 H14
A   39
 H15
A   40
 H16
A   41
 H17
A   42
 H18
A   43
 H19
A   44
 H20
A   45
 H21
A   46
 H22
M  END
>  <ref_pdb>  (11) 
x0310_0A

>  <ref_mols>  (11) 
x0554_0A,x0310_0A

>  <original SMILES>  (11) 
CC[C@@H](O)CNC(=O)c1ccc(C(=O)N(C)c2ccccc2)cc1

>  <rationale>  (11) 
info hbond:S87+H21+D39+Y89+S36; hydroph_interaction:P107+Y89+Y90+H21+D39; 

>  <intxn_cluster>  (11) 
204

>  <intxn_cluster_rank>  (11) 
2

>  <N_interactions>  (11) 
11

>  <∆∆G>  (11) 
-9.948493

>  <$/mg>  (11) 
163.0

>  <comRMSD>  (11) 
0.797582

>  <N_rotatable_bonds>  (11) 
9

>  <N_analogues_07>  (11) 
0

>  <deep_P1_sidechain>  (11) 
False

>  <farthest_distance_to_substrate>  (11) 
4.57157

>  <hbond:SER:7>  (11) 
hbond:SER:7    0
hbond:SER:7    0
Name: 10, dtype: object

>  <halogenbond:SER:7>  (11) 
halogenbond:SER:7    0
halogenbond:SER:7    0
Name: 10, dtype: object

>  <hbond:GLY:8>  (11) 
hbond:GLY:8    0
hbond:GLY:8    0
Name: 10, dtype: object

>  <hydroph_interaction:ASN:19>  (11) 
hydroph_interaction:ASN:19    0
hydroph_interaction:ASN:19    0
Name: 10, dtype: object

>  <hbond:ASN:19>  (11) 
hbond:ASN:19    0
hbond:ASN:19    0
Name: 10, dtype: object

>  <halogenbond:ASN:19>  (11) 
halogenbond:ASN:19    0
halogenbond:ASN:19    0
Name: 10, dtype: object

>  <hbond:ARG:20>  (11) 
hbond:ARG:20    0
hbond:ARG:20    0
Name: 10, dtype: object

>  <hydroph_interaction:ARG:20>  (11) 
hydroph_interaction:ARG:20    0
hydroph_interaction:ARG:20    0
Name: 10, dtype: object

>  <saltbridge:ARG:20>  (11) 
saltbridge:ARG:20    0
saltbridge:ARG:20    0
Name: 10, dtype: object

>  <halogenbond:ARG:20>  (11) 
halogenbond:ARG:20    0
halogenbond:ARG:20    0
Name: 10, dtype: object

>  <pication:ARG:20>  (11) 
pication:ARG:20    0
pication:ARG:20    0
Name: 10, dtype: object

>  <hbond:HIS:21>  (11) 
hbond:HIS:21    1
hbond:HIS:21    1
Name: 10, dtype: object

>  <hydroph_interaction:HIS:21>  (11) 
hydroph_interaction:HIS:21    1
hydroph_interaction:HIS:21    1
Name: 10, dtype: object

>  <saltbridge:HIS:21>  (11) 
saltbridge:HIS:21    0
saltbridge:HIS:21    0
Name: 10, dtype: object

>  <pistack:HIS:21>  (11) 
pistack:HIS:21    0
pistack:HIS:21    0
Name: 10, dtype: object

>  <pication:HIS:21>  (11) 
pication:HIS:21    0
pication:HIS:21    0
Name: 10, dtype: object

>  <halogenbond:HIS:21>  (11) 
halogenbond:HIS:21    0
halogenbond:HIS:21    0
Name: 10, dtype: object

>  <hydroph_interaction:LEU:22>  (11) 
hydroph_interaction:LEU:22    0
hydroph_interaction:LEU:22    0
Name: 10, dtype: object

>  <hbond:LEU:22>  (11) 
hbond:LEU:22    0
hbond:LEU:22    0
Name: 10, dtype: object

>  <hydroph_interaction:TRP:28>  (11) 
hydroph_interaction:TRP:28    0
hydroph_interaction:TRP:28    0
Name: 10, dtype: object

>  <hbond:SER:36>  (11) 
hbond:SER:36    1
hbond:SER:36    1
Name: 10, dtype: object

>  <halogenbond:SER:36>  (11) 
halogenbond:SER:36    0
halogenbond:SER:36    0
Name: 10, dtype: object

>  <hbond:ARG:38>  (11) 
hbond:ARG:38    0
hbond:ARG:38    0
Name: 10, dtype: object

>  <halogenbond:ARG:38>  (11) 
halogenbond:ARG:38    0
halogenbond:ARG:38    0
Name: 10, dtype: object

>  <hbond:ASP:39>  (11) 
hbond:ASP:39    1
hbond:ASP:39    1
Name: 10, dtype: object

>  <saltbridge:ASP:39>  (11) 
saltbridge:ASP:39    0
saltbridge:ASP:39    0
Name: 10, dtype: object

>  <hydroph_interaction:ASP:39>  (11) 
hydroph_interaction:ASP:39    1
hydroph_interaction:ASP:39    1
Name: 10, dtype: object

>  <halogenbond:ASP:39>  (11) 
halogenbond:ASP:39    0
halogenbond:ASP:39    0
Name: 10, dtype: object

>  <hydroph_interaction:LEU:40>  (11) 
hydroph_interaction:LEU:40    0
hydroph_interaction:LEU:40    0
Name: 10, dtype: object

>  <hydroph_interaction:TYR:63>  (11) 
hydroph_interaction:TYR:63    0
hydroph_interaction:TYR:63    0
Name: 10, dtype: object

>  <pistack:TYR:63>  (11) 
pistack:TYR:63    0
pistack:TYR:63    0
Name: 10, dtype: object

>  <hbond:TYR:63>  (11) 
hbond:TYR:63    0
hbond:TYR:63    0
Name: 10, dtype: object

>  <hbond:TYR:64>  (11) 
hbond:TYR:64    0
hbond:TYR:64    0
Name: 10, dtype: object

>  <halogenbond:TYR:64>  (11) 
halogenbond:TYR:64    0
halogenbond:TYR:64    0
Name: 10, dtype: object

>  <hydroph_interaction:TYR:64>  (11) 
hydroph_interaction:TYR:64    0
hydroph_interaction:TYR:64    0
Name: 10, dtype: object

>  <hbond:CYS:65>  (11) 
hbond:CYS:65    0
hbond:CYS:65    0
Name: 10, dtype: object

>  <halogenbond:CYS:65>  (11) 
halogenbond:CYS:65    0
halogenbond:CYS:65    0
Name: 10, dtype: object

>  <hbond:SER:66>  (11) 
hbond:SER:66    0
hbond:SER:66    0
Name: 10, dtype: object

>  <hbond:SER:67>  (11) 
hbond:SER:67    0
hbond:SER:67    0
Name: 10, dtype: object

>  <halogenbond:SER:67>  (11) 
halogenbond:SER:67    0
halogenbond:SER:67    0
Name: 10, dtype: object

>  <hydroph_interaction:ARG:68>  (11) 
hydroph_interaction:ARG:68    0
hydroph_interaction:ARG:68    0
Name: 10, dtype: object

>  <hbond:ARG:68>  (11) 
hbond:ARG:68    0
hbond:ARG:68    0
Name: 10, dtype: object

>  <saltbridge:ARG:68>  (11) 
saltbridge:ARG:68    0
saltbridge:ARG:68    0
Name: 10, dtype: object

>  <pication:ARG:68>  (11) 
pication:ARG:68    0
pication:ARG:68    0
Name: 10, dtype: object

>  <hydroph_interaction:TYR:72>  (11) 
hydroph_interaction:TYR:72    0
hydroph_interaction:TYR:72    0
Name: 10, dtype: object

>  <hydroph_interaction:VAL:74>  (11) 
hydroph_interaction:VAL:74    0
hydroph_interaction:VAL:74    0
Name: 10, dtype: object

>  <hydroph_interaction:PHE:76>  (11) 
hydroph_interaction:PHE:76    0
hydroph_interaction:PHE:76    0
Name: 10, dtype: object

>  <hbond:SER:77>  (11) 
hbond:SER:77    0
hbond:SER:77    0
Name: 10, dtype: object

>  <hbond:SER:80>  (11) 
hbond:SER:80    0
hbond:SER:80    0
Name: 10, dtype: object

>  <hbond:LEU:81>  (11) 
hbond:LEU:81    0
hbond:LEU:81    0
Name: 10, dtype: object

>  <halogenbond:LEU:81>  (11) 
halogenbond:LEU:81    0
halogenbond:LEU:81    0
Name: 10, dtype: object

>  <hydroph_interaction:LEU:81>  (11) 
hydroph_interaction:LEU:81    0
hydroph_interaction:LEU:81    0
Name: 10, dtype: object

>  <hydroph_interaction:ILE:82>  (11) 
hydroph_interaction:ILE:82    0
hydroph_interaction:ILE:82    0
Name: 10, dtype: object

>  <hbond:ILE:82>  (11) 
hbond:ILE:82    0
hbond:ILE:82    0
Name: 10, dtype: object

>  <hydroph_interaction:PHE:83>  (11) 
hydroph_interaction:PHE:83    0
hydroph_interaction:PHE:83    0
Name: 10, dtype: object

>  <hbond:PHE:83>  (11) 
hbond:PHE:83    0
hbond:PHE:83    0
Name: 10, dtype: object

>  <halogenbond:PHE:83>  (11) 
halogenbond:PHE:83    0
halogenbond:PHE:83    0
Name: 10, dtype: object

>  <pistack:PHE:83>  (11) 
pistack:PHE:83    0
pistack:PHE:83    0
Name: 10, dtype: object

>  <hydroph_interaction:VAL:84>  (11) 
hydroph_interaction:VAL:84    0
hydroph_interaction:VAL:84    0
Name: 10, dtype: object

>  <hbond:VAL:84>  (11) 
hbond:VAL:84    0
hbond:VAL:84    0
Name: 10, dtype: object

>  <halogenbond:VAL:84>  (11) 
halogenbond:VAL:84    0
halogenbond:VAL:84    0
Name: 10, dtype: object

>  <hydroph_interaction:GLU:85>  (11) 
hydroph_interaction:GLU:85    0
hydroph_interaction:GLU:85    0
Name: 10, dtype: object

>  <hbond:GLU:85>  (11) 
hbond:GLU:85    0
hbond:GLU:85    0
Name: 10, dtype: object

>  <saltbridge:GLU:85>  (11) 
saltbridge:GLU:85    0
saltbridge:GLU:85    0
Name: 10, dtype: object

>  <halogenbond:GLU:85>  (11) 
halogenbond:GLU:85    0
halogenbond:GLU:85    0
Name: 10, dtype: object

>  <hbond:ALA:86>  (11) 
hbond:ALA:86    0
hbond:ALA:86    0
Name: 10, dtype: object

>  <halogenbond:ALA:86>  (11) 
halogenbond:ALA:86    0
halogenbond:ALA:86    0
Name: 10, dtype: object

>  <hydroph_interaction:ALA:86>  (11) 
hydroph_interaction:ALA:86    0
hydroph_interaction:ALA:86    0
Name: 10, dtype: object

>  <hbond:SER:87>  (11) 
hbond:SER:87    1
hbond:SER:87    1
Name: 10, dtype: object

>  <halogenbond:SER:87>  (11) 
halogenbond:SER:87    0
halogenbond:SER:87    0
Name: 10, dtype: object

>  <hbond:GLU:88>  (11) 
hbond:GLU:88    0
hbond:GLU:88    0
Name: 10, dtype: object

>  <hydroph_interaction:GLU:88>  (11) 
hydroph_interaction:GLU:88    0
hydroph_interaction:GLU:88    0
Name: 10, dtype: object

>  <halogenbond:GLU:88>  (11) 
halogenbond:GLU:88    0
halogenbond:GLU:88    0
Name: 10, dtype: object

>  <saltbridge:GLU:88>  (11) 
saltbridge:GLU:88    0
saltbridge:GLU:88    0
Name: 10, dtype: object

>  <hydroph_interaction:TYR:89>  (11) 
hydroph_interaction:TYR:89    1
hydroph_interaction:TYR:89    1
Name: 10, dtype: object

>  <pistack:TYR:89>  (11) 
pistack:TYR:89    0
pistack:TYR:89    0
Name: 10, dtype: object

>  <hbond:TYR:89>  (11) 
hbond:TYR:89    1
hbond:TYR:89    1
Name: 10, dtype: object

>  <halogenbond:TYR:89>  (11) 
halogenbond:TYR:89    0
halogenbond:TYR:89    0
Name: 10, dtype: object

>  <hbond:TYR:90>  (11) 
hbond:TYR:90    0
hbond:TYR:90    0
Name: 10, dtype: object

>  <hydroph_interaction:TYR:90>  (11) 
hydroph_interaction:TYR:90    2
hydroph_interaction:TYR:90    2
Name: 10, dtype: object

>  <pistack:TYR:90>  (11) 
pistack:TYR:90    0
pistack:TYR:90    0
Name: 10, dtype: object

>  <halogenbond:TYR:90>  (11) 
halogenbond:TYR:90    0
halogenbond:TYR:90    0
Name: 10, dtype: object

>  <pication:TYR:90>  (11) 
pication:TYR:90    0
pication:TYR:90    0
Name: 10, dtype: object

>  <hydroph_interaction:PRO:91>  (11) 
hydroph_interaction:PRO:91    0
hydroph_interaction:PRO:91    0
Name: 10, dtype: object

>  <halogenbond:PRO:91>  (11) 
halogenbond:PRO:91    0
halogenbond:PRO:91    0
Name: 10, dtype: object

>  <hbond:PRO:91>  (11) 
hbond:PRO:91    0
hbond:PRO:91    0
Name: 10, dtype: object

>  <hydroph_interaction:ALA:92>  (11) 
hydroph_interaction:ALA:92    0
hydroph_interaction:ALA:92    0
Name: 10, dtype: object

>  <hbond:ARG:93>  (11) 
hbond:ARG:93    0
hbond:ARG:93    0
Name: 10, dtype: object

>  <pication:ARG:93>  (11) 
pication:ARG:93    0
pication:ARG:93    0
Name: 10, dtype: object

>  <saltbridge:ARG:93>  (11) 
saltbridge:ARG:93    0
saltbridge:ARG:93    0
Name: 10, dtype: object

>  <hydroph_interaction:ARG:93>  (11) 
hydroph_interaction:ARG:93    0
hydroph_interaction:ARG:93    0
Name: 10, dtype: object

>  <halogenbond:ARG:93>  (11) 
halogenbond:ARG:93    0
halogenbond:ARG:93    0
Name: 10, dtype: object

>  <hydroph_interaction:TYR:94>  (11) 
hydroph_interaction:TYR:94    0
hydroph_interaction:TYR:94    0
Name: 10, dtype: object

>  <hbond:TYR:94>  (11) 
hbond:TYR:94    0
hbond:TYR:94    0
Name: 10, dtype: object

>  <halogenbond:GLN:95>  (11) 
halogenbond:GLN:95    0
halogenbond:GLN:95    0
Name: 10, dtype: object

>  <hbond:GLN:95>  (11) 
hbond:GLN:95    0
hbond:GLN:95    0
Name: 10, dtype: object

>  <hydroph_interaction:GLN:95>  (11) 
hydroph_interaction:GLN:95    0
hydroph_interaction:GLN:95    0
Name: 10, dtype: object

>  <hbond:SER:96>  (11) 
hbond:SER:96    0
hbond:SER:96    0
Name: 10, dtype: object

>  <hydroph_interaction:LEU:98>  (11) 
hydroph_interaction:LEU:98    0
hydroph_interaction:LEU:98    0
Name: 10, dtype: object

>  <hbond:LEU:98>  (11) 
hbond:LEU:98    0
hbond:LEU:98    0
Name: 10, dtype: object

>  <hbond:MET:99>  (11) 
hbond:MET:99    0
hbond:MET:99    0
Name: 10, dtype: object

>  <hydroph_interaction:MET:99>  (11) 
hydroph_interaction:MET:99    0
hydroph_interaction:MET:99    0
Name: 10, dtype: object

>  <halogenbond:MET:99>  (11) 
halogenbond:MET:99    0
halogenbond:MET:99    0
Name: 10, dtype: object

>  <hydroph_interaction:LEU:100>  (11) 
hydroph_interaction:LEU:100    0
hydroph_interaction:LEU:100    0
Name: 10, dtype: object

>  <hbond:LEU:100>  (11) 
hbond:LEU:100    0
hbond:LEU:100    0
Name: 10, dtype: object

>  <hbond:ALA:101>  (11) 
hbond:ALA:101    0
hbond:ALA:101    0
Name: 10, dtype: object

>  <hydroph_interaction:ALA:101>  (11) 
hydroph_interaction:ALA:101    0
hydroph_interaction:ALA:101    0
Name: 10, dtype: object

>  <hydroph_interaction:VAL:102>  (11) 
hydroph_interaction:VAL:102    0
hydroph_interaction:VAL:102    0
Name: 10, dtype: object

>  <hbond:VAL:102>  (11) 
hbond:VAL:102    0
hbond:VAL:102    0
Name: 10, dtype: object

>  <hbond:GLY:103>  (11) 
hbond:GLY:103    0
hbond:GLY:103    0
Name: 10, dtype: object

>  <halogenbond:GLY:103>  (11) 
halogenbond:GLY:103    0
halogenbond:GLY:103    0
Name: 10, dtype: object

>  <hydroph_interaction:HIS:104>  (11) 
hydroph_interaction:HIS:104    0
hydroph_interaction:HIS:104    0
Name: 10, dtype: object

>  <hbond:HIS:104>  (11) 
hbond:HIS:104    0
hbond:HIS:104    0
Name: 10, dtype: object

>  <saltbridge:HIS:104>  (11) 
saltbridge:HIS:104    0
saltbridge:HIS:104    0
Name: 10, dtype: object

>  <pication:HIS:104>  (11) 
pication:HIS:104    0
pication:HIS:104    0
Name: 10, dtype: object

>  <pistack:HIS:104>  (11) 
pistack:HIS:104    0
pistack:HIS:104    0
Name: 10, dtype: object

>  <halogenbond:HIS:104>  (11) 
halogenbond:HIS:104    0
halogenbond:HIS:104    0
Name: 10, dtype: object

>  <hbond:SER:105>  (11) 
hbond:SER:105    0
hbond:SER:105    0
Name: 10, dtype: object

>  <halogenbond:SER:105>  (11) 
halogenbond:SER:105    0
halogenbond:SER:105    0
Name: 10, dtype: object

>  <hbond:GLU:106>  (11) 
hbond:GLU:106    0
hbond:GLU:106    0
Name: 10, dtype: object

>  <hydroph_interaction:GLU:106>  (11) 
hydroph_interaction:GLU:106    0
hydroph_interaction:GLU:106    0
Name: 10, dtype: object

>  <saltbridge:GLU:106>  (11) 
saltbridge:GLU:106    0
saltbridge:GLU:106    0
Name: 10, dtype: object

>  <halogenbond:GLU:106>  (11) 
halogenbond:GLU:106    0
halogenbond:GLU:106    0
Name: 10, dtype: object

>  <hydroph_interaction:PRO:107>  (11) 
hydroph_interaction:PRO:107    1
hydroph_interaction:PRO:107    1
Name: 10, dtype: object

>  <hbond:PRO:107>  (11) 
hbond:PRO:107    0
hbond:PRO:107    0
Name: 10, dtype: object

>  <halogenbond:PRO:107>  (11) 
halogenbond:PRO:107    0
halogenbond:PRO:107    0
Name: 10, dtype: object

>  <hbond:GLY:108>  (11) 
hbond:GLY:108    0
hbond:GLY:108    0
Name: 10, dtype: object

>  <halogenbond:GLY:108>  (11) 
halogenbond:GLY:108    0
halogenbond:GLY:108    0
Name: 10, dtype: object

>  <hbond:ASP:109>  (11) 
hbond:ASP:109    0
hbond:ASP:109    0
Name: 10, dtype: object

>  <hydroph_interaction:ASP:109>  (11) 
hydroph_interaction:ASP:109    0
hydroph_interaction:ASP:109    0
Name: 10, dtype: object

>  <saltbridge:ASP:109>  (11) 
saltbridge:ASP:109    0
saltbridge:ASP:109    0
Name: 10, dtype: object

>  <hbond:CYS:110>  (11) 
hbond:CYS:110    0
hbond:CYS:110    0
Name: 10, dtype: object

>  <halogenbond:CYS:110>  (11) 
halogenbond:CYS:110    0
halogenbond:CYS:110    0
Name: 10, dtype: object

>  <hbond:GLY:111>  (11) 
hbond:GLY:111    0
hbond:GLY:111    0
Name: 10, dtype: object

>  <hbond:GLY:112>  (11) 
hbond:GLY:112    0
hbond:GLY:112    0
Name: 10, dtype: object

>  <hbond:ILE:113>  (11) 
hbond:ILE:113    0
hbond:ILE:113    0
Name: 10, dtype: object

>  <hydroph_interaction:LEU:114>  (11) 
hydroph_interaction:LEU:114    0
hydroph_interaction:LEU:114    0
Name: 10, dtype: object

>  <hbond:LEU:114>  (11) 
hbond:LEU:114    0
hbond:LEU:114    0
Name: 10, dtype: object

>  <hydroph_interaction:ILE:123>  (11) 
hydroph_interaction:ILE:123    0
hydroph_interaction:ILE:123    0
Name: 10, dtype: object

>  <hbond:ILE:123>  (11) 
hbond:ILE:123    0
hbond:ILE:123    0
Name: 10, dtype: object

>  <hydroph_interaction:VAL:124>  (11) 
hydroph_interaction:VAL:124    0
hydroph_interaction:VAL:124    0
Name: 10, dtype: object

>  <hbond:VAL:124>  (11) 
hbond:VAL:124    0
hbond:VAL:124    0
Name: 10, dtype: object

>  <halogenbond:VAL:124>  (11) 
halogenbond:VAL:124    0
halogenbond:VAL:124    0
Name: 10, dtype: object

>  <hbond:SER:125>  (11) 
hbond:SER:125    0
hbond:SER:125    0
Name: 10, dtype: object

>  <halogenbond:SER:125>  (11) 
halogenbond:SER:125    0
halogenbond:SER:125    0
Name: 10, dtype: object

>  <hydroph_interaction:THR:126>  (11) 
hydroph_interaction:THR:126    0
hydroph_interaction:THR:126    0
Name: 10, dtype: object

>  <hbond:THR:126>  (11) 
hbond:THR:126    0
hbond:THR:126    0
Name: 10, dtype: object

>  <halogenbond:THR:126>  (11) 
halogenbond:THR:126    0
halogenbond:THR:126    0
Name: 10, dtype: object

>  <hbond:GLY:127>  (11) 
hbond:GLY:127    0
hbond:GLY:127    0
Name: 10, dtype: object

>  <halogenbond:GLY:127>  (11) 
halogenbond:GLY:127    0
halogenbond:GLY:127    0
Name: 10, dtype: object

>  <hydroph_interaction:GLY:127>  (11) 
hydroph_interaction:GLY:127    0
hydroph_interaction:GLY:127    0
Name: 10, dtype: object

>  <hbond:GLY:128>  (11) 
hbond:GLY:128    0
hbond:GLY:128    0
Name: 10, dtype: object

>  <halogenbond:GLY:128>  (11) 
halogenbond:GLY:128    0
halogenbond:GLY:128    0
Name: 10, dtype: object

>  <hydroph_interaction:GLY:128>  (11) 
hydroph_interaction:GLY:128    0
hydroph_interaction:GLY:128    0
Name: 10, dtype: object

>  <hbond:ASN:129>  (11) 
hbond:ASN:129    0
hbond:ASN:129    0
Name: 10, dtype: object

>  <hydroph_interaction:ASN:129>  (11) 
hydroph_interaction:ASN:129    0
hydroph_interaction:ASN:129    0
Name: 10, dtype: object

>  <halogenbond:ASN:129>  (11) 
halogenbond:ASN:129    0
halogenbond:ASN:129    0
Name: 10, dtype: object

>  <hbond:GLY:130>  (11) 
hbond:GLY:130    0
hbond:GLY:130    0
Name: 10, dtype: object

>  <hydroph_interaction:LEU:131>  (11) 
hydroph_interaction:LEU:131    0
hydroph_interaction:LEU:131    0
Name: 10, dtype: object

>  <hbond:LEU:131>  (11) 
hbond:LEU:131    0
hbond:LEU:131    0
Name: 10, dtype: object

>  <halogenbond:LEU:131>  (11) 
halogenbond:LEU:131    0
halogenbond:LEU:131    0
Name: 10, dtype: object

>  <hydroph_interaction:VAL:132>  (11) 
hydroph_interaction:VAL:132    0
hydroph_interaction:VAL:132    0
Name: 10, dtype: object

>  <hbond:VAL:132>  (11) 
hbond:VAL:132    0
hbond:VAL:132    0
Name: 10, dtype: object

>  <hbond:GLY:133>  (11) 
hbond:GLY:133    0
hbond:GLY:133    0
Name: 10, dtype: object

>  <halogenbond:GLY:133>  (11) 
halogenbond:GLY:133    0
halogenbond:GLY:133    0
Name: 10, dtype: object

>  <hydroph_interaction:PHE:134>  (11) 
hydroph_interaction:PHE:134    0
hydroph_interaction:PHE:134    0
Name: 10, dtype: object

>  <hbond:PHE:134>  (11) 
hbond:PHE:134    0
hbond:PHE:134    0
Name: 10, dtype: object

>  <pistack:PHE:134>  (11) 
pistack:PHE:134    0
pistack:PHE:134    0
Name: 10, dtype: object

>  <pication:PHE:134>  (11) 
pication:PHE:134    0
pication:PHE:134    0
Name: 10, dtype: object

>  <hydroph_interaction:ALA:135>  (11) 
hydroph_interaction:ALA:135    0
hydroph_interaction:ALA:135    0
Name: 10, dtype: object

>  <hbond:ALA:135>  (11) 
hbond:ALA:135    0
hbond:ALA:135    0
Name: 10, dtype: object

$$$$
PV_006297527551
     RDKit          3D

 44 46  0  0  0  0  0  0  0  0999 V2000
   12.5260   17.8410   20.7840 O   0  0  0  0  0  0  0  0  0  0  0  0
   12.9730   16.8980   20.1780 C   0  0  0  0  0  0  0  0  0  0  0  0
   13.7330   16.9580   18.8460 C   0  0  0  0  0  0  0  0  0  0  0  0
   14.7410   17.8710   18.5570 N   0  0  0  0  0  0  0  0  0  0  0  0
   14.4120   19.1660   18.0040 C   0  0  0  0  0  0  0  0  0  0  0  0
   15.7910   19.7560   17.8850 C   0  0  0  0  0  0  0  0  0  0  0  0
   16.3670   18.6720   17.0350 C   0  0  0  0  0  0  0  0  0  0  0  0
   15.6050   17.4360   17.4730 C   0  0  0  0  0  0  0  0  0  0  0  0
   12.7040   15.6630   20.7540 N   0  0  0  0  0  0  0  0  0  0  0  0
   12.8980   15.3750   22.1860 C   0  0  0  0  0  0  0  0  0  0  0  0
   12.2190   14.0600   22.5640 C   0  0  0  0  0  0  0  0  0  0  0  0
   10.7690   14.1690   22.3960 N   0  0  0  0  0  0  0  0  0  0  0  0
    9.9450   13.8430   23.4860 C   0  0  0  0  0  0  0  0  0  0  0  0
    9.6070   14.6570   24.3360 O   0  0  0  0  0  0  0  0  0  0  0  0
    9.4870   12.3970   23.6810 C   0  0  0  0  0  0  0  0  0  0  0  0
   10.1900   11.3730   23.0720 C   0  0  0  0  0  0  0  0  0  0  0  0
    9.6940    9.9720   23.3470 C   0  0  0  0  0  0  0  0  0  0  0  0
    8.6320    9.7890   24.1400 N   0  0  0  0  0  0  0  0  0  0  0  0
    7.9780   10.8620   24.6950 N   0  0  0  0  0  0  0  0  0  0  0  0
    8.3810   12.1240   24.4740 C   0  0  0  0  0  0  0  0  0  0  0  0
    7.3920   13.3590   25.2650 S   0  0  0  0  0  0  0  0  0  0  0  0
   10.3480   14.7750   21.1110 C   0  0  0  0  0  0  0  0  0  0  0  0
   11.5360   15.0040   20.1660 C   0  0  0  0  0  0  0  0  0  0  0  0
   12.9850   17.0530   18.0510 H   0  0  0  0  0  0  0  0  0  0  0  0
   14.1870   15.9710   18.7300 H   0  0  0  0  0  0  0  0  0  0  0  0
   13.8920   19.7900   18.6820 H   0  0  0  0  0  0  0  0  0  0  0  0
   13.7910   19.0440   17.1250 H   0  0  0  0  0  0  0  0  0  0  0  0
   16.3100   20.0530   18.7890 H   0  0  0  0  0  0  0  0  0  0  0  0
   15.7240   20.6620   17.2720 H   0  0  0  0  0  0  0  0  0  0  0  0
   16.1900   18.8930   15.9800 H   0  0  0  0  0  0  0  0  0  0  0  0
   17.4440   18.5550   17.2040 H   0  0  0  0  0  0  0  0  0  0  0  0
   15.0360   17.0660   16.6280 H   0  0  0  0  0  0  0  0  0  0  0  0
   16.2990   16.6730   17.7790 H   0  0  0  0  0  0  0  0  0  0  0  0
   13.9770   15.3150   22.3570 H   0  0  0  0  0  0  0  0  0  0  0  0
   12.5000   16.1790   22.8110 H   0  0  0  0  0  0  0  0  0  0  0  0
   12.4210   13.8090   23.6120 H   0  0  0  0  0  0  0  0  0  0  0  0
   12.6150   13.2540   21.9430 H   0  0  0  0  0  0  0  0  0  0  0  0
   11.0450   11.5650   22.4440 H   0  0  0  0  0  0  0  0  0  0  0  0
   10.1580    9.0840   22.9360 H   0  0  0  0  0  0  0  0  0  0  0  0
    6.2980   13.1610   24.5010 H   0  0  0  0  0  0  0  0  0  0  0  0
    9.6580   14.0660   20.6460 H   0  0  0  0  0  0  0  0  0  0  0  0
    9.8260   15.7090   21.2170 H   0  0  0  0  0  0  0  0  0  0  0  0
   11.9070   14.0540   19.7800 H   0  0  0  0  0  0  0  0  0  0  0  0
   11.1820   15.5830   19.3070 H   0  0  0  0  0  0  0  0  0  0  0  0
  1  2  2  0
  2  3  1  0
  3  4  1  0
  4  5  1  0
  5  6  1  0
  6  7  1  0
  7  8  1  0
  2  9  1  0
  9 10  1  0
 10 11  1  0
 11 12  1  0
 12 13  1  0
 13 14  2  0
 13 15  1  0
 15 16  2  0
 16 17  1  0
 17 18  2  0
 18 19  1  0
 19 20  2  0
 20 21  1  0
 12 22  1  0
 22 23  1  0
  8  4  1  0
 23  9  1  0
 20 15  1  0
  3 24  1  0
  3 25  1  0
  5 26  1  0
  5 27  1  0
  6 28  1  0
  6 29  1  0
  7 30  1  0
  7 31  1  0
  8 32  1  0
  8 33  1  0
 10 34  1  0
 10 35  1  0
 11 36  1  0
 11 37  1  0
 16 38  1  0
 17 39  1  0
 21 40  1  0
 22 41  1  0
 22 42  1  0
 23 43  1  0
 23 44  1  0
A    1
 O1 
A    2
 C1 
A    3
 C2 
A    4
 N1 
A    5
 C3 
A    6
 C4 
A    7
 C5 
A    8
 C6 
A    9
 N2 
A   10
 C7 
A   11
 C8 
A   12
 N3 
A   13
 C9 
A   14
 O2 
A   15
 C10
A   16
 C11
A   17
 C12
A   18
 N4 
A   19
 N5 
A   20
 C13
A   21
 S1 
A   22
 C14
A   23
 C15
A   24
 H1 
A   25
 H2 
A   26
 H3 
A   27
 H4 
A   28
 H5 
A   29
 H6 
A   30
 H7 
A   31
 H8 
A   32
 H9 
A   33
 H10
A   34
 H11
A   35
 H12
A   36
 H13
A   37
 H14
A   38
 H15
A   39
 H16
A   40
 H17
A   41
 H18
A   42
 H19
A   43
 H20
A   44
 H21
M  END
>  <ref_pdb>  (12) 
x0310_0A

>  <ref_mols>  (12) 
x0528_0A,x0375_1A

>  <original SMILES>  (12) 
O=C(CN1CCCC1)N1CCN(C(=O)c2ccnnc2S)CC1

>  <rationale>  (12) 
info hbond:S105; hydroph_interaction:R20; saltbridge:D39; 

>  <intxn_cluster>  (12) 
102

>  <intxn_cluster_rank>  (12) 
2

>  <N_interactions>  (12) 
3

>  <∆∆G>  (12) 
-6.924535

>  <$/mg>  (12) 
244.5

>  <comRMSD>  (12) 
0.945618

>  <N_rotatable_bonds>  (12) 
4

>  <N_analogues_07>  (12) 
0

>  <deep_P1_sidechain>  (12) 
True

>  <farthest_distance_to_substrate>  (12) 
4.500185

>  <hbond:SER:7>  (12) 
hbond:SER:7    0
hbond:SER:7    0
Name: 11, dtype: object

>  <halogenbond:SER:7>  (12) 
halogenbond:SER:7    0
halogenbond:SER:7    0
Name: 11, dtype: object

>  <hbond:GLY:8>  (12) 
hbond:GLY:8    0
hbond:GLY:8    0
Name: 11, dtype: object

>  <hydroph_interaction:ASN:19>  (12) 
hydroph_interaction:ASN:19    0
hydroph_interaction:ASN:19    0
Name: 11, dtype: object

>  <hbond:ASN:19>  (12) 
hbond:ASN:19    0
hbond:ASN:19    0
Name: 11, dtype: object

>  <halogenbond:ASN:19>  (12) 
halogenbond:ASN:19    0
halogenbond:ASN:19    0
Name: 11, dtype: object

>  <hbond:ARG:20>  (12) 
hbond:ARG:20    0
hbond:ARG:20    0
Name: 11, dtype: object

>  <hydroph_interaction:ARG:20>  (12) 
hydroph_interaction:ARG:20    1
hydroph_interaction:ARG:20    1
Name: 11, dtype: object

>  <saltbridge:ARG:20>  (12) 
saltbridge:ARG:20    0
saltbridge:ARG:20    0
Name: 11, dtype: object

>  <halogenbond:ARG:20>  (12) 
halogenbond:ARG:20    0
halogenbond:ARG:20    0
Name: 11, dtype: object

>  <pication:ARG:20>  (12) 
pication:ARG:20    0
pication:ARG:20    0
Name: 11, dtype: object

>  <hbond:HIS:21>  (12) 
hbond:HIS:21    0
hbond:HIS:21    0
Name: 11, dtype: object

>  <hydroph_interaction:HIS:21>  (12) 
hydroph_interaction:HIS:21    0
hydroph_interaction:HIS:21    0
Name: 11, dtype: object

>  <saltbridge:HIS:21>  (12) 
saltbridge:HIS:21    0
saltbridge:HIS:21    0
Name: 11, dtype: object

>  <pistack:HIS:21>  (12) 
pistack:HIS:21    0
pistack:HIS:21    0
Name: 11, dtype: object

>  <pication:HIS:21>  (12) 
pication:HIS:21    0
pication:HIS:21    0
Name: 11, dtype: object

>  <halogenbond:HIS:21>  (12) 
halogenbond:HIS:21    0
halogenbond:HIS:21    0
Name: 11, dtype: object

>  <hydroph_interaction:LEU:22>  (12) 
hydroph_interaction:LEU:22    0
hydroph_interaction:LEU:22    0
Name: 11, dtype: object

>  <hbond:LEU:22>  (12) 
hbond:LEU:22    0
hbond:LEU:22    0
Name: 11, dtype: object

>  <hydroph_interaction:TRP:28>  (12) 
hydroph_interaction:TRP:28    0
hydroph_interaction:TRP:28    0
Name: 11, dtype: object

>  <hbond:SER:36>  (12) 
hbond:SER:36    0
hbond:SER:36    0
Name: 11, dtype: object

>  <halogenbond:SER:36>  (12) 
halogenbond:SER:36    0
halogenbond:SER:36    0
Name: 11, dtype: object

>  <hbond:ARG:38>  (12) 
hbond:ARG:38    0
hbond:ARG:38    0
Name: 11, dtype: object

>  <halogenbond:ARG:38>  (12) 
halogenbond:ARG:38    0
halogenbond:ARG:38    0
Name: 11, dtype: object

>  <hbond:ASP:39>  (12) 
hbond:ASP:39    0
hbond:ASP:39    0
Name: 11, dtype: object

>  <saltbridge:ASP:39>  (12) 
saltbridge:ASP:39    1
saltbridge:ASP:39    1
Name: 11, dtype: object

>  <hydroph_interaction:ASP:39>  (12) 
hydroph_interaction:ASP:39    0
hydroph_interaction:ASP:39    0
Name: 11, dtype: object

>  <halogenbond:ASP:39>  (12) 
halogenbond:ASP:39    0
halogenbond:ASP:39    0
Name: 11, dtype: object

>  <hydroph_interaction:LEU:40>  (12) 
hydroph_interaction:LEU:40    0
hydroph_interaction:LEU:40    0
Name: 11, dtype: object

>  <hydroph_interaction:TYR:63>  (12) 
hydroph_interaction:TYR:63    0
hydroph_interaction:TYR:63    0
Name: 11, dtype: object

>  <pistack:TYR:63>  (12) 
pistack:TYR:63    0
pistack:TYR:63    0
Name: 11, dtype: object

>  <hbond:TYR:63>  (12) 
hbond:TYR:63    0
hbond:TYR:63    0
Name: 11, dtype: object

>  <hbond:TYR:64>  (12) 
hbond:TYR:64    0
hbond:TYR:64    0
Name: 11, dtype: object

>  <halogenbond:TYR:64>  (12) 
halogenbond:TYR:64    0
halogenbond:TYR:64    0
Name: 11, dtype: object

>  <hydroph_interaction:TYR:64>  (12) 
hydroph_interaction:TYR:64    0
hydroph_interaction:TYR:64    0
Name: 11, dtype: object

>  <hbond:CYS:65>  (12) 
hbond:CYS:65    0
hbond:CYS:65    0
Name: 11, dtype: object

>  <halogenbond:CYS:65>  (12) 
halogenbond:CYS:65    0
halogenbond:CYS:65    0
Name: 11, dtype: object

>  <hbond:SER:66>  (12) 
hbond:SER:66    0
hbond:SER:66    0
Name: 11, dtype: object

>  <hbond:SER:67>  (12) 
hbond:SER:67    0
hbond:SER:67    0
Name: 11, dtype: object

>  <halogenbond:SER:67>  (12) 
halogenbond:SER:67    0
halogenbond:SER:67    0
Name: 11, dtype: object

>  <hydroph_interaction:ARG:68>  (12) 
hydroph_interaction:ARG:68    0
hydroph_interaction:ARG:68    0
Name: 11, dtype: object

>  <hbond:ARG:68>  (12) 
hbond:ARG:68    0
hbond:ARG:68    0
Name: 11, dtype: object

>  <saltbridge:ARG:68>  (12) 
saltbridge:ARG:68    0
saltbridge:ARG:68    0
Name: 11, dtype: object

>  <pication:ARG:68>  (12) 
pication:ARG:68    0
pication:ARG:68    0
Name: 11, dtype: object

>  <hydroph_interaction:TYR:72>  (12) 
hydroph_interaction:TYR:72    0
hydroph_interaction:TYR:72    0
Name: 11, dtype: object

>  <hydroph_interaction:VAL:74>  (12) 
hydroph_interaction:VAL:74    0
hydroph_interaction:VAL:74    0
Name: 11, dtype: object

>  <hydroph_interaction:PHE:76>  (12) 
hydroph_interaction:PHE:76    0
hydroph_interaction:PHE:76    0
Name: 11, dtype: object

>  <hbond:SER:77>  (12) 
hbond:SER:77    0
hbond:SER:77    0
Name: 11, dtype: object

>  <hbond:SER:80>  (12) 
hbond:SER:80    0
hbond:SER:80    0
Name: 11, dtype: object

>  <hbond:LEU:81>  (12) 
hbond:LEU:81    0
hbond:LEU:81    0
Name: 11, dtype: object

>  <halogenbond:LEU:81>  (12) 
halogenbond:LEU:81    0
halogenbond:LEU:81    0
Name: 11, dtype: object

>  <hydroph_interaction:LEU:81>  (12) 
hydroph_interaction:LEU:81    0
hydroph_interaction:LEU:81    0
Name: 11, dtype: object

>  <hydroph_interaction:ILE:82>  (12) 
hydroph_interaction:ILE:82    0
hydroph_interaction:ILE:82    0
Name: 11, dtype: object

>  <hbond:ILE:82>  (12) 
hbond:ILE:82    0
hbond:ILE:82    0
Name: 11, dtype: object

>  <hydroph_interaction:PHE:83>  (12) 
hydroph_interaction:PHE:83    0
hydroph_interaction:PHE:83    0
Name: 11, dtype: object

>  <hbond:PHE:83>  (12) 
hbond:PHE:83    0
hbond:PHE:83    0
Name: 11, dtype: object

>  <halogenbond:PHE:83>  (12) 
halogenbond:PHE:83    0
halogenbond:PHE:83    0
Name: 11, dtype: object

>  <pistack:PHE:83>  (12) 
pistack:PHE:83    0
pistack:PHE:83    0
Name: 11, dtype: object

>  <hydroph_interaction:VAL:84>  (12) 
hydroph_interaction:VAL:84    0
hydroph_interaction:VAL:84    0
Name: 11, dtype: object

>  <hbond:VAL:84>  (12) 
hbond:VAL:84    0
hbond:VAL:84    0
Name: 11, dtype: object

>  <halogenbond:VAL:84>  (12) 
halogenbond:VAL:84    0
halogenbond:VAL:84    0
Name: 11, dtype: object

>  <hydroph_interaction:GLU:85>  (12) 
hydroph_interaction:GLU:85    0
hydroph_interaction:GLU:85    0
Name: 11, dtype: object

>  <hbond:GLU:85>  (12) 
hbond:GLU:85    0
hbond:GLU:85    0
Name: 11, dtype: object

>  <saltbridge:GLU:85>  (12) 
saltbridge:GLU:85    0
saltbridge:GLU:85    0
Name: 11, dtype: object

>  <halogenbond:GLU:85>  (12) 
halogenbond:GLU:85    0
halogenbond:GLU:85    0
Name: 11, dtype: object

>  <hbond:ALA:86>  (12) 
hbond:ALA:86    0
hbond:ALA:86    0
Name: 11, dtype: object

>  <halogenbond:ALA:86>  (12) 
halogenbond:ALA:86    0
halogenbond:ALA:86    0
Name: 11, dtype: object

>  <hydroph_interaction:ALA:86>  (12) 
hydroph_interaction:ALA:86    0
hydroph_interaction:ALA:86    0
Name: 11, dtype: object

>  <hbond:SER:87>  (12) 
hbond:SER:87    0
hbond:SER:87    0
Name: 11, dtype: object

>  <halogenbond:SER:87>  (12) 
halogenbond:SER:87    0
halogenbond:SER:87    0
Name: 11, dtype: object

>  <hbond:GLU:88>  (12) 
hbond:GLU:88    0
hbond:GLU:88    0
Name: 11, dtype: object

>  <hydroph_interaction:GLU:88>  (12) 
hydroph_interaction:GLU:88    0
hydroph_interaction:GLU:88    0
Name: 11, dtype: object

>  <halogenbond:GLU:88>  (12) 
halogenbond:GLU:88    0
halogenbond:GLU:88    0
Name: 11, dtype: object

>  <saltbridge:GLU:88>  (12) 
saltbridge:GLU:88    0
saltbridge:GLU:88    0
Name: 11, dtype: object

>  <hydroph_interaction:TYR:89>  (12) 
hydroph_interaction:TYR:89    0
hydroph_interaction:TYR:89    0
Name: 11, dtype: object

>  <pistack:TYR:89>  (12) 
pistack:TYR:89    0
pistack:TYR:89    0
Name: 11, dtype: object

>  <hbond:TYR:89>  (12) 
hbond:TYR:89    0
hbond:TYR:89    0
Name: 11, dtype: object

>  <halogenbond:TYR:89>  (12) 
halogenbond:TYR:89    0
halogenbond:TYR:89    0
Name: 11, dtype: object

>  <hbond:TYR:90>  (12) 
hbond:TYR:90    0
hbond:TYR:90    0
Name: 11, dtype: object

>  <hydroph_interaction:TYR:90>  (12) 
hydroph_interaction:TYR:90    0
hydroph_interaction:TYR:90    0
Name: 11, dtype: object

>  <pistack:TYR:90>  (12) 
pistack:TYR:90    0
pistack:TYR:90    0
Name: 11, dtype: object

>  <halogenbond:TYR:90>  (12) 
halogenbond:TYR:90    0
halogenbond:TYR:90    0
Name: 11, dtype: object

>  <pication:TYR:90>  (12) 
pication:TYR:90    0
pication:TYR:90    0
Name: 11, dtype: object

>  <hydroph_interaction:PRO:91>  (12) 
hydroph_interaction:PRO:91    0
hydroph_interaction:PRO:91    0
Name: 11, dtype: object

>  <halogenbond:PRO:91>  (12) 
halogenbond:PRO:91    0
halogenbond:PRO:91    0
Name: 11, dtype: object

>  <hbond:PRO:91>  (12) 
hbond:PRO:91    0
hbond:PRO:91    0
Name: 11, dtype: object

>  <hydroph_interaction:ALA:92>  (12) 
hydroph_interaction:ALA:92    0
hydroph_interaction:ALA:92    0
Name: 11, dtype: object

>  <hbond:ARG:93>  (12) 
hbond:ARG:93    0
hbond:ARG:93    0
Name: 11, dtype: object

>  <pication:ARG:93>  (12) 
pication:ARG:93    0
pication:ARG:93    0
Name: 11, dtype: object

>  <saltbridge:ARG:93>  (12) 
saltbridge:ARG:93    0
saltbridge:ARG:93    0
Name: 11, dtype: object

>  <hydroph_interaction:ARG:93>  (12) 
hydroph_interaction:ARG:93    0
hydroph_interaction:ARG:93    0
Name: 11, dtype: object

>  <halogenbond:ARG:93>  (12) 
halogenbond:ARG:93    0
halogenbond:ARG:93    0
Name: 11, dtype: object

>  <hydroph_interaction:TYR:94>  (12) 
hydroph_interaction:TYR:94    0
hydroph_interaction:TYR:94    0
Name: 11, dtype: object

>  <hbond:TYR:94>  (12) 
hbond:TYR:94    0
hbond:TYR:94    0
Name: 11, dtype: object

>  <halogenbond:GLN:95>  (12) 
halogenbond:GLN:95    0
halogenbond:GLN:95    0
Name: 11, dtype: object

>  <hbond:GLN:95>  (12) 
hbond:GLN:95    0
hbond:GLN:95    0
Name: 11, dtype: object

>  <hydroph_interaction:GLN:95>  (12) 
hydroph_interaction:GLN:95    0
hydroph_interaction:GLN:95    0
Name: 11, dtype: object

>  <hbond:SER:96>  (12) 
hbond:SER:96    0
hbond:SER:96    0
Name: 11, dtype: object

>  <hydroph_interaction:LEU:98>  (12) 
hydroph_interaction:LEU:98    0
hydroph_interaction:LEU:98    0
Name: 11, dtype: object

>  <hbond:LEU:98>  (12) 
hbond:LEU:98    0
hbond:LEU:98    0
Name: 11, dtype: object

>  <hbond:MET:99>  (12) 
hbond:MET:99    0
hbond:MET:99    0
Name: 11, dtype: object

>  <hydroph_interaction:MET:99>  (12) 
hydroph_interaction:MET:99    0
hydroph_interaction:MET:99    0
Name: 11, dtype: object

>  <halogenbond:MET:99>  (12) 
halogenbond:MET:99    0
halogenbond:MET:99    0
Name: 11, dtype: object

>  <hydroph_interaction:LEU:100>  (12) 
hydroph_interaction:LEU:100    0
hydroph_interaction:LEU:100    0
Name: 11, dtype: object

>  <hbond:LEU:100>  (12) 
hbond:LEU:100    0
hbond:LEU:100    0
Name: 11, dtype: object

>  <hbond:ALA:101>  (12) 
hbond:ALA:101    0
hbond:ALA:101    0
Name: 11, dtype: object

>  <hydroph_interaction:ALA:101>  (12) 
hydroph_interaction:ALA:101    0
hydroph_interaction:ALA:101    0
Name: 11, dtype: object

>  <hydroph_interaction:VAL:102>  (12) 
hydroph_interaction:VAL:102    0
hydroph_interaction:VAL:102    0
Name: 11, dtype: object

>  <hbond:VAL:102>  (12) 
hbond:VAL:102    0
hbond:VAL:102    0
Name: 11, dtype: object

>  <hbond:GLY:103>  (12) 
hbond:GLY:103    0
hbond:GLY:103    0
Name: 11, dtype: object

>  <halogenbond:GLY:103>  (12) 
halogenbond:GLY:103    0
halogenbond:GLY:103    0
Name: 11, dtype: object

>  <hydroph_interaction:HIS:104>  (12) 
hydroph_interaction:HIS:104    0
hydroph_interaction:HIS:104    0
Name: 11, dtype: object

>  <hbond:HIS:104>  (12) 
hbond:HIS:104    0
hbond:HIS:104    0
Name: 11, dtype: object

>  <saltbridge:HIS:104>  (12) 
saltbridge:HIS:104    0
saltbridge:HIS:104    0
Name: 11, dtype: object

>  <pication:HIS:104>  (12) 
pication:HIS:104    0
pication:HIS:104    0
Name: 11, dtype: object

>  <pistack:HIS:104>  (12) 
pistack:HIS:104    0
pistack:HIS:104    0
Name: 11, dtype: object

>  <halogenbond:HIS:104>  (12) 
halogenbond:HIS:104    0
halogenbond:HIS:104    0
Name: 11, dtype: object

>  <hbond:SER:105>  (12) 
hbond:SER:105    1
hbond:SER:105    1
Name: 11, dtype: object

>  <halogenbond:SER:105>  (12) 
halogenbond:SER:105    0
halogenbond:SER:105    0
Name: 11, dtype: object

>  <hbond:GLU:106>  (12) 
hbond:GLU:106    0
hbond:GLU:106    0
Name: 11, dtype: object

>  <hydroph_interaction:GLU:106>  (12) 
hydroph_interaction:GLU:106    0
hydroph_interaction:GLU:106    0
Name: 11, dtype: object

>  <saltbridge:GLU:106>  (12) 
saltbridge:GLU:106    0
saltbridge:GLU:106    0
Name: 11, dtype: object

>  <halogenbond:GLU:106>  (12) 
halogenbond:GLU:106    0
halogenbond:GLU:106    0
Name: 11, dtype: object

>  <hydroph_interaction:PRO:107>  (12) 
hydroph_interaction:PRO:107    0
hydroph_interaction:PRO:107    0
Name: 11, dtype: object

>  <hbond:PRO:107>  (12) 
hbond:PRO:107    0
hbond:PRO:107    0
Name: 11, dtype: object

>  <halogenbond:PRO:107>  (12) 
halogenbond:PRO:107    0
halogenbond:PRO:107    0
Name: 11, dtype: object

>  <hbond:GLY:108>  (12) 
hbond:GLY:108    0
hbond:GLY:108    0
Name: 11, dtype: object

>  <halogenbond:GLY:108>  (12) 
halogenbond:GLY:108    0
halogenbond:GLY:108    0
Name: 11, dtype: object

>  <hbond:ASP:109>  (12) 
hbond:ASP:109    0
hbond:ASP:109    0
Name: 11, dtype: object

>  <hydroph_interaction:ASP:109>  (12) 
hydroph_interaction:ASP:109    0
hydroph_interaction:ASP:109    0
Name: 11, dtype: object

>  <saltbridge:ASP:109>  (12) 
saltbridge:ASP:109    0
saltbridge:ASP:109    0
Name: 11, dtype: object

>  <hbond:CYS:110>  (12) 
hbond:CYS:110    0
hbond:CYS:110    0
Name: 11, dtype: object

>  <halogenbond:CYS:110>  (12) 
halogenbond:CYS:110    0
halogenbond:CYS:110    0
Name: 11, dtype: object

>  <hbond:GLY:111>  (12) 
hbond:GLY:111    0
hbond:GLY:111    0
Name: 11, dtype: object

>  <hbond:GLY:112>  (12) 
hbond:GLY:112    0
hbond:GLY:112    0
Name: 11, dtype: object

>  <hbond:ILE:113>  (12) 
hbond:ILE:113    0
hbond:ILE:113    0
Name: 11, dtype: object

>  <hydroph_interaction:LEU:114>  (12) 
hydroph_interaction:LEU:114    0
hydroph_interaction:LEU:114    0
Name: 11, dtype: object

>  <hbond:LEU:114>  (12) 
hbond:LEU:114    0
hbond:LEU:114    0
Name: 11, dtype: object

>  <hydroph_interaction:ILE:123>  (12) 
hydroph_interaction:ILE:123    0
hydroph_interaction:ILE:123    0
Name: 11, dtype: object

>  <hbond:ILE:123>  (12) 
hbond:ILE:123    0
hbond:ILE:123    0
Name: 11, dtype: object

>  <hydroph_interaction:VAL:124>  (12) 
hydroph_interaction:VAL:124    0
hydroph_interaction:VAL:124    0
Name: 11, dtype: object

>  <hbond:VAL:124>  (12) 
hbond:VAL:124    0
hbond:VAL:124    0
Name: 11, dtype: object

>  <halogenbond:VAL:124>  (12) 
halogenbond:VAL:124    0
halogenbond:VAL:124    0
Name: 11, dtype: object

>  <hbond:SER:125>  (12) 
hbond:SER:125    0
hbond:SER:125    0
Name: 11, dtype: object

>  <halogenbond:SER:125>  (12) 
halogenbond:SER:125    0
halogenbond:SER:125    0
Name: 11, dtype: object

>  <hydroph_interaction:THR:126>  (12) 
hydroph_interaction:THR:126    0
hydroph_interaction:THR:126    0
Name: 11, dtype: object

>  <hbond:THR:126>  (12) 
hbond:THR:126    0
hbond:THR:126    0
Name: 11, dtype: object

>  <halogenbond:THR:126>  (12) 
halogenbond:THR:126    0
halogenbond:THR:126    0
Name: 11, dtype: object

>  <hbond:GLY:127>  (12) 
hbond:GLY:127    0
hbond:GLY:127    0
Name: 11, dtype: object

>  <halogenbond:GLY:127>  (12) 
halogenbond:GLY:127    0
halogenbond:GLY:127    0
Name: 11, dtype: object

>  <hydroph_interaction:GLY:127>  (12) 
hydroph_interaction:GLY:127    0
hydroph_interaction:GLY:127    0
Name: 11, dtype: object

>  <hbond:GLY:128>  (12) 
hbond:GLY:128    0
hbond:GLY:128    0
Name: 11, dtype: object

>  <halogenbond:GLY:128>  (12) 
halogenbond:GLY:128    0
halogenbond:GLY:128    0
Name: 11, dtype: object

>  <hydroph_interaction:GLY:128>  (12) 
hydroph_interaction:GLY:128    0
hydroph_interaction:GLY:128    0
Name: 11, dtype: object

>  <hbond:ASN:129>  (12) 
hbond:ASN:129    0
hbond:ASN:129    0
Name: 11, dtype: object

>  <hydroph_interaction:ASN:129>  (12) 
hydroph_interaction:ASN:129    0
hydroph_interaction:ASN:129    0
Name: 11, dtype: object

>  <halogenbond:ASN:129>  (12) 
halogenbond:ASN:129    0
halogenbond:ASN:129    0
Name: 11, dtype: object

>  <hbond:GLY:130>  (12) 
hbond:GLY:130    0
hbond:GLY:130    0
Name: 11, dtype: object

>  <hydroph_interaction:LEU:131>  (12) 
hydroph_interaction:LEU:131    0
hydroph_interaction:LEU:131    0
Name: 11, dtype: object

>  <hbond:LEU:131>  (12) 
hbond:LEU:131    0
hbond:LEU:131    0
Name: 11, dtype: object

>  <halogenbond:LEU:131>  (12) 
halogenbond:LEU:131    0
halogenbond:LEU:131    0
Name: 11, dtype: object

>  <hydroph_interaction:VAL:132>  (12) 
hydroph_interaction:VAL:132    0
hydroph_interaction:VAL:132    0
Name: 11, dtype: object

>  <hbond:VAL:132>  (12) 
hbond:VAL:132    0
hbond:VAL:132    0
Name: 11, dtype: object

>  <hbond:GLY:133>  (12) 
hbond:GLY:133    0
hbond:GLY:133    0
Name: 11, dtype: object

>  <halogenbond:GLY:133>  (12) 
halogenbond:GLY:133    0
halogenbond:GLY:133    0
Name: 11, dtype: object

>  <hydroph_interaction:PHE:134>  (12) 
hydroph_interaction:PHE:134    0
hydroph_interaction:PHE:134    0
Name: 11, dtype: object

>  <hbond:PHE:134>  (12) 
hbond:PHE:134    0
hbond:PHE:134    0
Name: 11, dtype: object

>  <pistack:PHE:134>  (12) 
pistack:PHE:134    0
pistack:PHE:134    0
Name: 11, dtype: object

>  <pication:PHE:134>  (12) 
pication:PHE:134    0
pication:PHE:134    0
Name: 11, dtype: object

>  <hydroph_interaction:ALA:135>  (12) 
hydroph_interaction:ALA:135    0
hydroph_interaction:ALA:135    0
Name: 11, dtype: object

>  <hbond:ALA:135>  (12) 
hbond:ALA:135    0
hbond:ALA:135    0
Name: 11, dtype: object

$$$$
PV_006314244642
     RDKit          3D

 35 36  0  0  0  0  0  0  0  0999 V2000
   13.5970   16.0320   20.5180 C   0  0  0  0  0  0  0  0  0  0  0  0
   12.2040   16.4410   20.9720 C   0  0  0  0  0  0  0  0  0  0  0  0
   11.3160   15.2510   20.6550 C   0  0  0  0  0  0  0  0  0  0  0  0
   11.4040   14.9150   19.3410 F   0  0  0  0  0  0  0  0  0  0  0  0
   10.0050   15.3950   20.9390 F   0  0  0  0  0  0  0  0  0  0  0  0
   12.0040   14.2070   21.4850 C   0  0  0  0  0  0  0  0  0  0  0  0
   11.3330   13.3860   22.0270 O   0  0  0  0  0  0  0  0  0  0  0  0
   10.8470   13.6910   23.2400 C   0  0  0  0  0  0  0  0  0  0  0  0
   11.1030   14.6780   23.9180 O   0  0  0  0  0  0  0  0  0  0  0  0
    9.9280   12.6020   23.6640 C   0  0  0  0  0  0  0  0  0  0  0  0
   10.1480   11.3280   23.3100 C   0  0  0  0  0  0  0  0  0  0  0  0
   11.3350   10.8380   22.4880 C   0  0  0  0  0  0  0  0  0  0  0  0
    9.2340   10.4970   23.7700 N   0  0  0  0  0  0  0  0  0  0  0  0
    9.2950    9.0930   23.4900 C   0  0  0  0  0  0  0  0  0  0  0  0
    8.3180   11.2180   24.5200 C   0  0  0  0  0  0  0  0  0  0  0  0
    7.0970   10.7370   25.2820 C   0  0  0  0  0  0  0  0  0  0  0  0
    6.3760   11.8820   25.9630 C   0  0  0  0  0  0  0  0  0  0  0  0
    6.8670   13.3150   25.8540 C   0  0  0  0  0  0  0  0  0  0  0  0
    8.0000   13.5950   25.1230 C   0  0  0  0  0  0  0  0  0  0  0  0
    8.7340   12.5790   24.4600 C   0  0  0  0  0  0  0  0  0  0  0  0
   13.7600   15.0480   20.0750 H   0  0  0  0  0  0  0  0  0  0  0  0
   14.4420   16.6910   20.6080 H   0  0  0  0  0  0  0  0  0  0  0  0
   11.8820   17.3740   21.4230 H   0  0  0  0  0  0  0  0  0  0  0  0
   12.6890   13.6240   20.8550 H   0  0  0  0  0  0  0  0  0  0  0  0
   12.6380   14.6990   22.2320 H   0  0  0  0  0  0  0  0  0  0  0  0
   11.9930   10.2820   23.1540 H   0  0  0  0  0  0  0  0  0  0  0  0
   11.9300   11.6640   22.0960 H   0  0  0  0  0  0  0  0  0  0  0  0
   11.1530   10.1700   21.6600 H   0  0  0  0  0  0  0  0  0  0  0  0
   10.3290    8.7760   23.4770 H   0  0  0  0  0  0  0  0  0  0  0  0
    8.8260    8.8920   22.5380 H   0  0  0  0  0  0  0  0  0  0  0  0
    8.7830    8.5880   24.2780 H   0  0  0  0  0  0  0  0  0  0  0  0
    6.7650    9.7180   25.3430 H   0  0  0  0  0  0  0  0  0  0  0  0
    5.4830   11.5880   26.5280 H   0  0  0  0  0  0  0  0  0  0  0  0
    6.3230   14.1240   26.3550 H   0  0  0  0  0  0  0  0  0  0  0  0
    8.3270   14.6300   25.0670 H   0  0  0  0  0  0  0  0  0  0  0  0
  1  2  2  0
  2  3  1  0
  3  4  1  0
  3  5  1  0
  3  6  1  0
  6  7  1  0
  7  8  1  0
  8  9  2  0
  8 10  1  0
 10 11  2  0
 11 12  1  0
 11 13  1  0
 13 14  1  0
 13 15  1  0
 15 16  2  0
 16 17  1  0
 17 18  2  0
 18 19  1  0
 19 20  2  0
 20 10  1  0
 20 15  1  0
  1 21  1  0
  1 22  1  0
  2 23  1  0
  6 24  1  0
  6 25  1  0
 12 26  1  0
 12 27  1  0
 12 28  1  0
 14 29  1  0
 14 30  1  0
 14 31  1  0
 16 32  1  0
 17 33  1  0
 18 34  1  0
 19 35  1  0
A    1
 C1 
A    2
 C2 
A    3
 C3 
A    4
 F1 
A    5
 F2 
A    6
 C4 
A    7
 O1 
A    8
 C5 
A    9
 O2 
A   10
 C6 
A   11
 C7 
A   12
 C8 
A   13
 N1 
A   14
 C9 
A   15
 C10
A   16
 C11
A   17
 C12
A   18
 C13
A   19
 C14
A   20
 C15
A   21
 H1 
A   22
 H2 
A   23
 H3 
A   24
 H4 
A   25
 H5 
A   26
 H6 
A   27
 H7 
A   28
 H8 
A   29
 H9 
A   30
 H10
A   31
 H11
A   32
 H12
A   33
 H13
A   34
 H14
A   35
 H15
M  END
>  <ref_pdb>  (13) 
x0310_0A

>  <ref_mols>  (13) 
x0416_0A,x0451_0A,x0739_0A

>  <original SMILES>  (13) 
C=CC(F)(F)COC(=O)c1c(C)n(C)c2ccccc12

>  <rationale>  (13) 
info halogenbond:Q95+S125; hbond:S87; hydroph_interaction:P107+Y89+Y90+H21; saltbridge:H21; 

>  <intxn_cluster>  (13) 
202

>  <intxn_cluster_rank>  (13) 
2

>  <N_interactions>  (13) 
8

>  <∆∆G>  (13) 
-5.400262

>  <$/mg>  (13) 
nan

>  <comRMSD>  (13) 
0.750328

>  <N_rotatable_bonds>  (13) 
6

>  <N_analogues_07>  (13) 
6

>  <deep_P1_sidechain>  (13) 
False

>  <farthest_distance_to_substrate>  (13) 
2.551162

>  <hbond:SER:7>  (13) 
hbond:SER:7    0
hbond:SER:7    0
Name: 12, dtype: object

>  <halogenbond:SER:7>  (13) 
halogenbond:SER:7    0
halogenbond:SER:7    0
Name: 12, dtype: object

>  <hbond:GLY:8>  (13) 
hbond:GLY:8    0
hbond:GLY:8    0
Name: 12, dtype: object

>  <hydroph_interaction:ASN:19>  (13) 
hydroph_interaction:ASN:19    0
hydroph_interaction:ASN:19    0
Name: 12, dtype: object

>  <hbond:ASN:19>  (13) 
hbond:ASN:19    0
hbond:ASN:19    0
Name: 12, dtype: object

>  <halogenbond:ASN:19>  (13) 
halogenbond:ASN:19    0
halogenbond:ASN:19    0
Name: 12, dtype: object

>  <hbond:ARG:20>  (13) 
hbond:ARG:20    0
hbond:ARG:20    0
Name: 12, dtype: object

>  <hydroph_interaction:ARG:20>  (13) 
hydroph_interaction:ARG:20    0
hydroph_interaction:ARG:20    0
Name: 12, dtype: object

>  <saltbridge:ARG:20>  (13) 
saltbridge:ARG:20    0
saltbridge:ARG:20    0
Name: 12, dtype: object

>  <halogenbond:ARG:20>  (13) 
halogenbond:ARG:20    0
halogenbond:ARG:20    0
Name: 12, dtype: object

>  <pication:ARG:20>  (13) 
pication:ARG:20    0
pication:ARG:20    0
Name: 12, dtype: object

>  <hbond:HIS:21>  (13) 
hbond:HIS:21    0
hbond:HIS:21    0
Name: 12, dtype: object

>  <hydroph_interaction:HIS:21>  (13) 
hydroph_interaction:HIS:21    1
hydroph_interaction:HIS:21    1
Name: 12, dtype: object

>  <saltbridge:HIS:21>  (13) 
saltbridge:HIS:21    1
saltbridge:HIS:21    1
Name: 12, dtype: object

>  <pistack:HIS:21>  (13) 
pistack:HIS:21    0
pistack:HIS:21    0
Name: 12, dtype: object

>  <pication:HIS:21>  (13) 
pication:HIS:21    0
pication:HIS:21    0
Name: 12, dtype: object

>  <halogenbond:HIS:21>  (13) 
halogenbond:HIS:21    0
halogenbond:HIS:21    0
Name: 12, dtype: object

>  <hydroph_interaction:LEU:22>  (13) 
hydroph_interaction:LEU:22    0
hydroph_interaction:LEU:22    0
Name: 12, dtype: object

>  <hbond:LEU:22>  (13) 
hbond:LEU:22    0
hbond:LEU:22    0
Name: 12, dtype: object

>  <hydroph_interaction:TRP:28>  (13) 
hydroph_interaction:TRP:28    0
hydroph_interaction:TRP:28    0
Name: 12, dtype: object

>  <hbond:SER:36>  (13) 
hbond:SER:36    0
hbond:SER:36    0
Name: 12, dtype: object

>  <halogenbond:SER:36>  (13) 
halogenbond:SER:36    0
halogenbond:SER:36    0
Name: 12, dtype: object

>  <hbond:ARG:38>  (13) 
hbond:ARG:38    0
hbond:ARG:38    0
Name: 12, dtype: object

>  <halogenbond:ARG:38>  (13) 
halogenbond:ARG:38    0
halogenbond:ARG:38    0
Name: 12, dtype: object

>  <hbond:ASP:39>  (13) 
hbond:ASP:39    0
hbond:ASP:39    0
Name: 12, dtype: object

>  <saltbridge:ASP:39>  (13) 
saltbridge:ASP:39    0
saltbridge:ASP:39    0
Name: 12, dtype: object

>  <hydroph_interaction:ASP:39>  (13) 
hydroph_interaction:ASP:39    0
hydroph_interaction:ASP:39    0
Name: 12, dtype: object

>  <halogenbond:ASP:39>  (13) 
halogenbond:ASP:39    0
halogenbond:ASP:39    0
Name: 12, dtype: object

>  <hydroph_interaction:LEU:40>  (13) 
hydroph_interaction:LEU:40    0
hydroph_interaction:LEU:40    0
Name: 12, dtype: object

>  <hydroph_interaction:TYR:63>  (13) 
hydroph_interaction:TYR:63    0
hydroph_interaction:TYR:63    0
Name: 12, dtype: object

>  <pistack:TYR:63>  (13) 
pistack:TYR:63    0
pistack:TYR:63    0
Name: 12, dtype: object

>  <hbond:TYR:63>  (13) 
hbond:TYR:63    0
hbond:TYR:63    0
Name: 12, dtype: object

>  <hbond:TYR:64>  (13) 
hbond:TYR:64    0
hbond:TYR:64    0
Name: 12, dtype: object

>  <halogenbond:TYR:64>  (13) 
halogenbond:TYR:64    0
halogenbond:TYR:64    0
Name: 12, dtype: object

>  <hydroph_interaction:TYR:64>  (13) 
hydroph_interaction:TYR:64    0
hydroph_interaction:TYR:64    0
Name: 12, dtype: object

>  <hbond:CYS:65>  (13) 
hbond:CYS:65    0
hbond:CYS:65    0
Name: 12, dtype: object

>  <halogenbond:CYS:65>  (13) 
halogenbond:CYS:65    0
halogenbond:CYS:65    0
Name: 12, dtype: object

>  <hbond:SER:66>  (13) 
hbond:SER:66    0
hbond:SER:66    0
Name: 12, dtype: object

>  <hbond:SER:67>  (13) 
hbond:SER:67    0
hbond:SER:67    0
Name: 12, dtype: object

>  <halogenbond:SER:67>  (13) 
halogenbond:SER:67    0
halogenbond:SER:67    0
Name: 12, dtype: object

>  <hydroph_interaction:ARG:68>  (13) 
hydroph_interaction:ARG:68    0
hydroph_interaction:ARG:68    0
Name: 12, dtype: object

>  <hbond:ARG:68>  (13) 
hbond:ARG:68    0
hbond:ARG:68    0
Name: 12, dtype: object

>  <saltbridge:ARG:68>  (13) 
saltbridge:ARG:68    0
saltbridge:ARG:68    0
Name: 12, dtype: object

>  <pication:ARG:68>  (13) 
pication:ARG:68    0
pication:ARG:68    0
Name: 12, dtype: object

>  <hydroph_interaction:TYR:72>  (13) 
hydroph_interaction:TYR:72    0
hydroph_interaction:TYR:72    0
Name: 12, dtype: object

>  <hydroph_interaction:VAL:74>  (13) 
hydroph_interaction:VAL:74    0
hydroph_interaction:VAL:74    0
Name: 12, dtype: object

>  <hydroph_interaction:PHE:76>  (13) 
hydroph_interaction:PHE:76    0
hydroph_interaction:PHE:76    0
Name: 12, dtype: object

>  <hbond:SER:77>  (13) 
hbond:SER:77    0
hbond:SER:77    0
Name: 12, dtype: object

>  <hbond:SER:80>  (13) 
hbond:SER:80    0
hbond:SER:80    0
Name: 12, dtype: object

>  <hbond:LEU:81>  (13) 
hbond:LEU:81    0
hbond:LEU:81    0
Name: 12, dtype: object

>  <halogenbond:LEU:81>  (13) 
halogenbond:LEU:81    0
halogenbond:LEU:81    0
Name: 12, dtype: object

>  <hydroph_interaction:LEU:81>  (13) 
hydroph_interaction:LEU:81    0
hydroph_interaction:LEU:81    0
Name: 12, dtype: object

>  <hydroph_interaction:ILE:82>  (13) 
hydroph_interaction:ILE:82    0
hydroph_interaction:ILE:82    0
Name: 12, dtype: object

>  <hbond:ILE:82>  (13) 
hbond:ILE:82    0
hbond:ILE:82    0
Name: 12, dtype: object

>  <hydroph_interaction:PHE:83>  (13) 
hydroph_interaction:PHE:83    0
hydroph_interaction:PHE:83    0
Name: 12, dtype: object

>  <hbond:PHE:83>  (13) 
hbond:PHE:83    0
hbond:PHE:83    0
Name: 12, dtype: object

>  <halogenbond:PHE:83>  (13) 
halogenbond:PHE:83    0
halogenbond:PHE:83    0
Name: 12, dtype: object

>  <pistack:PHE:83>  (13) 
pistack:PHE:83    0
pistack:PHE:83    0
Name: 12, dtype: object

>  <hydroph_interaction:VAL:84>  (13) 
hydroph_interaction:VAL:84    0
hydroph_interaction:VAL:84    0
Name: 12, dtype: object

>  <hbond:VAL:84>  (13) 
hbond:VAL:84    0
hbond:VAL:84    0
Name: 12, dtype: object

>  <halogenbond:VAL:84>  (13) 
halogenbond:VAL:84    0
halogenbond:VAL:84    0
Name: 12, dtype: object

>  <hydroph_interaction:GLU:85>  (13) 
hydroph_interaction:GLU:85    0
hydroph_interaction:GLU:85    0
Name: 12, dtype: object

>  <hbond:GLU:85>  (13) 
hbond:GLU:85    0
hbond:GLU:85    0
Name: 12, dtype: object

>  <saltbridge:GLU:85>  (13) 
saltbridge:GLU:85    0
saltbridge:GLU:85    0
Name: 12, dtype: object

>  <halogenbond:GLU:85>  (13) 
halogenbond:GLU:85    0
halogenbond:GLU:85    0
Name: 12, dtype: object

>  <hbond:ALA:86>  (13) 
hbond:ALA:86    0
hbond:ALA:86    0
Name: 12, dtype: object

>  <halogenbond:ALA:86>  (13) 
halogenbond:ALA:86    0
halogenbond:ALA:86    0
Name: 12, dtype: object

>  <hydroph_interaction:ALA:86>  (13) 
hydroph_interaction:ALA:86    0
hydroph_interaction:ALA:86    0
Name: 12, dtype: object

>  <hbond:SER:87>  (13) 
hbond:SER:87    1
hbond:SER:87    1
Name: 12, dtype: object

>  <halogenbond:SER:87>  (13) 
halogenbond:SER:87    0
halogenbond:SER:87    0
Name: 12, dtype: object

>  <hbond:GLU:88>  (13) 
hbond:GLU:88    0
hbond:GLU:88    0
Name: 12, dtype: object

>  <hydroph_interaction:GLU:88>  (13) 
hydroph_interaction:GLU:88    0
hydroph_interaction:GLU:88    0
Name: 12, dtype: object

>  <halogenbond:GLU:88>  (13) 
halogenbond:GLU:88    0
halogenbond:GLU:88    0
Name: 12, dtype: object

>  <saltbridge:GLU:88>  (13) 
saltbridge:GLU:88    0
saltbridge:GLU:88    0
Name: 12, dtype: object

>  <hydroph_interaction:TYR:89>  (13) 
hydroph_interaction:TYR:89    1
hydroph_interaction:TYR:89    1
Name: 12, dtype: object

>  <pistack:TYR:89>  (13) 
pistack:TYR:89    0
pistack:TYR:89    0
Name: 12, dtype: object

>  <hbond:TYR:89>  (13) 
hbond:TYR:89    0
hbond:TYR:89    0
Name: 12, dtype: object

>  <halogenbond:TYR:89>  (13) 
halogenbond:TYR:89    0
halogenbond:TYR:89    0
Name: 12, dtype: object

>  <hbond:TYR:90>  (13) 
hbond:TYR:90    0
hbond:TYR:90    0
Name: 12, dtype: object

>  <hydroph_interaction:TYR:90>  (13) 
hydroph_interaction:TYR:90    1
hydroph_interaction:TYR:90    1
Name: 12, dtype: object

>  <pistack:TYR:90>  (13) 
pistack:TYR:90    0
pistack:TYR:90    0
Name: 12, dtype: object

>  <halogenbond:TYR:90>  (13) 
halogenbond:TYR:90    0
halogenbond:TYR:90    0
Name: 12, dtype: object

>  <pication:TYR:90>  (13) 
pication:TYR:90    0
pication:TYR:90    0
Name: 12, dtype: object

>  <hydroph_interaction:PRO:91>  (13) 
hydroph_interaction:PRO:91    0
hydroph_interaction:PRO:91    0
Name: 12, dtype: object

>  <halogenbond:PRO:91>  (13) 
halogenbond:PRO:91    0
halogenbond:PRO:91    0
Name: 12, dtype: object

>  <hbond:PRO:91>  (13) 
hbond:PRO:91    0
hbond:PRO:91    0
Name: 12, dtype: object

>  <hydroph_interaction:ALA:92>  (13) 
hydroph_interaction:ALA:92    0
hydroph_interaction:ALA:92    0
Name: 12, dtype: object

>  <hbond:ARG:93>  (13) 
hbond:ARG:93    0
hbond:ARG:93    0
Name: 12, dtype: object

>  <pication:ARG:93>  (13) 
pication:ARG:93    0
pication:ARG:93    0
Name: 12, dtype: object

>  <saltbridge:ARG:93>  (13) 
saltbridge:ARG:93    0
saltbridge:ARG:93    0
Name: 12, dtype: object

>  <hydroph_interaction:ARG:93>  (13) 
hydroph_interaction:ARG:93    0
hydroph_interaction:ARG:93    0
Name: 12, dtype: object

>  <halogenbond:ARG:93>  (13) 
halogenbond:ARG:93    0
halogenbond:ARG:93    0
Name: 12, dtype: object

>  <hydroph_interaction:TYR:94>  (13) 
hydroph_interaction:TYR:94    0
hydroph_interaction:TYR:94    0
Name: 12, dtype: object

>  <hbond:TYR:94>  (13) 
hbond:TYR:94    0
hbond:TYR:94    0
Name: 12, dtype: object

>  <halogenbond:GLN:95>  (13) 
halogenbond:GLN:95    1
halogenbond:GLN:95    1
Name: 12, dtype: object

>  <hbond:GLN:95>  (13) 
hbond:GLN:95    0
hbond:GLN:95    0
Name: 12, dtype: object

>  <hydroph_interaction:GLN:95>  (13) 
hydroph_interaction:GLN:95    0
hydroph_interaction:GLN:95    0
Name: 12, dtype: object

>  <hbond:SER:96>  (13) 
hbond:SER:96    0
hbond:SER:96    0
Name: 12, dtype: object

>  <hydroph_interaction:LEU:98>  (13) 
hydroph_interaction:LEU:98    0
hydroph_interaction:LEU:98    0
Name: 12, dtype: object

>  <hbond:LEU:98>  (13) 
hbond:LEU:98    0
hbond:LEU:98    0
Name: 12, dtype: object

>  <hbond:MET:99>  (13) 
hbond:MET:99    0
hbond:MET:99    0
Name: 12, dtype: object

>  <hydroph_interaction:MET:99>  (13) 
hydroph_interaction:MET:99    0
hydroph_interaction:MET:99    0
Name: 12, dtype: object

>  <halogenbond:MET:99>  (13) 
halogenbond:MET:99    0
halogenbond:MET:99    0
Name: 12, dtype: object

>  <hydroph_interaction:LEU:100>  (13) 
hydroph_interaction:LEU:100    0
hydroph_interaction:LEU:100    0
Name: 12, dtype: object

>  <hbond:LEU:100>  (13) 
hbond:LEU:100    0
hbond:LEU:100    0
Name: 12, dtype: object

>  <hbond:ALA:101>  (13) 
hbond:ALA:101    0
hbond:ALA:101    0
Name: 12, dtype: object

>  <hydroph_interaction:ALA:101>  (13) 
hydroph_interaction:ALA:101    0
hydroph_interaction:ALA:101    0
Name: 12, dtype: object

>  <hydroph_interaction:VAL:102>  (13) 
hydroph_interaction:VAL:102    0
hydroph_interaction:VAL:102    0
Name: 12, dtype: object

>  <hbond:VAL:102>  (13) 
hbond:VAL:102    0
hbond:VAL:102    0
Name: 12, dtype: object

>  <hbond:GLY:103>  (13) 
hbond:GLY:103    0
hbond:GLY:103    0
Name: 12, dtype: object

>  <halogenbond:GLY:103>  (13) 
halogenbond:GLY:103    0
halogenbond:GLY:103    0
Name: 12, dtype: object

>  <hydroph_interaction:HIS:104>  (13) 
hydroph_interaction:HIS:104    0
hydroph_interaction:HIS:104    0
Name: 12, dtype: object

>  <hbond:HIS:104>  (13) 
hbond:HIS:104    0
hbond:HIS:104    0
Name: 12, dtype: object

>  <saltbridge:HIS:104>  (13) 
saltbridge:HIS:104    0
saltbridge:HIS:104    0
Name: 12, dtype: object

>  <pication:HIS:104>  (13) 
pication:HIS:104    0
pication:HIS:104    0
Name: 12, dtype: object

>  <pistack:HIS:104>  (13) 
pistack:HIS:104    0
pistack:HIS:104    0
Name: 12, dtype: object

>  <halogenbond:HIS:104>  (13) 
halogenbond:HIS:104    0
halogenbond:HIS:104    0
Name: 12, dtype: object

>  <hbond:SER:105>  (13) 
hbond:SER:105    0
hbond:SER:105    0
Name: 12, dtype: object

>  <halogenbond:SER:105>  (13) 
halogenbond:SER:105    0
halogenbond:SER:105    0
Name: 12, dtype: object

>  <hbond:GLU:106>  (13) 
hbond:GLU:106    0
hbond:GLU:106    0
Name: 12, dtype: object

>  <hydroph_interaction:GLU:106>  (13) 
hydroph_interaction:GLU:106    0
hydroph_interaction:GLU:106    0
Name: 12, dtype: object

>  <saltbridge:GLU:106>  (13) 
saltbridge:GLU:106    0
saltbridge:GLU:106    0
Name: 12, dtype: object

>  <halogenbond:GLU:106>  (13) 
halogenbond:GLU:106    0
halogenbond:GLU:106    0
Name: 12, dtype: object

>  <hydroph_interaction:PRO:107>  (13) 
hydroph_interaction:PRO:107    1
hydroph_interaction:PRO:107    1
Name: 12, dtype: object

>  <hbond:PRO:107>  (13) 
hbond:PRO:107    0
hbond:PRO:107    0
Name: 12, dtype: object

>  <halogenbond:PRO:107>  (13) 
halogenbond:PRO:107    0
halogenbond:PRO:107    0
Name: 12, dtype: object

>  <hbond:GLY:108>  (13) 
hbond:GLY:108    0
hbond:GLY:108    0
Name: 12, dtype: object

>  <halogenbond:GLY:108>  (13) 
halogenbond:GLY:108    0
halogenbond:GLY:108    0
Name: 12, dtype: object

>  <hbond:ASP:109>  (13) 
hbond:ASP:109    0
hbond:ASP:109    0
Name: 12, dtype: object

>  <hydroph_interaction:ASP:109>  (13) 
hydroph_interaction:ASP:109    0
hydroph_interaction:ASP:109    0
Name: 12, dtype: object

>  <saltbridge:ASP:109>  (13) 
saltbridge:ASP:109    0
saltbridge:ASP:109    0
Name: 12, dtype: object

>  <hbond:CYS:110>  (13) 
hbond:CYS:110    0
hbond:CYS:110    0
Name: 12, dtype: object

>  <halogenbond:CYS:110>  (13) 
halogenbond:CYS:110    0
halogenbond:CYS:110    0
Name: 12, dtype: object

>  <hbond:GLY:111>  (13) 
hbond:GLY:111    0
hbond:GLY:111    0
Name: 12, dtype: object

>  <hbond:GLY:112>  (13) 
hbond:GLY:112    0
hbond:GLY:112    0
Name: 12, dtype: object

>  <hbond:ILE:113>  (13) 
hbond:ILE:113    0
hbond:ILE:113    0
Name: 12, dtype: object

>  <hydroph_interaction:LEU:114>  (13) 
hydroph_interaction:LEU:114    0
hydroph_interaction:LEU:114    0
Name: 12, dtype: object

>  <hbond:LEU:114>  (13) 
hbond:LEU:114    0
hbond:LEU:114    0
Name: 12, dtype: object

>  <hydroph_interaction:ILE:123>  (13) 
hydroph_interaction:ILE:123    0
hydroph_interaction:ILE:123    0
Name: 12, dtype: object

>  <hbond:ILE:123>  (13) 
hbond:ILE:123    0
hbond:ILE:123    0
Name: 12, dtype: object

>  <hydroph_interaction:VAL:124>  (13) 
hydroph_interaction:VAL:124    0
hydroph_interaction:VAL:124    0
Name: 12, dtype: object

>  <hbond:VAL:124>  (13) 
hbond:VAL:124    0
hbond:VAL:124    0
Name: 12, dtype: object

>  <halogenbond:VAL:124>  (13) 
halogenbond:VAL:124    0
halogenbond:VAL:124    0
Name: 12, dtype: object

>  <hbond:SER:125>  (13) 
hbond:SER:125    0
hbond:SER:125    0
Name: 12, dtype: object

>  <halogenbond:SER:125>  (13) 
halogenbond:SER:125    1
halogenbond:SER:125    1
Name: 12, dtype: object

>  <hydroph_interaction:THR:126>  (13) 
hydroph_interaction:THR:126    0
hydroph_interaction:THR:126    0
Name: 12, dtype: object

>  <hbond:THR:126>  (13) 
hbond:THR:126    0
hbond:THR:126    0
Name: 12, dtype: object

>  <halogenbond:THR:126>  (13) 
halogenbond:THR:126    0
halogenbond:THR:126    0
Name: 12, dtype: object

>  <hbond:GLY:127>  (13) 
hbond:GLY:127    0
hbond:GLY:127    0
Name: 12, dtype: object

>  <halogenbond:GLY:127>  (13) 
halogenbond:GLY:127    0
halogenbond:GLY:127    0
Name: 12, dtype: object

>  <hydroph_interaction:GLY:127>  (13) 
hydroph_interaction:GLY:127    0
hydroph_interaction:GLY:127    0
Name: 12, dtype: object

>  <hbond:GLY:128>  (13) 
hbond:GLY:128    0
hbond:GLY:128    0
Name: 12, dtype: object

>  <halogenbond:GLY:128>  (13) 
halogenbond:GLY:128    0
halogenbond:GLY:128    0
Name: 12, dtype: object

>  <hydroph_interaction:GLY:128>  (13) 
hydroph_interaction:GLY:128    0
hydroph_interaction:GLY:128    0
Name: 12, dtype: object

>  <hbond:ASN:129>  (13) 
hbond:ASN:129    0
hbond:ASN:129    0
Name: 12, dtype: object

>  <hydroph_interaction:ASN:129>  (13) 
hydroph_interaction:ASN:129    0
hydroph_interaction:ASN:129    0
Name: 12, dtype: object

>  <halogenbond:ASN:129>  (13) 
halogenbond:ASN:129    0
halogenbond:ASN:129    0
Name: 12, dtype: object

>  <hbond:GLY:130>  (13) 
hbond:GLY:130    0
hbond:GLY:130    0
Name: 12, dtype: object

>  <hydroph_interaction:LEU:131>  (13) 
hydroph_interaction:LEU:131    0
hydroph_interaction:LEU:131    0
Name: 12, dtype: object

>  <hbond:LEU:131>  (13) 
hbond:LEU:131    0
hbond:LEU:131    0
Name: 12, dtype: object

>  <halogenbond:LEU:131>  (13) 
halogenbond:LEU:131    0
halogenbond:LEU:131    0
Name: 12, dtype: object

>  <hydroph_interaction:VAL:132>  (13) 
hydroph_interaction:VAL:132    0
hydroph_interaction:VAL:132    0
Name: 12, dtype: object

>  <hbond:VAL:132>  (13) 
hbond:VAL:132    0
hbond:VAL:132    0
Name: 12, dtype: object

>  <hbond:GLY:133>  (13) 
hbond:GLY:133    0
hbond:GLY:133    0
Name: 12, dtype: object

>  <halogenbond:GLY:133>  (13) 
halogenbond:GLY:133    0
halogenbond:GLY:133    0
Name: 12, dtype: object

>  <hydroph_interaction:PHE:134>  (13) 
hydroph_interaction:PHE:134    0
hydroph_interaction:PHE:134    0
Name: 12, dtype: object

>  <hbond:PHE:134>  (13) 
hbond:PHE:134    0
hbond:PHE:134    0
Name: 12, dtype: object

>  <pistack:PHE:134>  (13) 
pistack:PHE:134    0
pistack:PHE:134    0
Name: 12, dtype: object

>  <pication:PHE:134>  (13) 
pication:PHE:134    0
pication:PHE:134    0
Name: 12, dtype: object

>  <hydroph_interaction:ALA:135>  (13) 
hydroph_interaction:ALA:135    0
hydroph_interaction:ALA:135    0
Name: 12, dtype: object

>  <hbond:ALA:135>  (13) 
hbond:ALA:135    0
hbond:ALA:135    0
Name: 12, dtype: object

$$$$
Z1303811698
     RDKit          3D

 29 29  0  0  0  0  0  0  0  0999 V2000
   10.4390    9.2700   23.0530 C   0  0  0  0  0  0  0  0  0  0  0  0
    9.7010   10.4880   23.4060 C   0  0  0  0  0  0  0  0  0  0  0  0
    8.6440   10.4400   24.3090 C   0  0  0  0  0  0  0  0  0  0  0  0
    7.9450   11.5940   24.6390 C   0  0  0  0  0  0  0  0  0  0  0  0
    6.8970   11.5150   25.5500 C   0  0  0  0  0  0  0  0  0  0  0  0
    8.3160   12.8180   24.0410 C   0  0  0  0  0  0  0  0  0  0  0  0
    7.6070   14.0000   24.3540 N   0  0  0  0  0  0  0  0  0  0  0  0
    9.3810   12.8260   23.1480 C   0  0  0  0  0  0  0  0  0  0  0  0
    9.8660   14.0550   22.4660 C   0  0  0  0  0  0  0  0  0  0  0  0
    9.2640   14.5460   21.5220 O   0  0  0  0  0  0  0  0  0  0  0  0
   10.8990   14.5100   22.9200 O   0  0  0  0  0  0  0  0  0  0  0  0
   12.0940   14.0130   22.3070 C   0  0  0  0  0  0  0  0  0  0  0  0
   12.9890   15.0650   22.3210 C   0  0  0  0  0  0  0  0  0  0  0  0
   12.3260   16.2020   22.6140 F   0  0  0  0  0  0  0  0  0  0  0  0
   10.0620   11.6700   22.8430 C   0  0  0  0  0  0  0  0  0  0  0  0
   10.0850    8.5100   23.6860 H   0  0  0  0  0  0  0  0  0  0  0  0
   10.3030    9.0060   22.0000 H   0  0  0  0  0  0  0  0  0  0  0  0
   11.4980    9.3470   23.2630 H   0  0  0  0  0  0  0  0  0  0  0  0
    8.3510    9.5000   24.7660 H   0  0  0  0  0  0  0  0  0  0  0  0
    6.5110   10.5250   25.7640 H   0  0  0  0  0  0  0  0  0  0  0  0
    6.0430   12.1380   25.3020 H   0  0  0  0  0  0  0  0  0  0  0  0
    7.2680   11.8980   26.5040 H   0  0  0  0  0  0  0  0  0  0  0  0
    8.1260   14.6080   24.9690 H   0  0  0  0  0  0  0  0  0  0  0  0
    6.6650   13.8440   24.6990 H   0  0  0  0  0  0  0  0  0  0  0  0
   11.8390   13.5850   21.3450 H   0  0  0  0  0  0  0  0  0  0  0  0
   12.5050   13.2100   22.9270 H   0  0  0  0  0  0  0  0  0  0  0  0
   13.7670   14.9100   23.0730 H   0  0  0  0  0  0  0  0  0  0  0  0
   13.4890   15.1900   21.3550 H   0  0  0  0  0  0  0  0  0  0  0  0
   10.8970   11.6930   22.1430 H   0  0  0  0  0  0  0  0  0  0  0  0
  1  2  1  0
  2  3  2  0
  3  4  1  0
  4  5  1  0
  4  6  2  0
  6  7  1  0
  6  8  1  0
  8  9  1  0
  9 10  2  0
  9 11  1  0
 11 12  1  0
 12 13  1  0
 13 14  1  0
  8 15  2  0
 15  2  1  0
  1 16  1  0
  1 17  1  0
  1 18  1  0
  3 19  1  0
  5 20  1  0
  5 21  1  0
  5 22  1  0
  7 23  1  0
  7 24  1  0
 12 25  1  0
 12 26  1  0
 13 27  1  0
 13 28  1  0
 15 29  1  0
A    1
 C1 
A    2
 C2 
A    3
 C3 
A    4
 C4 
A    5
 C5 
A    6
 C6 
A    7
 N1 
A    8
 C7 
A    9
 C8 
A   10
 O1 
A   11
 O2 
A   12
 C9 
A   13
 C10
A   14
 F1 
A   15
 C11
A   16
 H1 
A   17
 H2 
A   18
 H3 
A   19
 H4 
A   20
 H5 
A   21
 H6 
A   22
 H7 
A   23
 H8 
A   24
 H9 
A   25
 H10
A   26
 H11
A   27
 H12
A   28
 H13
A   29
 H14
M  END
>  <ref_pdb>  (14) 
x0310_0A

>  <ref_mols>  (14) 
x0310_0A,x0732_0A

>  <original SMILES>  (14) 
Cc1cc(C)c(N)c(C(=O)OCCF)c1

>  <rationale>  (14) 
info halogenbond:S87; hbond:S87; hydroph_interaction:V124; 

>  <intxn_cluster>  (14) 
100

>  <intxn_cluster_rank>  (14) 
3

>  <N_interactions>  (14) 
3

>  <∆∆G>  (14) 
-8.770637

>  <$/mg>  (14) 
163.0

>  <comRMSD>  (14) 
0.510271

>  <N_rotatable_bonds>  (14) 
6

>  <N_analogues_07>  (14) 
6

>  <deep_P1_sidechain>  (14) 
True

>  <farthest_distance_to_substrate>  (14) 
2.120709

>  <hbond:SER:7>  (14) 
hbond:SER:7    0
hbond:SER:7    0
Name: 13, dtype: object

>  <halogenbond:SER:7>  (14) 
halogenbond:SER:7    0
halogenbond:SER:7    0
Name: 13, dtype: object

>  <hbond:GLY:8>  (14) 
hbond:GLY:8    0
hbond:GLY:8    0
Name: 13, dtype: object

>  <hydroph_interaction:ASN:19>  (14) 
hydroph_interaction:ASN:19    0
hydroph_interaction:ASN:19    0
Name: 13, dtype: object

>  <hbond:ASN:19>  (14) 
hbond:ASN:19    0
hbond:ASN:19    0
Name: 13, dtype: object

>  <halogenbond:ASN:19>  (14) 
halogenbond:ASN:19    0
halogenbond:ASN:19    0
Name: 13, dtype: object

>  <hbond:ARG:20>  (14) 
hbond:ARG:20    0
hbond:ARG:20    0
Name: 13, dtype: object

>  <hydroph_interaction:ARG:20>  (14) 
hydroph_interaction:ARG:20    0
hydroph_interaction:ARG:20    0
Name: 13, dtype: object

>  <saltbridge:ARG:20>  (14) 
saltbridge:ARG:20    0
saltbridge:ARG:20    0
Name: 13, dtype: object

>  <halogenbond:ARG:20>  (14) 
halogenbond:ARG:20    0
halogenbond:ARG:20    0
Name: 13, dtype: object

>  <pication:ARG:20>  (14) 
pication:ARG:20    0
pication:ARG:20    0
Name: 13, dtype: object

>  <hbond:HIS:21>  (14) 
hbond:HIS:21    0
hbond:HIS:21    0
Name: 13, dtype: object

>  <hydroph_interaction:HIS:21>  (14) 
hydroph_interaction:HIS:21    0
hydroph_interaction:HIS:21    0
Name: 13, dtype: object

>  <saltbridge:HIS:21>  (14) 
saltbridge:HIS:21    0
saltbridge:HIS:21    0
Name: 13, dtype: object

>  <pistack:HIS:21>  (14) 
pistack:HIS:21    0
pistack:HIS:21    0
Name: 13, dtype: object

>  <pication:HIS:21>  (14) 
pication:HIS:21    0
pication:HIS:21    0
Name: 13, dtype: object

>  <halogenbond:HIS:21>  (14) 
halogenbond:HIS:21    0
halogenbond:HIS:21    0
Name: 13, dtype: object

>  <hydroph_interaction:LEU:22>  (14) 
hydroph_interaction:LEU:22    0
hydroph_interaction:LEU:22    0
Name: 13, dtype: object

>  <hbond:LEU:22>  (14) 
hbond:LEU:22    0
hbond:LEU:22    0
Name: 13, dtype: object

>  <hydroph_interaction:TRP:28>  (14) 
hydroph_interaction:TRP:28    0
hydroph_interaction:TRP:28    0
Name: 13, dtype: object

>  <hbond:SER:36>  (14) 
hbond:SER:36    0
hbond:SER:36    0
Name: 13, dtype: object

>  <halogenbond:SER:36>  (14) 
halogenbond:SER:36    0
halogenbond:SER:36    0
Name: 13, dtype: object

>  <hbond:ARG:38>  (14) 
hbond:ARG:38    0
hbond:ARG:38    0
Name: 13, dtype: object

>  <halogenbond:ARG:38>  (14) 
halogenbond:ARG:38    0
halogenbond:ARG:38    0
Name: 13, dtype: object

>  <hbond:ASP:39>  (14) 
hbond:ASP:39    0
hbond:ASP:39    0
Name: 13, dtype: object

>  <saltbridge:ASP:39>  (14) 
saltbridge:ASP:39    0
saltbridge:ASP:39    0
Name: 13, dtype: object

>  <hydroph_interaction:ASP:39>  (14) 
hydroph_interaction:ASP:39    0
hydroph_interaction:ASP:39    0
Name: 13, dtype: object

>  <halogenbond:ASP:39>  (14) 
halogenbond:ASP:39    0
halogenbond:ASP:39    0
Name: 13, dtype: object

>  <hydroph_interaction:LEU:40>  (14) 
hydroph_interaction:LEU:40    0
hydroph_interaction:LEU:40    0
Name: 13, dtype: object

>  <hydroph_interaction:TYR:63>  (14) 
hydroph_interaction:TYR:63    0
hydroph_interaction:TYR:63    0
Name: 13, dtype: object

>  <pistack:TYR:63>  (14) 
pistack:TYR:63    0
pistack:TYR:63    0
Name: 13, dtype: object

>  <hbond:TYR:63>  (14) 
hbond:TYR:63    0
hbond:TYR:63    0
Name: 13, dtype: object

>  <hbond:TYR:64>  (14) 
hbond:TYR:64    0
hbond:TYR:64    0
Name: 13, dtype: object

>  <halogenbond:TYR:64>  (14) 
halogenbond:TYR:64    0
halogenbond:TYR:64    0
Name: 13, dtype: object

>  <hydroph_interaction:TYR:64>  (14) 
hydroph_interaction:TYR:64    0
hydroph_interaction:TYR:64    0
Name: 13, dtype: object

>  <hbond:CYS:65>  (14) 
hbond:CYS:65    0
hbond:CYS:65    0
Name: 13, dtype: object

>  <halogenbond:CYS:65>  (14) 
halogenbond:CYS:65    0
halogenbond:CYS:65    0
Name: 13, dtype: object

>  <hbond:SER:66>  (14) 
hbond:SER:66    0
hbond:SER:66    0
Name: 13, dtype: object

>  <hbond:SER:67>  (14) 
hbond:SER:67    0
hbond:SER:67    0
Name: 13, dtype: object

>  <halogenbond:SER:67>  (14) 
halogenbond:SER:67    0
halogenbond:SER:67    0
Name: 13, dtype: object

>  <hydroph_interaction:ARG:68>  (14) 
hydroph_interaction:ARG:68    0
hydroph_interaction:ARG:68    0
Name: 13, dtype: object

>  <hbond:ARG:68>  (14) 
hbond:ARG:68    0
hbond:ARG:68    0
Name: 13, dtype: object

>  <saltbridge:ARG:68>  (14) 
saltbridge:ARG:68    0
saltbridge:ARG:68    0
Name: 13, dtype: object

>  <pication:ARG:68>  (14) 
pication:ARG:68    0
pication:ARG:68    0
Name: 13, dtype: object

>  <hydroph_interaction:TYR:72>  (14) 
hydroph_interaction:TYR:72    0
hydroph_interaction:TYR:72    0
Name: 13, dtype: object

>  <hydroph_interaction:VAL:74>  (14) 
hydroph_interaction:VAL:74    0
hydroph_interaction:VAL:74    0
Name: 13, dtype: object

>  <hydroph_interaction:PHE:76>  (14) 
hydroph_interaction:PHE:76    0
hydroph_interaction:PHE:76    0
Name: 13, dtype: object

>  <hbond:SER:77>  (14) 
hbond:SER:77    0
hbond:SER:77    0
Name: 13, dtype: object

>  <hbond:SER:80>  (14) 
hbond:SER:80    0
hbond:SER:80    0
Name: 13, dtype: object

>  <hbond:LEU:81>  (14) 
hbond:LEU:81    0
hbond:LEU:81    0
Name: 13, dtype: object

>  <halogenbond:LEU:81>  (14) 
halogenbond:LEU:81    0
halogenbond:LEU:81    0
Name: 13, dtype: object

>  <hydroph_interaction:LEU:81>  (14) 
hydroph_interaction:LEU:81    0
hydroph_interaction:LEU:81    0
Name: 13, dtype: object

>  <hydroph_interaction:ILE:82>  (14) 
hydroph_interaction:ILE:82    0
hydroph_interaction:ILE:82    0
Name: 13, dtype: object

>  <hbond:ILE:82>  (14) 
hbond:ILE:82    0
hbond:ILE:82    0
Name: 13, dtype: object

>  <hydroph_interaction:PHE:83>  (14) 
hydroph_interaction:PHE:83    0
hydroph_interaction:PHE:83    0
Name: 13, dtype: object

>  <hbond:PHE:83>  (14) 
hbond:PHE:83    0
hbond:PHE:83    0
Name: 13, dtype: object

>  <halogenbond:PHE:83>  (14) 
halogenbond:PHE:83    0
halogenbond:PHE:83    0
Name: 13, dtype: object

>  <pistack:PHE:83>  (14) 
pistack:PHE:83    0
pistack:PHE:83    0
Name: 13, dtype: object

>  <hydroph_interaction:VAL:84>  (14) 
hydroph_interaction:VAL:84    0
hydroph_interaction:VAL:84    0
Name: 13, dtype: object

>  <hbond:VAL:84>  (14) 
hbond:VAL:84    0
hbond:VAL:84    0
Name: 13, dtype: object

>  <halogenbond:VAL:84>  (14) 
halogenbond:VAL:84    0
halogenbond:VAL:84    0
Name: 13, dtype: object

>  <hydroph_interaction:GLU:85>  (14) 
hydroph_interaction:GLU:85    0
hydroph_interaction:GLU:85    0
Name: 13, dtype: object

>  <hbond:GLU:85>  (14) 
hbond:GLU:85    0
hbond:GLU:85    0
Name: 13, dtype: object

>  <saltbridge:GLU:85>  (14) 
saltbridge:GLU:85    0
saltbridge:GLU:85    0
Name: 13, dtype: object

>  <halogenbond:GLU:85>  (14) 
halogenbond:GLU:85    0
halogenbond:GLU:85    0
Name: 13, dtype: object

>  <hbond:ALA:86>  (14) 
hbond:ALA:86    0
hbond:ALA:86    0
Name: 13, dtype: object

>  <halogenbond:ALA:86>  (14) 
halogenbond:ALA:86    0
halogenbond:ALA:86    0
Name: 13, dtype: object

>  <hydroph_interaction:ALA:86>  (14) 
hydroph_interaction:ALA:86    0
hydroph_interaction:ALA:86    0
Name: 13, dtype: object

>  <hbond:SER:87>  (14) 
hbond:SER:87    1
hbond:SER:87    1
Name: 13, dtype: object

>  <halogenbond:SER:87>  (14) 
halogenbond:SER:87    1
halogenbond:SER:87    1
Name: 13, dtype: object

>  <hbond:GLU:88>  (14) 
hbond:GLU:88    0
hbond:GLU:88    0
Name: 13, dtype: object

>  <hydroph_interaction:GLU:88>  (14) 
hydroph_interaction:GLU:88    0
hydroph_interaction:GLU:88    0
Name: 13, dtype: object

>  <halogenbond:GLU:88>  (14) 
halogenbond:GLU:88    0
halogenbond:GLU:88    0
Name: 13, dtype: object

>  <saltbridge:GLU:88>  (14) 
saltbridge:GLU:88    0
saltbridge:GLU:88    0
Name: 13, dtype: object

>  <hydroph_interaction:TYR:89>  (14) 
hydroph_interaction:TYR:89    0
hydroph_interaction:TYR:89    0
Name: 13, dtype: object

>  <pistack:TYR:89>  (14) 
pistack:TYR:89    0
pistack:TYR:89    0
Name: 13, dtype: object

>  <hbond:TYR:89>  (14) 
hbond:TYR:89    0
hbond:TYR:89    0
Name: 13, dtype: object

>  <halogenbond:TYR:89>  (14) 
halogenbond:TYR:89    0
halogenbond:TYR:89    0
Name: 13, dtype: object

>  <hbond:TYR:90>  (14) 
hbond:TYR:90    0
hbond:TYR:90    0
Name: 13, dtype: object

>  <hydroph_interaction:TYR:90>  (14) 
hydroph_interaction:TYR:90    0
hydroph_interaction:TYR:90    0
Name: 13, dtype: object

>  <pistack:TYR:90>  (14) 
pistack:TYR:90    0
pistack:TYR:90    0
Name: 13, dtype: object

>  <halogenbond:TYR:90>  (14) 
halogenbond:TYR:90    0
halogenbond:TYR:90    0
Name: 13, dtype: object

>  <pication:TYR:90>  (14) 
pication:TYR:90    0
pication:TYR:90    0
Name: 13, dtype: object

>  <hydroph_interaction:PRO:91>  (14) 
hydroph_interaction:PRO:91    0
hydroph_interaction:PRO:91    0
Name: 13, dtype: object

>  <halogenbond:PRO:91>  (14) 
halogenbond:PRO:91    0
halogenbond:PRO:91    0
Name: 13, dtype: object

>  <hbond:PRO:91>  (14) 
hbond:PRO:91    0
hbond:PRO:91    0
Name: 13, dtype: object

>  <hydroph_interaction:ALA:92>  (14) 
hydroph_interaction:ALA:92    0
hydroph_interaction:ALA:92    0
Name: 13, dtype: object

>  <hbond:ARG:93>  (14) 
hbond:ARG:93    0
hbond:ARG:93    0
Name: 13, dtype: object

>  <pication:ARG:93>  (14) 
pication:ARG:93    0
pication:ARG:93    0
Name: 13, dtype: object

>  <saltbridge:ARG:93>  (14) 
saltbridge:ARG:93    0
saltbridge:ARG:93    0
Name: 13, dtype: object

>  <hydroph_interaction:ARG:93>  (14) 
hydroph_interaction:ARG:93    0
hydroph_interaction:ARG:93    0
Name: 13, dtype: object

>  <halogenbond:ARG:93>  (14) 
halogenbond:ARG:93    0
halogenbond:ARG:93    0
Name: 13, dtype: object

>  <hydroph_interaction:TYR:94>  (14) 
hydroph_interaction:TYR:94    0
hydroph_interaction:TYR:94    0
Name: 13, dtype: object

>  <hbond:TYR:94>  (14) 
hbond:TYR:94    0
hbond:TYR:94    0
Name: 13, dtype: object

>  <halogenbond:GLN:95>  (14) 
halogenbond:GLN:95    0
halogenbond:GLN:95    0
Name: 13, dtype: object

>  <hbond:GLN:95>  (14) 
hbond:GLN:95    0
hbond:GLN:95    0
Name: 13, dtype: object

>  <hydroph_interaction:GLN:95>  (14) 
hydroph_interaction:GLN:95    0
hydroph_interaction:GLN:95    0
Name: 13, dtype: object

>  <hbond:SER:96>  (14) 
hbond:SER:96    0
hbond:SER:96    0
Name: 13, dtype: object

>  <hydroph_interaction:LEU:98>  (14) 
hydroph_interaction:LEU:98    0
hydroph_interaction:LEU:98    0
Name: 13, dtype: object

>  <hbond:LEU:98>  (14) 
hbond:LEU:98    0
hbond:LEU:98    0
Name: 13, dtype: object

>  <hbond:MET:99>  (14) 
hbond:MET:99    0
hbond:MET:99    0
Name: 13, dtype: object

>  <hydroph_interaction:MET:99>  (14) 
hydroph_interaction:MET:99    0
hydroph_interaction:MET:99    0
Name: 13, dtype: object

>  <halogenbond:MET:99>  (14) 
halogenbond:MET:99    0
halogenbond:MET:99    0
Name: 13, dtype: object

>  <hydroph_interaction:LEU:100>  (14) 
hydroph_interaction:LEU:100    0
hydroph_interaction:LEU:100    0
Name: 13, dtype: object

>  <hbond:LEU:100>  (14) 
hbond:LEU:100    0
hbond:LEU:100    0
Name: 13, dtype: object

>  <hbond:ALA:101>  (14) 
hbond:ALA:101    0
hbond:ALA:101    0
Name: 13, dtype: object

>  <hydroph_interaction:ALA:101>  (14) 
hydroph_interaction:ALA:101    0
hydroph_interaction:ALA:101    0
Name: 13, dtype: object

>  <hydroph_interaction:VAL:102>  (14) 
hydroph_interaction:VAL:102    0
hydroph_interaction:VAL:102    0
Name: 13, dtype: object

>  <hbond:VAL:102>  (14) 
hbond:VAL:102    0
hbond:VAL:102    0
Name: 13, dtype: object

>  <hbond:GLY:103>  (14) 
hbond:GLY:103    0
hbond:GLY:103    0
Name: 13, dtype: object

>  <halogenbond:GLY:103>  (14) 
halogenbond:GLY:103    0
halogenbond:GLY:103    0
Name: 13, dtype: object

>  <hydroph_interaction:HIS:104>  (14) 
hydroph_interaction:HIS:104    0
hydroph_interaction:HIS:104    0
Name: 13, dtype: object

>  <hbond:HIS:104>  (14) 
hbond:HIS:104    0
hbond:HIS:104    0
Name: 13, dtype: object

>  <saltbridge:HIS:104>  (14) 
saltbridge:HIS:104    0
saltbridge:HIS:104    0
Name: 13, dtype: object

>  <pication:HIS:104>  (14) 
pication:HIS:104    0
pication:HIS:104    0
Name: 13, dtype: object

>  <pistack:HIS:104>  (14) 
pistack:HIS:104    0
pistack:HIS:104    0
Name: 13, dtype: object

>  <halogenbond:HIS:104>  (14) 
halogenbond:HIS:104    0
halogenbond:HIS:104    0
Name: 13, dtype: object

>  <hbond:SER:105>  (14) 
hbond:SER:105    0
hbond:SER:105    0
Name: 13, dtype: object

>  <halogenbond:SER:105>  (14) 
halogenbond:SER:105    0
halogenbond:SER:105    0
Name: 13, dtype: object

>  <hbond:GLU:106>  (14) 
hbond:GLU:106    0
hbond:GLU:106    0
Name: 13, dtype: object

>  <hydroph_interaction:GLU:106>  (14) 
hydroph_interaction:GLU:106    0
hydroph_interaction:GLU:106    0
Name: 13, dtype: object

>  <saltbridge:GLU:106>  (14) 
saltbridge:GLU:106    0
saltbridge:GLU:106    0
Name: 13, dtype: object

>  <halogenbond:GLU:106>  (14) 
halogenbond:GLU:106    0
halogenbond:GLU:106    0
Name: 13, dtype: object

>  <hydroph_interaction:PRO:107>  (14) 
hydroph_interaction:PRO:107    0
hydroph_interaction:PRO:107    0
Name: 13, dtype: object

>  <hbond:PRO:107>  (14) 
hbond:PRO:107    0
hbond:PRO:107    0
Name: 13, dtype: object

>  <halogenbond:PRO:107>  (14) 
halogenbond:PRO:107    0
halogenbond:PRO:107    0
Name: 13, dtype: object

>  <hbond:GLY:108>  (14) 
hbond:GLY:108    0
hbond:GLY:108    0
Name: 13, dtype: object

>  <halogenbond:GLY:108>  (14) 
halogenbond:GLY:108    0
halogenbond:GLY:108    0
Name: 13, dtype: object

>  <hbond:ASP:109>  (14) 
hbond:ASP:109    0
hbond:ASP:109    0
Name: 13, dtype: object

>  <hydroph_interaction:ASP:109>  (14) 
hydroph_interaction:ASP:109    0
hydroph_interaction:ASP:109    0
Name: 13, dtype: object

>  <saltbridge:ASP:109>  (14) 
saltbridge:ASP:109    0
saltbridge:ASP:109    0
Name: 13, dtype: object

>  <hbond:CYS:110>  (14) 
hbond:CYS:110    0
hbond:CYS:110    0
Name: 13, dtype: object

>  <halogenbond:CYS:110>  (14) 
halogenbond:CYS:110    0
halogenbond:CYS:110    0
Name: 13, dtype: object

>  <hbond:GLY:111>  (14) 
hbond:GLY:111    0
hbond:GLY:111    0
Name: 13, dtype: object

>  <hbond:GLY:112>  (14) 
hbond:GLY:112    0
hbond:GLY:112    0
Name: 13, dtype: object

>  <hbond:ILE:113>  (14) 
hbond:ILE:113    0
hbond:ILE:113    0
Name: 13, dtype: object

>  <hydroph_interaction:LEU:114>  (14) 
hydroph_interaction:LEU:114    0
hydroph_interaction:LEU:114    0
Name: 13, dtype: object

>  <hbond:LEU:114>  (14) 
hbond:LEU:114    0
hbond:LEU:114    0
Name: 13, dtype: object

>  <hydroph_interaction:ILE:123>  (14) 
hydroph_interaction:ILE:123    0
hydroph_interaction:ILE:123    0
Name: 13, dtype: object

>  <hbond:ILE:123>  (14) 
hbond:ILE:123    0
hbond:ILE:123    0
Name: 13, dtype: object

>  <hydroph_interaction:VAL:124>  (14) 
hydroph_interaction:VAL:124    1
hydroph_interaction:VAL:124    1
Name: 13, dtype: object

>  <hbond:VAL:124>  (14) 
hbond:VAL:124    0
hbond:VAL:124    0
Name: 13, dtype: object

>  <halogenbond:VAL:124>  (14) 
halogenbond:VAL:124    0
halogenbond:VAL:124    0
Name: 13, dtype: object

>  <hbond:SER:125>  (14) 
hbond:SER:125    0
hbond:SER:125    0
Name: 13, dtype: object

>  <halogenbond:SER:125>  (14) 
halogenbond:SER:125    0
halogenbond:SER:125    0
Name: 13, dtype: object

>  <hydroph_interaction:THR:126>  (14) 
hydroph_interaction:THR:126    0
hydroph_interaction:THR:126    0
Name: 13, dtype: object

>  <hbond:THR:126>  (14) 
hbond:THR:126    0
hbond:THR:126    0
Name: 13, dtype: object

>  <halogenbond:THR:126>  (14) 
halogenbond:THR:126    0
halogenbond:THR:126    0
Name: 13, dtype: object

>  <hbond:GLY:127>  (14) 
hbond:GLY:127    0
hbond:GLY:127    0
Name: 13, dtype: object

>  <halogenbond:GLY:127>  (14) 
halogenbond:GLY:127    0
halogenbond:GLY:127    0
Name: 13, dtype: object

>  <hydroph_interaction:GLY:127>  (14) 
hydroph_interaction:GLY:127    0
hydroph_interaction:GLY:127    0
Name: 13, dtype: object

>  <hbond:GLY:128>  (14) 
hbond:GLY:128    0
hbond:GLY:128    0
Name: 13, dtype: object

>  <halogenbond:GLY:128>  (14) 
halogenbond:GLY:128    0
halogenbond:GLY:128    0
Name: 13, dtype: object

>  <hydroph_interaction:GLY:128>  (14) 
hydroph_interaction:GLY:128    0
hydroph_interaction:GLY:128    0
Name: 13, dtype: object

>  <hbond:ASN:129>  (14) 
hbond:ASN:129    0
hbond:ASN:129    0
Name: 13, dtype: object

>  <hydroph_interaction:ASN:129>  (14) 
hydroph_interaction:ASN:129    0
hydroph_interaction:ASN:129    0
Name: 13, dtype: object

>  <halogenbond:ASN:129>  (14) 
halogenbond:ASN:129    0
halogenbond:ASN:129    0
Name: 13, dtype: object

>  <hbond:GLY:130>  (14) 
hbond:GLY:130    0
hbond:GLY:130    0
Name: 13, dtype: object

>  <hydroph_interaction:LEU:131>  (14) 
hydroph_interaction:LEU:131    0
hydroph_interaction:LEU:131    0
Name: 13, dtype: object

>  <hbond:LEU:131>  (14) 
hbond:LEU:131    0
hbond:LEU:131    0
Name: 13, dtype: object

>  <halogenbond:LEU:131>  (14) 
halogenbond:LEU:131    0
halogenbond:LEU:131    0
Name: 13, dtype: object

>  <hydroph_interaction:VAL:132>  (14) 
hydroph_interaction:VAL:132    0
hydroph_interaction:VAL:132    0
Name: 13, dtype: object

>  <hbond:VAL:132>  (14) 
hbond:VAL:132    0
hbond:VAL:132    0
Name: 13, dtype: object

>  <hbond:GLY:133>  (14) 
hbond:GLY:133    0
hbond:GLY:133    0
Name: 13, dtype: object

>  <halogenbond:GLY:133>  (14) 
halogenbond:GLY:133    0
halogenbond:GLY:133    0
Name: 13, dtype: object

>  <hydroph_interaction:PHE:134>  (14) 
hydroph_interaction:PHE:134    0
hydroph_interaction:PHE:134    0
Name: 13, dtype: object

>  <hbond:PHE:134>  (14) 
hbond:PHE:134    0
hbond:PHE:134    0
Name: 13, dtype: object

>  <pistack:PHE:134>  (14) 
pistack:PHE:134    0
pistack:PHE:134    0
Name: 13, dtype: object

>  <pication:PHE:134>  (14) 
pication:PHE:134    0
pication:PHE:134    0
Name: 13, dtype: object

>  <hydroph_interaction:ALA:135>  (14) 
hydroph_interaction:ALA:135    0
hydroph_interaction:ALA:135    0
Name: 13, dtype: object

>  <hbond:ALA:135>  (14) 
hbond:ALA:135    0
hbond:ALA:135    0
Name: 13, dtype: object

$$$$
Z4210739355
     RDKit          3D

 46 48  0  0  0  0  0  0  0  0999 V2000
   13.7700   14.8560   23.1920 C   0  0  0  0  0  0  0  0  0  0  0  0
   12.4750   14.9380   22.4930 C   0  0  0  0  0  0  0  0  0  0  0  0
   11.5110   14.3530   23.1630 N   0  0  0  0  0  0  0  0  0  0  0  0
   10.4520   14.5400   22.4070 N   0  0  0  0  0  0  0  0  0  0  0  0
    9.1970   14.0320   22.9080 C   0  0  0  0  0  0  0  0  0  0  0  0
    9.1430   12.5790   23.3550 C   0  0  0  0  0  0  0  0  0  0  0  0
    8.0900   12.2760   24.3890 C   0  0  0  0  0  0  0  0  0  0  0  0
    7.9580   10.9780   24.8150 C   0  0  0  0  0  0  0  0  0  0  0  0
    8.7960   10.0010   24.2790 C   0  0  0  0  0  0  0  0  0  0  0  0
    9.7820   10.2780   23.3350 C   0  0  0  0  0  0  0  0  0  0  0  0
    9.9610   11.5720   22.8730 C   0  0  0  0  0  0  0  0  0  0  0  0
   10.7080   15.2280   21.2350 C   0  0  0  0  0  0  0  0  0  0  0  0
    9.6630   15.5470   20.2370 C   0  0  0  0  0  0  0  0  0  0  0  0
   12.0480   15.5190   21.2580 C   0  0  0  0  0  0  0  0  0  0  0  0
   12.6600   16.2330   20.2250 N   0  0  0  0  0  0  0  0  0  0  0  0
   12.3570   16.3170   18.8540 C   0  0  0  0  0  0  0  0  0  0  0  0
   11.4330   15.8070   18.2450 O   0  0  0  0  0  0  0  0  0  0  0  0
   13.3480   17.1680   18.2100 C   0  0  0  0  0  0  0  0  0  0  0  0
   14.4240   17.5080   18.9250 C   0  0  0  0  0  0  0  0  0  0  0  0
   15.3610   18.3910   18.1950 C   0  0  1  0  0  0  0  0  0  0  0  0
   16.3720   17.6740   17.4920 O   0  0  0  0  0  0  0  0  0  0  0  0
   14.3940   19.0020   17.2010 C   0  0  1  0  0  0  0  0  0  0  0  0
   15.0440   19.5480   16.0300 N   0  0  0  0  0  0  0  0  0  0  0  0
   13.4280   17.8410   16.8690 C   0  0  0  0  0  0  0  0  0  0  0  0
   14.0940   13.8250   23.3230 H   0  0  0  0  0  0  0  0  0  0  0  0
   13.6730   15.2950   24.1890 H   0  0  0  0  0  0  0  0  0  0  0  0
   14.5030   15.4230   22.6390 H   0  0  0  0  0  0  0  0  0  0  0  0
    8.4420   14.1820   22.1270 H   0  0  0  0  0  0  0  0  0  0  0  0
    8.9190   14.6750   23.7450 H   0  0  0  0  0  0  0  0  0  0  0  0
    7.4390   13.0550   24.7870 H   0  0  0  0  0  0  0  0  0  0  0  0
    7.2090   10.7130   25.5560 H   0  0  0  0  0  0  0  0  0  0  0  0
    8.6780    8.9900   24.6100 H   0  0  0  0  0  0  0  0  0  0  0  0
   10.4110    9.4750   22.9590 H   0  0  0  0  0  0  0  0  0  0  0  0
   10.7290   11.7740   22.1380 H   0  0  0  0  0  0  0  0  0  0  0  0
    9.9430   15.1390   19.2630 H   0  0  0  0  0  0  0  0  0  0  0  0
    9.5070   16.6240   20.1260 H   0  0  0  0  0  0  0  0  0  0  0  0
    8.7000   15.1120   20.5140 H   0  0  0  0  0  0  0  0  0  0  0  0
   13.3400   16.8960   20.5560 H   0  0  0  0  0  0  0  0  0  0  0  0
   14.5480   17.1570   19.9290 H   0  0  0  0  0  0  0  0  0  0  0  0
   15.8060   19.1400   18.8570 H   0  0  0  0  0  0  0  0  0  0  0  0
   16.0950   16.7280   17.4290 H   0  0  0  0  0  0  0  0  0  0  0  0
   13.8710   19.7910   17.7230 H   0  0  0  0  0  0  0  0  0  0  0  0
   15.8670   18.9800   15.8350 H   0  0  0  0  0  0  0  0  0  0  0  0
   14.4220   19.3170   15.2380 H   0  0  0  0  0  0  0  0  0  0  0  0
   12.4670   18.1960   16.4920 H   0  0  0  0  0  0  0  0  0  0  0  0
   13.8760   17.2020   16.1190 H   0  0  0  0  0  0  0  0  0  0  0  0
  1  2  1  0
  2  3  2  0
  3  4  1  0
  4  5  1  0
  5  6  1  0
  6  7  2  0
  7  8  1  0
  8  9  2  0
  9 10  1  0
 10 11  2  0
  4 12  1  0
 12 13  1  0
 12 14  2  0
 14 15  1  0
 15 16  1  0
 16 17  2  0
 16 18  1  0
 18 19  2  0
 19 20  1  0
 20 21  1  0
 20 22  1  0
 22 23  1  0
 22 24  1  0
 14  2  1  0
 11  6  1  0
 24 18  1  0
  1 25  1  0
  1 26  1  0
  1 27  1  0
  5 28  1  0
  5 29  1  0
  7 30  1  0
  8 31  1  0
  9 32  1  0
 10 33  1  0
 11 34  1  0
 13 35  1  0
 13 36  1  0
 13 37  1  0
 15 38  1  0
 19 39  1  0
 20 40  1  1
 21 41  1  0
 22 42  1  1
 23 43  1  0
 23 44  1  0
 24 45  1  0
 24 46  1  0
A    1
 C1 
A    2
 C2 
A    3
 N1 
A    4
 N2 
A    5
 C3 
A    6
 C4 
A    7
 C5 
A    8
 C6 
A    9
 C7 
A   10
 C8 
A   11
 C9 
A   12
 C10
A   13
 C11
A   14
 C12
A   15
 N3 
A   16
 C13
A   17
 O1 
A   18
 C14
A   19
 C15
A   20
 C16
A   21
 O2 
A   22
 C17
A   23
 N4 
A   24
 C18
A   25
 H1 
A   26
 H2 
A   27
 H3 
A   28
 H4 
A   29
 H5 
A   30
 H6 
A   31
 H7 
A   32
 H8 
A   33
 H9 
A   34
 H10
A   35
 H11
A   36
 H12
A   37
 H13
A   38
 H14
A   39
 H15
A   40
 H16
A   41
 H17
A   42
 H18
A   43
 H19
A   44
 H20
A   45
 H21
A   46
 H22
M  END
>  <ref_pdb>  (15) 
x0310_0A

>  <ref_mols>  (15) 
x0365_0A,x0528_0A

>  <original SMILES>  (15) 
Cc1nn(Cc2ccccc2)c(C)c1NC(=O)C1=C[C@@H](O)[C@@H](N)C1

>  <rationale>  (15) 
info hbond:S36; hydroph_interaction:Y89+Y90+H21+V84+D39; 

>  <intxn_cluster>  (15) 
204

>  <intxn_cluster_rank>  (15) 
3

>  <N_interactions>  (15) 
8

>  <∆∆G>  (15) 
-8.536307

>  <$/mg>  (15) 
0.0

>  <comRMSD>  (15) 
0.757528

>  <N_rotatable_bonds>  (15) 
8

>  <N_analogues_07>  (15) 
0

>  <deep_P1_sidechain>  (15) 
False

>  <farthest_distance_to_substrate>  (15) 
4.203024

>  <hbond:SER:7>  (15) 
hbond:SER:7    0
hbond:SER:7    0
Name: 14, dtype: object

>  <halogenbond:SER:7>  (15) 
halogenbond:SER:7    0
halogenbond:SER:7    0
Name: 14, dtype: object

>  <hbond:GLY:8>  (15) 
hbond:GLY:8    0
hbond:GLY:8    0
Name: 14, dtype: object

>  <hydroph_interaction:ASN:19>  (15) 
hydroph_interaction:ASN:19    0
hydroph_interaction:ASN:19    0
Name: 14, dtype: object

>  <hbond:ASN:19>  (15) 
hbond:ASN:19    0
hbond:ASN:19    0
Name: 14, dtype: object

>  <halogenbond:ASN:19>  (15) 
halogenbond:ASN:19    0
halogenbond:ASN:19    0
Name: 14, dtype: object

>  <hbond:ARG:20>  (15) 
hbond:ARG:20    0
hbond:ARG:20    0
Name: 14, dtype: object

>  <hydroph_interaction:ARG:20>  (15) 
hydroph_interaction:ARG:20    0
hydroph_interaction:ARG:20    0
Name: 14, dtype: object

>  <saltbridge:ARG:20>  (15) 
saltbridge:ARG:20    0
saltbridge:ARG:20    0
Name: 14, dtype: object

>  <halogenbond:ARG:20>  (15) 
halogenbond:ARG:20    0
halogenbond:ARG:20    0
Name: 14, dtype: object

>  <pication:ARG:20>  (15) 
pication:ARG:20    0
pication:ARG:20    0
Name: 14, dtype: object

>  <hbond:HIS:21>  (15) 
hbond:HIS:21    0
hbond:HIS:21    0
Name: 14, dtype: object

>  <hydroph_interaction:HIS:21>  (15) 
hydroph_interaction:HIS:21    1
hydroph_interaction:HIS:21    1
Name: 14, dtype: object

>  <saltbridge:HIS:21>  (15) 
saltbridge:HIS:21    0
saltbridge:HIS:21    0
Name: 14, dtype: object

>  <pistack:HIS:21>  (15) 
pistack:HIS:21    0
pistack:HIS:21    0
Name: 14, dtype: object

>  <pication:HIS:21>  (15) 
pication:HIS:21    0
pication:HIS:21    0
Name: 14, dtype: object

>  <halogenbond:HIS:21>  (15) 
halogenbond:HIS:21    0
halogenbond:HIS:21    0
Name: 14, dtype: object

>  <hydroph_interaction:LEU:22>  (15) 
hydroph_interaction:LEU:22    0
hydroph_interaction:LEU:22    0
Name: 14, dtype: object

>  <hbond:LEU:22>  (15) 
hbond:LEU:22    0
hbond:LEU:22    0
Name: 14, dtype: object

>  <hydroph_interaction:TRP:28>  (15) 
hydroph_interaction:TRP:28    0
hydroph_interaction:TRP:28    0
Name: 14, dtype: object

>  <hbond:SER:36>  (15) 
hbond:SER:36    1
hbond:SER:36    1
Name: 14, dtype: object

>  <halogenbond:SER:36>  (15) 
halogenbond:SER:36    0
halogenbond:SER:36    0
Name: 14, dtype: object

>  <hbond:ARG:38>  (15) 
hbond:ARG:38    0
hbond:ARG:38    0
Name: 14, dtype: object

>  <halogenbond:ARG:38>  (15) 
halogenbond:ARG:38    0
halogenbond:ARG:38    0
Name: 14, dtype: object

>  <hbond:ASP:39>  (15) 
hbond:ASP:39    0
hbond:ASP:39    0
Name: 14, dtype: object

>  <saltbridge:ASP:39>  (15) 
saltbridge:ASP:39    0
saltbridge:ASP:39    0
Name: 14, dtype: object

>  <hydroph_interaction:ASP:39>  (15) 
hydroph_interaction:ASP:39    1
hydroph_interaction:ASP:39    1
Name: 14, dtype: object

>  <halogenbond:ASP:39>  (15) 
halogenbond:ASP:39    0
halogenbond:ASP:39    0
Name: 14, dtype: object

>  <hydroph_interaction:LEU:40>  (15) 
hydroph_interaction:LEU:40    0
hydroph_interaction:LEU:40    0
Name: 14, dtype: object

>  <hydroph_interaction:TYR:63>  (15) 
hydroph_interaction:TYR:63    0
hydroph_interaction:TYR:63    0
Name: 14, dtype: object

>  <pistack:TYR:63>  (15) 
pistack:TYR:63    0
pistack:TYR:63    0
Name: 14, dtype: object

>  <hbond:TYR:63>  (15) 
hbond:TYR:63    0
hbond:TYR:63    0
Name: 14, dtype: object

>  <hbond:TYR:64>  (15) 
hbond:TYR:64    0
hbond:TYR:64    0
Name: 14, dtype: object

>  <halogenbond:TYR:64>  (15) 
halogenbond:TYR:64    0
halogenbond:TYR:64    0
Name: 14, dtype: object

>  <hydroph_interaction:TYR:64>  (15) 
hydroph_interaction:TYR:64    0
hydroph_interaction:TYR:64    0
Name: 14, dtype: object

>  <hbond:CYS:65>  (15) 
hbond:CYS:65    0
hbond:CYS:65    0
Name: 14, dtype: object

>  <halogenbond:CYS:65>  (15) 
halogenbond:CYS:65    0
halogenbond:CYS:65    0
Name: 14, dtype: object

>  <hbond:SER:66>  (15) 
hbond:SER:66    0
hbond:SER:66    0
Name: 14, dtype: object

>  <hbond:SER:67>  (15) 
hbond:SER:67    0
hbond:SER:67    0
Name: 14, dtype: object

>  <halogenbond:SER:67>  (15) 
halogenbond:SER:67    0
halogenbond:SER:67    0
Name: 14, dtype: object

>  <hydroph_interaction:ARG:68>  (15) 
hydroph_interaction:ARG:68    0
hydroph_interaction:ARG:68    0
Name: 14, dtype: object

>  <hbond:ARG:68>  (15) 
hbond:ARG:68    0
hbond:ARG:68    0
Name: 14, dtype: object

>  <saltbridge:ARG:68>  (15) 
saltbridge:ARG:68    0
saltbridge:ARG:68    0
Name: 14, dtype: object

>  <pication:ARG:68>  (15) 
pication:ARG:68    0
pication:ARG:68    0
Name: 14, dtype: object

>  <hydroph_interaction:TYR:72>  (15) 
hydroph_interaction:TYR:72    0
hydroph_interaction:TYR:72    0
Name: 14, dtype: object

>  <hydroph_interaction:VAL:74>  (15) 
hydroph_interaction:VAL:74    0
hydroph_interaction:VAL:74    0
Name: 14, dtype: object

>  <hydroph_interaction:PHE:76>  (15) 
hydroph_interaction:PHE:76    0
hydroph_interaction:PHE:76    0
Name: 14, dtype: object

>  <hbond:SER:77>  (15) 
hbond:SER:77    0
hbond:SER:77    0
Name: 14, dtype: object

>  <hbond:SER:80>  (15) 
hbond:SER:80    0
hbond:SER:80    0
Name: 14, dtype: object

>  <hbond:LEU:81>  (15) 
hbond:LEU:81    0
hbond:LEU:81    0
Name: 14, dtype: object

>  <halogenbond:LEU:81>  (15) 
halogenbond:LEU:81    0
halogenbond:LEU:81    0
Name: 14, dtype: object

>  <hydroph_interaction:LEU:81>  (15) 
hydroph_interaction:LEU:81    0
hydroph_interaction:LEU:81    0
Name: 14, dtype: object

>  <hydroph_interaction:ILE:82>  (15) 
hydroph_interaction:ILE:82    0
hydroph_interaction:ILE:82    0
Name: 14, dtype: object

>  <hbond:ILE:82>  (15) 
hbond:ILE:82    0
hbond:ILE:82    0
Name: 14, dtype: object

>  <hydroph_interaction:PHE:83>  (15) 
hydroph_interaction:PHE:83    0
hydroph_interaction:PHE:83    0
Name: 14, dtype: object

>  <hbond:PHE:83>  (15) 
hbond:PHE:83    0
hbond:PHE:83    0
Name: 14, dtype: object

>  <halogenbond:PHE:83>  (15) 
halogenbond:PHE:83    0
halogenbond:PHE:83    0
Name: 14, dtype: object

>  <pistack:PHE:83>  (15) 
pistack:PHE:83    0
pistack:PHE:83    0
Name: 14, dtype: object

>  <hydroph_interaction:VAL:84>  (15) 
hydroph_interaction:VAL:84    1
hydroph_interaction:VAL:84    1
Name: 14, dtype: object

>  <hbond:VAL:84>  (15) 
hbond:VAL:84    0
hbond:VAL:84    0
Name: 14, dtype: object

>  <halogenbond:VAL:84>  (15) 
halogenbond:VAL:84    0
halogenbond:VAL:84    0
Name: 14, dtype: object

>  <hydroph_interaction:GLU:85>  (15) 
hydroph_interaction:GLU:85    0
hydroph_interaction:GLU:85    0
Name: 14, dtype: object

>  <hbond:GLU:85>  (15) 
hbond:GLU:85    0
hbond:GLU:85    0
Name: 14, dtype: object

>  <saltbridge:GLU:85>  (15) 
saltbridge:GLU:85    0
saltbridge:GLU:85    0
Name: 14, dtype: object

>  <halogenbond:GLU:85>  (15) 
halogenbond:GLU:85    0
halogenbond:GLU:85    0
Name: 14, dtype: object

>  <hbond:ALA:86>  (15) 
hbond:ALA:86    0
hbond:ALA:86    0
Name: 14, dtype: object

>  <halogenbond:ALA:86>  (15) 
halogenbond:ALA:86    0
halogenbond:ALA:86    0
Name: 14, dtype: object

>  <hydroph_interaction:ALA:86>  (15) 
hydroph_interaction:ALA:86    0
hydroph_interaction:ALA:86    0
Name: 14, dtype: object

>  <hbond:SER:87>  (15) 
hbond:SER:87    0
hbond:SER:87    0
Name: 14, dtype: object

>  <halogenbond:SER:87>  (15) 
halogenbond:SER:87    0
halogenbond:SER:87    0
Name: 14, dtype: object

>  <hbond:GLU:88>  (15) 
hbond:GLU:88    0
hbond:GLU:88    0
Name: 14, dtype: object

>  <hydroph_interaction:GLU:88>  (15) 
hydroph_interaction:GLU:88    0
hydroph_interaction:GLU:88    0
Name: 14, dtype: object

>  <halogenbond:GLU:88>  (15) 
halogenbond:GLU:88    0
halogenbond:GLU:88    0
Name: 14, dtype: object

>  <saltbridge:GLU:88>  (15) 
saltbridge:GLU:88    0
saltbridge:GLU:88    0
Name: 14, dtype: object

>  <hydroph_interaction:TYR:89>  (15) 
hydroph_interaction:TYR:89    2
hydroph_interaction:TYR:89    2
Name: 14, dtype: object

>  <pistack:TYR:89>  (15) 
pistack:TYR:89    0
pistack:TYR:89    0
Name: 14, dtype: object

>  <hbond:TYR:89>  (15) 
hbond:TYR:89    0
hbond:TYR:89    0
Name: 14, dtype: object

>  <halogenbond:TYR:89>  (15) 
halogenbond:TYR:89    0
halogenbond:TYR:89    0
Name: 14, dtype: object

>  <hbond:TYR:90>  (15) 
hbond:TYR:90    0
hbond:TYR:90    0
Name: 14, dtype: object

>  <hydroph_interaction:TYR:90>  (15) 
hydroph_interaction:TYR:90    2
hydroph_interaction:TYR:90    2
Name: 14, dtype: object

>  <pistack:TYR:90>  (15) 
pistack:TYR:90    0
pistack:TYR:90    0
Name: 14, dtype: object

>  <halogenbond:TYR:90>  (15) 
halogenbond:TYR:90    0
halogenbond:TYR:90    0
Name: 14, dtype: object

>  <pication:TYR:90>  (15) 
pication:TYR:90    0
pication:TYR:90    0
Name: 14, dtype: object

>  <hydroph_interaction:PRO:91>  (15) 
hydroph_interaction:PRO:91    0
hydroph_interaction:PRO:91    0
Name: 14, dtype: object

>  <halogenbond:PRO:91>  (15) 
halogenbond:PRO:91    0
halogenbond:PRO:91    0
Name: 14, dtype: object

>  <hbond:PRO:91>  (15) 
hbond:PRO:91    0
hbond:PRO:91    0
Name: 14, dtype: object

>  <hydroph_interaction:ALA:92>  (15) 
hydroph_interaction:ALA:92    0
hydroph_interaction:ALA:92    0
Name: 14, dtype: object

>  <hbond:ARG:93>  (15) 
hbond:ARG:93    0
hbond:ARG:93    0
Name: 14, dtype: object

>  <pication:ARG:93>  (15) 
pication:ARG:93    0
pication:ARG:93    0
Name: 14, dtype: object

>  <saltbridge:ARG:93>  (15) 
saltbridge:ARG:93    0
saltbridge:ARG:93    0
Name: 14, dtype: object

>  <hydroph_interaction:ARG:93>  (15) 
hydroph_interaction:ARG:93    0
hydroph_interaction:ARG:93    0
Name: 14, dtype: object

>  <halogenbond:ARG:93>  (15) 
halogenbond:ARG:93    0
halogenbond:ARG:93    0
Name: 14, dtype: object

>  <hydroph_interaction:TYR:94>  (15) 
hydroph_interaction:TYR:94    0
hydroph_interaction:TYR:94    0
Name: 14, dtype: object

>  <hbond:TYR:94>  (15) 
hbond:TYR:94    0
hbond:TYR:94    0
Name: 14, dtype: object

>  <halogenbond:GLN:95>  (15) 
halogenbond:GLN:95    0
halogenbond:GLN:95    0
Name: 14, dtype: object

>  <hbond:GLN:95>  (15) 
hbond:GLN:95    0
hbond:GLN:95    0
Name: 14, dtype: object

>  <hydroph_interaction:GLN:95>  (15) 
hydroph_interaction:GLN:95    0
hydroph_interaction:GLN:95    0
Name: 14, dtype: object

>  <hbond:SER:96>  (15) 
hbond:SER:96    0
hbond:SER:96    0
Name: 14, dtype: object

>  <hydroph_interaction:LEU:98>  (15) 
hydroph_interaction:LEU:98    0
hydroph_interaction:LEU:98    0
Name: 14, dtype: object

>  <hbond:LEU:98>  (15) 
hbond:LEU:98    0
hbond:LEU:98    0
Name: 14, dtype: object

>  <hbond:MET:99>  (15) 
hbond:MET:99    0
hbond:MET:99    0
Name: 14, dtype: object

>  <hydroph_interaction:MET:99>  (15) 
hydroph_interaction:MET:99    0
hydroph_interaction:MET:99    0
Name: 14, dtype: object

>  <halogenbond:MET:99>  (15) 
halogenbond:MET:99    0
halogenbond:MET:99    0
Name: 14, dtype: object

>  <hydroph_interaction:LEU:100>  (15) 
hydroph_interaction:LEU:100    0
hydroph_interaction:LEU:100    0
Name: 14, dtype: object

>  <hbond:LEU:100>  (15) 
hbond:LEU:100    0
hbond:LEU:100    0
Name: 14, dtype: object

>  <hbond:ALA:101>  (15) 
hbond:ALA:101    0
hbond:ALA:101    0
Name: 14, dtype: object

>  <hydroph_interaction:ALA:101>  (15) 
hydroph_interaction:ALA:101    0
hydroph_interaction:ALA:101    0
Name: 14, dtype: object

>  <hydroph_interaction:VAL:102>  (15) 
hydroph_interaction:VAL:102    0
hydroph_interaction:VAL:102    0
Name: 14, dtype: object

>  <hbond:VAL:102>  (15) 
hbond:VAL:102    0
hbond:VAL:102    0
Name: 14, dtype: object

>  <hbond:GLY:103>  (15) 
hbond:GLY:103    0
hbond:GLY:103    0
Name: 14, dtype: object

>  <halogenbond:GLY:103>  (15) 
halogenbond:GLY:103    0
halogenbond:GLY:103    0
Name: 14, dtype: object

>  <hydroph_interaction:HIS:104>  (15) 
hydroph_interaction:HIS:104    0
hydroph_interaction:HIS:104    0
Name: 14, dtype: object

>  <hbond:HIS:104>  (15) 
hbond:HIS:104    0
hbond:HIS:104    0
Name: 14, dtype: object

>  <saltbridge:HIS:104>  (15) 
saltbridge:HIS:104    0
saltbridge:HIS:104    0
Name: 14, dtype: object

>  <pication:HIS:104>  (15) 
pication:HIS:104    0
pication:HIS:104    0
Name: 14, dtype: object

>  <pistack:HIS:104>  (15) 
pistack:HIS:104    0
pistack:HIS:104    0
Name: 14, dtype: object

>  <halogenbond:HIS:104>  (15) 
halogenbond:HIS:104    0
halogenbond:HIS:104    0
Name: 14, dtype: object

>  <hbond:SER:105>  (15) 
hbond:SER:105    0
hbond:SER:105    0
Name: 14, dtype: object

>  <halogenbond:SER:105>  (15) 
halogenbond:SER:105    0
halogenbond:SER:105    0
Name: 14, dtype: object

>  <hbond:GLU:106>  (15) 
hbond:GLU:106    0
hbond:GLU:106    0
Name: 14, dtype: object

>  <hydroph_interaction:GLU:106>  (15) 
hydroph_interaction:GLU:106    0
hydroph_interaction:GLU:106    0
Name: 14, dtype: object

>  <saltbridge:GLU:106>  (15) 
saltbridge:GLU:106    0
saltbridge:GLU:106    0
Name: 14, dtype: object

>  <halogenbond:GLU:106>  (15) 
halogenbond:GLU:106    0
halogenbond:GLU:106    0
Name: 14, dtype: object

>  <hydroph_interaction:PRO:107>  (15) 
hydroph_interaction:PRO:107    0
hydroph_interaction:PRO:107    0
Name: 14, dtype: object

>  <hbond:PRO:107>  (15) 
hbond:PRO:107    0
hbond:PRO:107    0
Name: 14, dtype: object

>  <halogenbond:PRO:107>  (15) 
halogenbond:PRO:107    0
halogenbond:PRO:107    0
Name: 14, dtype: object

>  <hbond:GLY:108>  (15) 
hbond:GLY:108    0
hbond:GLY:108    0
Name: 14, dtype: object

>  <halogenbond:GLY:108>  (15) 
halogenbond:GLY:108    0
halogenbond:GLY:108    0
Name: 14, dtype: object

>  <hbond:ASP:109>  (15) 
hbond:ASP:109    0
hbond:ASP:109    0
Name: 14, dtype: object

>  <hydroph_interaction:ASP:109>  (15) 
hydroph_interaction:ASP:109    0
hydroph_interaction:ASP:109    0
Name: 14, dtype: object

>  <saltbridge:ASP:109>  (15) 
saltbridge:ASP:109    0
saltbridge:ASP:109    0
Name: 14, dtype: object

>  <hbond:CYS:110>  (15) 
hbond:CYS:110    0
hbond:CYS:110    0
Name: 14, dtype: object

>  <halogenbond:CYS:110>  (15) 
halogenbond:CYS:110    0
halogenbond:CYS:110    0
Name: 14, dtype: object

>  <hbond:GLY:111>  (15) 
hbond:GLY:111    0
hbond:GLY:111    0
Name: 14, dtype: object

>  <hbond:GLY:112>  (15) 
hbond:GLY:112    0
hbond:GLY:112    0
Name: 14, dtype: object

>  <hbond:ILE:113>  (15) 
hbond:ILE:113    0
hbond:ILE:113    0
Name: 14, dtype: object

>  <hydroph_interaction:LEU:114>  (15) 
hydroph_interaction:LEU:114    0
hydroph_interaction:LEU:114    0
Name: 14, dtype: object

>  <hbond:LEU:114>  (15) 
hbond:LEU:114    0
hbond:LEU:114    0
Name: 14, dtype: object

>  <hydroph_interaction:ILE:123>  (15) 
hydroph_interaction:ILE:123    0
hydroph_interaction:ILE:123    0
Name: 14, dtype: object

>  <hbond:ILE:123>  (15) 
hbond:ILE:123    0
hbond:ILE:123    0
Name: 14, dtype: object

>  <hydroph_interaction:VAL:124>  (15) 
hydroph_interaction:VAL:124    0
hydroph_interaction:VAL:124    0
Name: 14, dtype: object

>  <hbond:VAL:124>  (15) 
hbond:VAL:124    0
hbond:VAL:124    0
Name: 14, dtype: object

>  <halogenbond:VAL:124>  (15) 
halogenbond:VAL:124    0
halogenbond:VAL:124    0
Name: 14, dtype: object

>  <hbond:SER:125>  (15) 
hbond:SER:125    0
hbond:SER:125    0
Name: 14, dtype: object

>  <halogenbond:SER:125>  (15) 
halogenbond:SER:125    0
halogenbond:SER:125    0
Name: 14, dtype: object

>  <hydroph_interaction:THR:126>  (15) 
hydroph_interaction:THR:126    0
hydroph_interaction:THR:126    0
Name: 14, dtype: object

>  <hbond:THR:126>  (15) 
hbond:THR:126    0
hbond:THR:126    0
Name: 14, dtype: object

>  <halogenbond:THR:126>  (15) 
halogenbond:THR:126    0
halogenbond:THR:126    0
Name: 14, dtype: object

>  <hbond:GLY:127>  (15) 
hbond:GLY:127    0
hbond:GLY:127    0
Name: 14, dtype: object

>  <halogenbond:GLY:127>  (15) 
halogenbond:GLY:127    0
halogenbond:GLY:127    0
Name: 14, dtype: object

>  <hydroph_interaction:GLY:127>  (15) 
hydroph_interaction:GLY:127    0
hydroph_interaction:GLY:127    0
Name: 14, dtype: object

>  <hbond:GLY:128>  (15) 
hbond:GLY:128    0
hbond:GLY:128    0
Name: 14, dtype: object

>  <halogenbond:GLY:128>  (15) 
halogenbond:GLY:128    0
halogenbond:GLY:128    0
Name: 14, dtype: object

>  <hydroph_interaction:GLY:128>  (15) 
hydroph_interaction:GLY:128    0
hydroph_interaction:GLY:128    0
Name: 14, dtype: object

>  <hbond:ASN:129>  (15) 
hbond:ASN:129    0
hbond:ASN:129    0
Name: 14, dtype: object

>  <hydroph_interaction:ASN:129>  (15) 
hydroph_interaction:ASN:129    0
hydroph_interaction:ASN:129    0
Name: 14, dtype: object

>  <halogenbond:ASN:129>  (15) 
halogenbond:ASN:129    0
halogenbond:ASN:129    0
Name: 14, dtype: object

>  <hbond:GLY:130>  (15) 
hbond:GLY:130    0
hbond:GLY:130    0
Name: 14, dtype: object

>  <hydroph_interaction:LEU:131>  (15) 
hydroph_interaction:LEU:131    0
hydroph_interaction:LEU:131    0
Name: 14, dtype: object

>  <hbond:LEU:131>  (15) 
hbond:LEU:131    0
hbond:LEU:131    0
Name: 14, dtype: object

>  <halogenbond:LEU:131>  (15) 
halogenbond:LEU:131    0
halogenbond:LEU:131    0
Name: 14, dtype: object

>  <hydroph_interaction:VAL:132>  (15) 
hydroph_interaction:VAL:132    0
hydroph_interaction:VAL:132    0
Name: 14, dtype: object

>  <hbond:VAL:132>  (15) 
hbond:VAL:132    0
hbond:VAL:132    0
Name: 14, dtype: object

>  <hbond:GLY:133>  (15) 
hbond:GLY:133    0
hbond:GLY:133    0
Name: 14, dtype: object

>  <halogenbond:GLY:133>  (15) 
halogenbond:GLY:133    0
halogenbond:GLY:133    0
Name: 14, dtype: object

>  <hydroph_interaction:PHE:134>  (15) 
hydroph_interaction:PHE:134    0
hydroph_interaction:PHE:134    0
Name: 14, dtype: object

>  <hbond:PHE:134>  (15) 
hbond:PHE:134    0
hbond:PHE:134    0
Name: 14, dtype: object

>  <pistack:PHE:134>  (15) 
pistack:PHE:134    0
pistack:PHE:134    0
Name: 14, dtype: object

>  <pication:PHE:134>  (15) 
pication:PHE:134    0
pication:PHE:134    0
Name: 14, dtype: object

>  <hydroph_interaction:ALA:135>  (15) 
hydroph_interaction:ALA:135    0
hydroph_interaction:ALA:135    0
Name: 14, dtype: object

>  <hbond:ALA:135>  (15) 
hbond:ALA:135    0
hbond:ALA:135    0
Name: 14, dtype: object

$$$$
Z1208232162
     RDKit          3D

 35 35  0  0  0  0  0  0  0  0999 V2000
    7.0070   11.4260   25.6290 C   0  0  0  0  0  0  0  0  0  0  0  0
    8.1120   11.3080   24.6170 C   0  0  0  0  0  0  0  0  0  0  0  0
    8.6480    9.9880   24.1960 C   0  0  0  0  0  0  0  0  0  0  0  0
    9.6520    9.8970   23.2620 C   0  0  0  0  0  0  0  0  0  0  0  0
   10.2100    8.7410   22.7980 C   0  0  0  0  0  0  0  0  0  0  0  0
   10.1480   11.0480   22.7300 C   0  0  0  0  0  0  0  0  0  0  0  0
    9.7100   12.3040   23.0650 C   0  0  0  0  0  0  0  0  0  0  0  0
   10.3010   13.3310   22.4490 N   0  0  0  0  0  0  0  0  0  0  0  0
   11.2420   14.1200   23.2330 C   0  0  0  0  0  0  0  0  0  0  0  0
   12.2640   14.8290   22.3640 C   0  0  0  0  0  0  0  0  0  0  0  0
   12.1140   16.2440   21.9480 C   0  0  0  0  0  0  0  0  0  0  0  0
   12.4890   14.0970   21.0420 C   0  0  0  0  0  0  0  0  0  0  0  0
   13.5500   14.7490   23.1450 C   0  0  0  0  0  0  0  0  0  0  0  0
    8.6840   12.4350   24.0170 C   0  0  0  0  0  0  0  0  0  0  0  0
    6.1830   12.0050   25.2030 H   0  0  0  0  0  0  0  0  0  0  0  0
    7.3790   11.9450   26.5120 H   0  0  0  0  0  0  0  0  0  0  0  0
    6.6230   10.4410   25.9050 H   0  0  0  0  0  0  0  0  0  0  0  0
    8.1890    9.1270   24.6710 H   0  0  0  0  0  0  0  0  0  0  0  0
    9.5460    8.3040   22.0460 H   0  0  0  0  0  0  0  0  0  0  0  0
   10.4810    7.9640   23.4890 H   0  0  0  0  0  0  0  0  0  0  0  0
   11.1160    9.0110   22.2660 H   0  0  0  0  0  0  0  0  0  0  0  0
   10.9320   10.9560   21.9990 H   0  0  0  0  0  0  0  0  0  0  0  0
   10.7080   13.0030   21.5590 H   0  0  0  0  0  0  0  0  0  0  0  0
   10.6720   14.7270   23.9270 H   0  0  0  0  0  0  0  0  0  0  0  0
   11.8070   13.4090   23.8470 H   0  0  0  0  0  0  0  0  0  0  0  0
   12.0470   17.0090   22.7090 H   0  0  0  0  0  0  0  0  0  0  0  0
   11.2230   16.3310   21.3180 H   0  0  0  0  0  0  0  0  0  0  0  0
   12.9650   16.4850   21.3100 H   0  0  0  0  0  0  0  0  0  0  0  0
   13.2150   14.5240   20.3560 H   0  0  0  0  0  0  0  0  0  0  0  0
   12.8080   13.0610   21.1100 H   0  0  0  0  0  0  0  0  0  0  0  0
   11.5450   14.1110   20.4920 H   0  0  0  0  0  0  0  0  0  0  0  0
   13.4520   15.1990   24.1410 H   0  0  0  0  0  0  0  0  0  0  0  0
   13.8640   13.7210   23.2810 H   0  0  0  0  0  0  0  0  0  0  0  0
   14.3230   15.2850   22.6030 H   0  0  0  0  0  0  0  0  0  0  0  0
    8.3170   13.4170   24.3010 H   0  0  0  0  0  0  0  0  0  0  0  0
  1  2  1  0
  2  3  2  0
  3  4  1  0
  4  5  1  0
  4  6  2  0
  6  7  1  0
  7  8  1  0
  8  9  1  0
  9 10  1  0
 10 11  1  0
 10 12  1  0
 10 13  1  0
  7 14  2  0
 14  2  1  0
  1 15  1  0
  1 16  1  0
  1 17  1  0
  3 18  1  0
  5 19  1  0
  5 20  1  0
  5 21  1  0
  6 22  1  0
  8 23  1  0
  9 24  1  0
  9 25  1  0
 11 26  1  0
 11 27  1  0
 11 28  1  0
 12 29  1  0
 12 30  1  0
 12 31  1  0
 13 32  1  0
 13 33  1  0
 13 34  1  0
 14 35  1  0
A    1
 C1 
A    2
 C2 
A    3
 C3 
A    4
 C4 
A    5
 C5 
A    6
 C6 
A    7
 C7 
A    8
 N1 
A    9
 C8 
A   10
 C9 
A   11
 C10
A   12
 C11
A   13
 C12
A   14
 C13
A   15
 H1 
A   16
 H2 
A   17
 H3 
A   18
 H4 
A   19
 H5 
A   20
 H6 
A   21
 H7 
A   22
 H8 
A   23
 H9 
A   24
 H10
A   25
 H11
A   26
 H12
A   27
 H13
A   28
 H14
A   29
 H15
A   30
 H16
A   31
 H17
A   32
 H18
A   33
 H19
A   34
 H20
A   35
 H21
M  END
>  <ref_pdb>  (16) 
x0310_0A

>  <ref_mols>  (16) 
x0554_0A,x0739_0A

>  <original SMILES>  (16) 
Cc1cc(C)cc(NCC(C)(C)C)c1

>  <rationale>  (16) 
info hbond:S125+S87; hydroph_interaction:V124+Y89+Y90; 

>  <intxn_cluster>  (16) 
107

>  <intxn_cluster_rank>  (16) 
3

>  <N_interactions>  (16) 
6

>  <∆∆G>  (16) 
-14.697596

>  <$/mg>  (16) 
163.0

>  <comRMSD>  (16) 
0.778491

>  <N_rotatable_bonds>  (16) 
4

>  <N_analogues_07>  (16) 
0

>  <deep_P1_sidechain>  (16) 
True

>  <farthest_distance_to_substrate>  (16) 
2.363393

>  <hbond:SER:7>  (16) 
hbond:SER:7    0
hbond:SER:7    0
Name: 15, dtype: object

>  <halogenbond:SER:7>  (16) 
halogenbond:SER:7    0
halogenbond:SER:7    0
Name: 15, dtype: object

>  <hbond:GLY:8>  (16) 
hbond:GLY:8    0
hbond:GLY:8    0
Name: 15, dtype: object

>  <hydroph_interaction:ASN:19>  (16) 
hydroph_interaction:ASN:19    0
hydroph_interaction:ASN:19    0
Name: 15, dtype: object

>  <hbond:ASN:19>  (16) 
hbond:ASN:19    0
hbond:ASN:19    0
Name: 15, dtype: object

>  <halogenbond:ASN:19>  (16) 
halogenbond:ASN:19    0
halogenbond:ASN:19    0
Name: 15, dtype: object

>  <hbond:ARG:20>  (16) 
hbond:ARG:20    0
hbond:ARG:20    0
Name: 15, dtype: object

>  <hydroph_interaction:ARG:20>  (16) 
hydroph_interaction:ARG:20    0
hydroph_interaction:ARG:20    0
Name: 15, dtype: object

>  <saltbridge:ARG:20>  (16) 
saltbridge:ARG:20    0
saltbridge:ARG:20    0
Name: 15, dtype: object

>  <halogenbond:ARG:20>  (16) 
halogenbond:ARG:20    0
halogenbond:ARG:20    0
Name: 15, dtype: object

>  <pication:ARG:20>  (16) 
pication:ARG:20    0
pication:ARG:20    0
Name: 15, dtype: object

>  <hbond:HIS:21>  (16) 
hbond:HIS:21    0
hbond:HIS:21    0
Name: 15, dtype: object

>  <hydroph_interaction:HIS:21>  (16) 
hydroph_interaction:HIS:21    0
hydroph_interaction:HIS:21    0
Name: 15, dtype: object

>  <saltbridge:HIS:21>  (16) 
saltbridge:HIS:21    0
saltbridge:HIS:21    0
Name: 15, dtype: object

>  <pistack:HIS:21>  (16) 
pistack:HIS:21    0
pistack:HIS:21    0
Name: 15, dtype: object

>  <pication:HIS:21>  (16) 
pication:HIS:21    0
pication:HIS:21    0
Name: 15, dtype: object

>  <halogenbond:HIS:21>  (16) 
halogenbond:HIS:21    0
halogenbond:HIS:21    0
Name: 15, dtype: object

>  <hydroph_interaction:LEU:22>  (16) 
hydroph_interaction:LEU:22    0
hydroph_interaction:LEU:22    0
Name: 15, dtype: object

>  <hbond:LEU:22>  (16) 
hbond:LEU:22    0
hbond:LEU:22    0
Name: 15, dtype: object

>  <hydroph_interaction:TRP:28>  (16) 
hydroph_interaction:TRP:28    0
hydroph_interaction:TRP:28    0
Name: 15, dtype: object

>  <hbond:SER:36>  (16) 
hbond:SER:36    0
hbond:SER:36    0
Name: 15, dtype: object

>  <halogenbond:SER:36>  (16) 
halogenbond:SER:36    0
halogenbond:SER:36    0
Name: 15, dtype: object

>  <hbond:ARG:38>  (16) 
hbond:ARG:38    0
hbond:ARG:38    0
Name: 15, dtype: object

>  <halogenbond:ARG:38>  (16) 
halogenbond:ARG:38    0
halogenbond:ARG:38    0
Name: 15, dtype: object

>  <hbond:ASP:39>  (16) 
hbond:ASP:39    0
hbond:ASP:39    0
Name: 15, dtype: object

>  <saltbridge:ASP:39>  (16) 
saltbridge:ASP:39    0
saltbridge:ASP:39    0
Name: 15, dtype: object

>  <hydroph_interaction:ASP:39>  (16) 
hydroph_interaction:ASP:39    0
hydroph_interaction:ASP:39    0
Name: 15, dtype: object

>  <halogenbond:ASP:39>  (16) 
halogenbond:ASP:39    0
halogenbond:ASP:39    0
Name: 15, dtype: object

>  <hydroph_interaction:LEU:40>  (16) 
hydroph_interaction:LEU:40    0
hydroph_interaction:LEU:40    0
Name: 15, dtype: object

>  <hydroph_interaction:TYR:63>  (16) 
hydroph_interaction:TYR:63    0
hydroph_interaction:TYR:63    0
Name: 15, dtype: object

>  <pistack:TYR:63>  (16) 
pistack:TYR:63    0
pistack:TYR:63    0
Name: 15, dtype: object

>  <hbond:TYR:63>  (16) 
hbond:TYR:63    0
hbond:TYR:63    0
Name: 15, dtype: object

>  <hbond:TYR:64>  (16) 
hbond:TYR:64    0
hbond:TYR:64    0
Name: 15, dtype: object

>  <halogenbond:TYR:64>  (16) 
halogenbond:TYR:64    0
halogenbond:TYR:64    0
Name: 15, dtype: object

>  <hydroph_interaction:TYR:64>  (16) 
hydroph_interaction:TYR:64    0
hydroph_interaction:TYR:64    0
Name: 15, dtype: object

>  <hbond:CYS:65>  (16) 
hbond:CYS:65    0
hbond:CYS:65    0
Name: 15, dtype: object

>  <halogenbond:CYS:65>  (16) 
halogenbond:CYS:65    0
halogenbond:CYS:65    0
Name: 15, dtype: object

>  <hbond:SER:66>  (16) 
hbond:SER:66    0
hbond:SER:66    0
Name: 15, dtype: object

>  <hbond:SER:67>  (16) 
hbond:SER:67    0
hbond:SER:67    0
Name: 15, dtype: object

>  <halogenbond:SER:67>  (16) 
halogenbond:SER:67    0
halogenbond:SER:67    0
Name: 15, dtype: object

>  <hydroph_interaction:ARG:68>  (16) 
hydroph_interaction:ARG:68    0
hydroph_interaction:ARG:68    0
Name: 15, dtype: object

>  <hbond:ARG:68>  (16) 
hbond:ARG:68    0
hbond:ARG:68    0
Name: 15, dtype: object

>  <saltbridge:ARG:68>  (16) 
saltbridge:ARG:68    0
saltbridge:ARG:68    0
Name: 15, dtype: object

>  <pication:ARG:68>  (16) 
pication:ARG:68    0
pication:ARG:68    0
Name: 15, dtype: object

>  <hydroph_interaction:TYR:72>  (16) 
hydroph_interaction:TYR:72    0
hydroph_interaction:TYR:72    0
Name: 15, dtype: object

>  <hydroph_interaction:VAL:74>  (16) 
hydroph_interaction:VAL:74    0
hydroph_interaction:VAL:74    0
Name: 15, dtype: object

>  <hydroph_interaction:PHE:76>  (16) 
hydroph_interaction:PHE:76    0
hydroph_interaction:PHE:76    0
Name: 15, dtype: object

>  <hbond:SER:77>  (16) 
hbond:SER:77    0
hbond:SER:77    0
Name: 15, dtype: object

>  <hbond:SER:80>  (16) 
hbond:SER:80    0
hbond:SER:80    0
Name: 15, dtype: object

>  <hbond:LEU:81>  (16) 
hbond:LEU:81    0
hbond:LEU:81    0
Name: 15, dtype: object

>  <halogenbond:LEU:81>  (16) 
halogenbond:LEU:81    0
halogenbond:LEU:81    0
Name: 15, dtype: object

>  <hydroph_interaction:LEU:81>  (16) 
hydroph_interaction:LEU:81    0
hydroph_interaction:LEU:81    0
Name: 15, dtype: object

>  <hydroph_interaction:ILE:82>  (16) 
hydroph_interaction:ILE:82    0
hydroph_interaction:ILE:82    0
Name: 15, dtype: object

>  <hbond:ILE:82>  (16) 
hbond:ILE:82    0
hbond:ILE:82    0
Name: 15, dtype: object

>  <hydroph_interaction:PHE:83>  (16) 
hydroph_interaction:PHE:83    0
hydroph_interaction:PHE:83    0
Name: 15, dtype: object

>  <hbond:PHE:83>  (16) 
hbond:PHE:83    0
hbond:PHE:83    0
Name: 15, dtype: object

>  <halogenbond:PHE:83>  (16) 
halogenbond:PHE:83    0
halogenbond:PHE:83    0
Name: 15, dtype: object

>  <pistack:PHE:83>  (16) 
pistack:PHE:83    0
pistack:PHE:83    0
Name: 15, dtype: object

>  <hydroph_interaction:VAL:84>  (16) 
hydroph_interaction:VAL:84    0
hydroph_interaction:VAL:84    0
Name: 15, dtype: object

>  <hbond:VAL:84>  (16) 
hbond:VAL:84    0
hbond:VAL:84    0
Name: 15, dtype: object

>  <halogenbond:VAL:84>  (16) 
halogenbond:VAL:84    0
halogenbond:VAL:84    0
Name: 15, dtype: object

>  <hydroph_interaction:GLU:85>  (16) 
hydroph_interaction:GLU:85    0
hydroph_interaction:GLU:85    0
Name: 15, dtype: object

>  <hbond:GLU:85>  (16) 
hbond:GLU:85    0
hbond:GLU:85    0
Name: 15, dtype: object

>  <saltbridge:GLU:85>  (16) 
saltbridge:GLU:85    0
saltbridge:GLU:85    0
Name: 15, dtype: object

>  <halogenbond:GLU:85>  (16) 
halogenbond:GLU:85    0
halogenbond:GLU:85    0
Name: 15, dtype: object

>  <hbond:ALA:86>  (16) 
hbond:ALA:86    0
hbond:ALA:86    0
Name: 15, dtype: object

>  <halogenbond:ALA:86>  (16) 
halogenbond:ALA:86    0
halogenbond:ALA:86    0
Name: 15, dtype: object

>  <hydroph_interaction:ALA:86>  (16) 
hydroph_interaction:ALA:86    0
hydroph_interaction:ALA:86    0
Name: 15, dtype: object

>  <hbond:SER:87>  (16) 
hbond:SER:87    1
hbond:SER:87    1
Name: 15, dtype: object

>  <halogenbond:SER:87>  (16) 
halogenbond:SER:87    0
halogenbond:SER:87    0
Name: 15, dtype: object

>  <hbond:GLU:88>  (16) 
hbond:GLU:88    0
hbond:GLU:88    0
Name: 15, dtype: object

>  <hydroph_interaction:GLU:88>  (16) 
hydroph_interaction:GLU:88    0
hydroph_interaction:GLU:88    0
Name: 15, dtype: object

>  <halogenbond:GLU:88>  (16) 
halogenbond:GLU:88    0
halogenbond:GLU:88    0
Name: 15, dtype: object

>  <saltbridge:GLU:88>  (16) 
saltbridge:GLU:88    0
saltbridge:GLU:88    0
Name: 15, dtype: object

>  <hydroph_interaction:TYR:89>  (16) 
hydroph_interaction:TYR:89    2
hydroph_interaction:TYR:89    2
Name: 15, dtype: object

>  <pistack:TYR:89>  (16) 
pistack:TYR:89    0
pistack:TYR:89    0
Name: 15, dtype: object

>  <hbond:TYR:89>  (16) 
hbond:TYR:89    0
hbond:TYR:89    0
Name: 15, dtype: object

>  <halogenbond:TYR:89>  (16) 
halogenbond:TYR:89    0
halogenbond:TYR:89    0
Name: 15, dtype: object

>  <hbond:TYR:90>  (16) 
hbond:TYR:90    0
hbond:TYR:90    0
Name: 15, dtype: object

>  <hydroph_interaction:TYR:90>  (16) 
hydroph_interaction:TYR:90    1
hydroph_interaction:TYR:90    1
Name: 15, dtype: object

>  <pistack:TYR:90>  (16) 
pistack:TYR:90    0
pistack:TYR:90    0
Name: 15, dtype: object

>  <halogenbond:TYR:90>  (16) 
halogenbond:TYR:90    0
halogenbond:TYR:90    0
Name: 15, dtype: object

>  <pication:TYR:90>  (16) 
pication:TYR:90    0
pication:TYR:90    0
Name: 15, dtype: object

>  <hydroph_interaction:PRO:91>  (16) 
hydroph_interaction:PRO:91    0
hydroph_interaction:PRO:91    0
Name: 15, dtype: object

>  <halogenbond:PRO:91>  (16) 
halogenbond:PRO:91    0
halogenbond:PRO:91    0
Name: 15, dtype: object

>  <hbond:PRO:91>  (16) 
hbond:PRO:91    0
hbond:PRO:91    0
Name: 15, dtype: object

>  <hydroph_interaction:ALA:92>  (16) 
hydroph_interaction:ALA:92    0
hydroph_interaction:ALA:92    0
Name: 15, dtype: object

>  <hbond:ARG:93>  (16) 
hbond:ARG:93    0
hbond:ARG:93    0
Name: 15, dtype: object

>  <pication:ARG:93>  (16) 
pication:ARG:93    0
pication:ARG:93    0
Name: 15, dtype: object

>  <saltbridge:ARG:93>  (16) 
saltbridge:ARG:93    0
saltbridge:ARG:93    0
Name: 15, dtype: object

>  <hydroph_interaction:ARG:93>  (16) 
hydroph_interaction:ARG:93    0
hydroph_interaction:ARG:93    0
Name: 15, dtype: object

>  <halogenbond:ARG:93>  (16) 
halogenbond:ARG:93    0
halogenbond:ARG:93    0
Name: 15, dtype: object

>  <hydroph_interaction:TYR:94>  (16) 
hydroph_interaction:TYR:94    0
hydroph_interaction:TYR:94    0
Name: 15, dtype: object

>  <hbond:TYR:94>  (16) 
hbond:TYR:94    0
hbond:TYR:94    0
Name: 15, dtype: object

>  <halogenbond:GLN:95>  (16) 
halogenbond:GLN:95    0
halogenbond:GLN:95    0
Name: 15, dtype: object

>  <hbond:GLN:95>  (16) 
hbond:GLN:95    0
hbond:GLN:95    0
Name: 15, dtype: object

>  <hydroph_interaction:GLN:95>  (16) 
hydroph_interaction:GLN:95    0
hydroph_interaction:GLN:95    0
Name: 15, dtype: object

>  <hbond:SER:96>  (16) 
hbond:SER:96    0
hbond:SER:96    0
Name: 15, dtype: object

>  <hydroph_interaction:LEU:98>  (16) 
hydroph_interaction:LEU:98    0
hydroph_interaction:LEU:98    0
Name: 15, dtype: object

>  <hbond:LEU:98>  (16) 
hbond:LEU:98    0
hbond:LEU:98    0
Name: 15, dtype: object

>  <hbond:MET:99>  (16) 
hbond:MET:99    0
hbond:MET:99    0
Name: 15, dtype: object

>  <hydroph_interaction:MET:99>  (16) 
hydroph_interaction:MET:99    0
hydroph_interaction:MET:99    0
Name: 15, dtype: object

>  <halogenbond:MET:99>  (16) 
halogenbond:MET:99    0
halogenbond:MET:99    0
Name: 15, dtype: object

>  <hydroph_interaction:LEU:100>  (16) 
hydroph_interaction:LEU:100    0
hydroph_interaction:LEU:100    0
Name: 15, dtype: object

>  <hbond:LEU:100>  (16) 
hbond:LEU:100    0
hbond:LEU:100    0
Name: 15, dtype: object

>  <hbond:ALA:101>  (16) 
hbond:ALA:101    0
hbond:ALA:101    0
Name: 15, dtype: object

>  <hydroph_interaction:ALA:101>  (16) 
hydroph_interaction:ALA:101    0
hydroph_interaction:ALA:101    0
Name: 15, dtype: object

>  <hydroph_interaction:VAL:102>  (16) 
hydroph_interaction:VAL:102    0
hydroph_interaction:VAL:102    0
Name: 15, dtype: object

>  <hbond:VAL:102>  (16) 
hbond:VAL:102    0
hbond:VAL:102    0
Name: 15, dtype: object

>  <hbond:GLY:103>  (16) 
hbond:GLY:103    0
hbond:GLY:103    0
Name: 15, dtype: object

>  <halogenbond:GLY:103>  (16) 
halogenbond:GLY:103    0
halogenbond:GLY:103    0
Name: 15, dtype: object

>  <hydroph_interaction:HIS:104>  (16) 
hydroph_interaction:HIS:104    0
hydroph_interaction:HIS:104    0
Name: 15, dtype: object

>  <hbond:HIS:104>  (16) 
hbond:HIS:104    0
hbond:HIS:104    0
Name: 15, dtype: object

>  <saltbridge:HIS:104>  (16) 
saltbridge:HIS:104    0
saltbridge:HIS:104    0
Name: 15, dtype: object

>  <pication:HIS:104>  (16) 
pication:HIS:104    0
pication:HIS:104    0
Name: 15, dtype: object

>  <pistack:HIS:104>  (16) 
pistack:HIS:104    0
pistack:HIS:104    0
Name: 15, dtype: object

>  <halogenbond:HIS:104>  (16) 
halogenbond:HIS:104    0
halogenbond:HIS:104    0
Name: 15, dtype: object

>  <hbond:SER:105>  (16) 
hbond:SER:105    0
hbond:SER:105    0
Name: 15, dtype: object

>  <halogenbond:SER:105>  (16) 
halogenbond:SER:105    0
halogenbond:SER:105    0
Name: 15, dtype: object

>  <hbond:GLU:106>  (16) 
hbond:GLU:106    0
hbond:GLU:106    0
Name: 15, dtype: object

>  <hydroph_interaction:GLU:106>  (16) 
hydroph_interaction:GLU:106    0
hydroph_interaction:GLU:106    0
Name: 15, dtype: object

>  <saltbridge:GLU:106>  (16) 
saltbridge:GLU:106    0
saltbridge:GLU:106    0
Name: 15, dtype: object

>  <halogenbond:GLU:106>  (16) 
halogenbond:GLU:106    0
halogenbond:GLU:106    0
Name: 15, dtype: object

>  <hydroph_interaction:PRO:107>  (16) 
hydroph_interaction:PRO:107    0
hydroph_interaction:PRO:107    0
Name: 15, dtype: object

>  <hbond:PRO:107>  (16) 
hbond:PRO:107    0
hbond:PRO:107    0
Name: 15, dtype: object

>  <halogenbond:PRO:107>  (16) 
halogenbond:PRO:107    0
halogenbond:PRO:107    0
Name: 15, dtype: object

>  <hbond:GLY:108>  (16) 
hbond:GLY:108    0
hbond:GLY:108    0
Name: 15, dtype: object

>  <halogenbond:GLY:108>  (16) 
halogenbond:GLY:108    0
halogenbond:GLY:108    0
Name: 15, dtype: object

>  <hbond:ASP:109>  (16) 
hbond:ASP:109    0
hbond:ASP:109    0
Name: 15, dtype: object

>  <hydroph_interaction:ASP:109>  (16) 
hydroph_interaction:ASP:109    0
hydroph_interaction:ASP:109    0
Name: 15, dtype: object

>  <saltbridge:ASP:109>  (16) 
saltbridge:ASP:109    0
saltbridge:ASP:109    0
Name: 15, dtype: object

>  <hbond:CYS:110>  (16) 
hbond:CYS:110    0
hbond:CYS:110    0
Name: 15, dtype: object

>  <halogenbond:CYS:110>  (16) 
halogenbond:CYS:110    0
halogenbond:CYS:110    0
Name: 15, dtype: object

>  <hbond:GLY:111>  (16) 
hbond:GLY:111    0
hbond:GLY:111    0
Name: 15, dtype: object

>  <hbond:GLY:112>  (16) 
hbond:GLY:112    0
hbond:GLY:112    0
Name: 15, dtype: object

>  <hbond:ILE:113>  (16) 
hbond:ILE:113    0
hbond:ILE:113    0
Name: 15, dtype: object

>  <hydroph_interaction:LEU:114>  (16) 
hydroph_interaction:LEU:114    0
hydroph_interaction:LEU:114    0
Name: 15, dtype: object

>  <hbond:LEU:114>  (16) 
hbond:LEU:114    0
hbond:LEU:114    0
Name: 15, dtype: object

>  <hydroph_interaction:ILE:123>  (16) 
hydroph_interaction:ILE:123    0
hydroph_interaction:ILE:123    0
Name: 15, dtype: object

>  <hbond:ILE:123>  (16) 
hbond:ILE:123    0
hbond:ILE:123    0
Name: 15, dtype: object

>  <hydroph_interaction:VAL:124>  (16) 
hydroph_interaction:VAL:124    1
hydroph_interaction:VAL:124    1
Name: 15, dtype: object

>  <hbond:VAL:124>  (16) 
hbond:VAL:124    0
hbond:VAL:124    0
Name: 15, dtype: object

>  <halogenbond:VAL:124>  (16) 
halogenbond:VAL:124    0
halogenbond:VAL:124    0
Name: 15, dtype: object

>  <hbond:SER:125>  (16) 
hbond:SER:125    1
hbond:SER:125    1
Name: 15, dtype: object

>  <halogenbond:SER:125>  (16) 
halogenbond:SER:125    0
halogenbond:SER:125    0
Name: 15, dtype: object

>  <hydroph_interaction:THR:126>  (16) 
hydroph_interaction:THR:126    0
hydroph_interaction:THR:126    0
Name: 15, dtype: object

>  <hbond:THR:126>  (16) 
hbond:THR:126    0
hbond:THR:126    0
Name: 15, dtype: object

>  <halogenbond:THR:126>  (16) 
halogenbond:THR:126    0
halogenbond:THR:126    0
Name: 15, dtype: object

>  <hbond:GLY:127>  (16) 
hbond:GLY:127    0
hbond:GLY:127    0
Name: 15, dtype: object

>  <halogenbond:GLY:127>  (16) 
halogenbond:GLY:127    0
halogenbond:GLY:127    0
Name: 15, dtype: object

>  <hydroph_interaction:GLY:127>  (16) 
hydroph_interaction:GLY:127    0
hydroph_interaction:GLY:127    0
Name: 15, dtype: object

>  <hbond:GLY:128>  (16) 
hbond:GLY:128    0
hbond:GLY:128    0
Name: 15, dtype: object

>  <halogenbond:GLY:128>  (16) 
halogenbond:GLY:128    0
halogenbond:GLY:128    0
Name: 15, dtype: object

>  <hydroph_interaction:GLY:128>  (16) 
hydroph_interaction:GLY:128    0
hydroph_interaction:GLY:128    0
Name: 15, dtype: object

>  <hbond:ASN:129>  (16) 
hbond:ASN:129    0
hbond:ASN:129    0
Name: 15, dtype: object

>  <hydroph_interaction:ASN:129>  (16) 
hydroph_interaction:ASN:129    0
hydroph_interaction:ASN:129    0
Name: 15, dtype: object

>  <halogenbond:ASN:129>  (16) 
halogenbond:ASN:129    0
halogenbond:ASN:129    0
Name: 15, dtype: object

>  <hbond:GLY:130>  (16) 
hbond:GLY:130    0
hbond:GLY:130    0
Name: 15, dtype: object

>  <hydroph_interaction:LEU:131>  (16) 
hydroph_interaction:LEU:131    0
hydroph_interaction:LEU:131    0
Name: 15, dtype: object

>  <hbond:LEU:131>  (16) 
hbond:LEU:131    0
hbond:LEU:131    0
Name: 15, dtype: object

>  <halogenbond:LEU:131>  (16) 
halogenbond:LEU:131    0
halogenbond:LEU:131    0
Name: 15, dtype: object

>  <hydroph_interaction:VAL:132>  (16) 
hydroph_interaction:VAL:132    0
hydroph_interaction:VAL:132    0
Name: 15, dtype: object

>  <hbond:VAL:132>  (16) 
hbond:VAL:132    0
hbond:VAL:132    0
Name: 15, dtype: object

>  <hbond:GLY:133>  (16) 
hbond:GLY:133    0
hbond:GLY:133    0
Name: 15, dtype: object

>  <halogenbond:GLY:133>  (16) 
halogenbond:GLY:133    0
halogenbond:GLY:133    0
Name: 15, dtype: object

>  <hydroph_interaction:PHE:134>  (16) 
hydroph_interaction:PHE:134    0
hydroph_interaction:PHE:134    0
Name: 15, dtype: object

>  <hbond:PHE:134>  (16) 
hbond:PHE:134    0
hbond:PHE:134    0
Name: 15, dtype: object

>  <pistack:PHE:134>  (16) 
pistack:PHE:134    0
pistack:PHE:134    0
Name: 15, dtype: object

>  <pication:PHE:134>  (16) 
pication:PHE:134    0
pication:PHE:134    0
Name: 15, dtype: object

>  <hydroph_interaction:ALA:135>  (16) 
hydroph_interaction:ALA:135    0
hydroph_interaction:ALA:135    0
Name: 15, dtype: object

>  <hbond:ALA:135>  (16) 
hbond:ALA:135    0
hbond:ALA:135    0
Name: 15, dtype: object

$$$$
Z1144629191
     RDKit          3D

 25 26  0  0  0  0  0  0  0  0999 V2000
   13.8190   17.0010   18.3220 C   0  0  0  0  0  0  0  0  0  0  0  0
   12.7800   15.9240   18.6100 C   0  0  0  0  0  0  0  0  0  0  0  0
   11.9760   15.5820   17.7570 O   0  0  0  0  0  0  0  0  0  0  0  0
   12.7220   15.3830   20.0270 C   0  0  0  0  0  0  0  0  0  0  0  0
   13.6740   15.8060   20.9910 C   0  0  0  0  0  0  0  0  0  0  0  0
   13.4130   15.1410   22.5250 S   0  0  0  0  0  0  0  0  0  0  0  0
   12.0600   14.2830   21.9870 C   0  0  0  0  0  0  0  0  0  0  0  0
   11.3570   13.4800   23.0040 C   0  0  0  0  0  0  0  0  0  0  0  0
   11.4510   13.7500   24.1930 O   0  0  0  0  0  0  0  0  0  0  0  0
   10.6020   12.4740   22.4820 N   0  0  0  0  0  0  0  0  0  0  0  0
    9.7760   11.6970   23.2300 C   0  0  0  0  0  0  0  0  0  0  0  0
    8.8850   12.1510   24.1110 N   0  0  0  0  0  0  0  0  0  0  0  0
    8.3040   11.0630   24.6070 N   0  0  0  0  0  0  0  0  0  0  0  0
    8.7940    9.9140   24.0700 C   0  0  0  0  0  0  0  0  0  0  0  0
    9.7670   10.2910   23.1600 C   0  0  0  0  0  0  0  0  0  0  0  0
   11.8090   14.4910   20.6390 C   0  0  0  0  0  0  0  0  0  0  0  0
   13.6440   17.4610   17.3440 H   0  0  0  0  0  0  0  0  0  0  0  0
   14.8290   16.5980   18.3320 H   0  0  0  0  0  0  0  0  0  0  0  0
   13.7720   17.7690   19.1010 H   0  0  0  0  0  0  0  0  0  0  0  0
   14.4870   16.4810   20.8200 H   0  0  0  0  0  0  0  0  0  0  0  0
   10.7550   12.1930   21.5240 H   0  0  0  0  0  0  0  0  0  0  0  0
    7.5800   11.1800   25.3090 H   0  0  0  0  0  0  0  0  0  0  0  0
    8.4190    8.9560   24.3710 H   0  0  0  0  0  0  0  0  0  0  0  0
   10.3700    9.6380   22.5440 H   0  0  0  0  0  0  0  0  0  0  0  0
   10.9860   14.0400   20.1100 H   0  0  0  0  0  0  0  0  0  0  0  0
  1  2  1  0
  2  3  2  0
  2  4  1  0
  4  5  2  0
  5  6  1  0
  6  7  1  0
  7  8  1  0
  8  9  2  0
  8 10  1  0
 10 11  1  0
 11 12  2  0
 12 13  1  0
 13 14  1  0
 14 15  2  0
  7 16  2  0
 16  4  1  0
 15 11  1  0
  1 17  1  0
  1 18  1  0
  1 19  1  0
  5 20  1  0
 10 21  1  0
 13 22  1  0
 14 23  1  0
 15 24  1  0
 16 25  1  0
A    1
 C1 
A    2
 C2 
A    3
 O1 
A    4
 C3 
A    5
 C4 
A    6
 S1 
A    7
 C5 
A    8
 C6 
A    9
 O2 
A   10
 N1 
A   11
 C7 
A   12
 N2 
A   13
 N3 
A   14
 C8 
A   15
 C9 
A   16
 C10
A   17
 H1 
A   18
 H2 
A   19
 H3 
A   20
 H4 
A   21
 H5 
A   22
 H6 
A   23
 H7 
A   24
 H8 
A   25
 H9 
M  END
>  <ref_pdb>  (17) 
x0310_0A

>  <ref_mols>  (17) 
x0554_0A,x0732_0A

>  <original SMILES>  (17) 
CC(=O)c1csc(C(=O)Nc2cc[nH]n2)c1

>  <rationale>  (17) 
info hbond:S125+G127+S87+R93+Q95; hydroph_interaction:Y90+D39; pistack:H21; 

>  <intxn_cluster>  (17) 
206

>  <intxn_cluster_rank>  (17) 
3

>  <N_interactions>  (17) 
8

>  <∆∆G>  (17) 
-7.579757

>  <$/mg>  (17) 
163.0

>  <comRMSD>  (17) 
0.651949

>  <N_rotatable_bonds>  (17) 
4

>  <N_analogues_07>  (17) 
0

>  <deep_P1_sidechain>  (17) 
False

>  <farthest_distance_to_substrate>  (17) 
2.266155

>  <hbond:SER:7>  (17) 
hbond:SER:7    0
hbond:SER:7    0
Name: 16, dtype: object

>  <halogenbond:SER:7>  (17) 
halogenbond:SER:7    0
halogenbond:SER:7    0
Name: 16, dtype: object

>  <hbond:GLY:8>  (17) 
hbond:GLY:8    0
hbond:GLY:8    0
Name: 16, dtype: object

>  <hydroph_interaction:ASN:19>  (17) 
hydroph_interaction:ASN:19    0
hydroph_interaction:ASN:19    0
Name: 16, dtype: object

>  <hbond:ASN:19>  (17) 
hbond:ASN:19    0
hbond:ASN:19    0
Name: 16, dtype: object

>  <halogenbond:ASN:19>  (17) 
halogenbond:ASN:19    0
halogenbond:ASN:19    0
Name: 16, dtype: object

>  <hbond:ARG:20>  (17) 
hbond:ARG:20    0
hbond:ARG:20    0
Name: 16, dtype: object

>  <hydroph_interaction:ARG:20>  (17) 
hydroph_interaction:ARG:20    0
hydroph_interaction:ARG:20    0
Name: 16, dtype: object

>  <saltbridge:ARG:20>  (17) 
saltbridge:ARG:20    0
saltbridge:ARG:20    0
Name: 16, dtype: object

>  <halogenbond:ARG:20>  (17) 
halogenbond:ARG:20    0
halogenbond:ARG:20    0
Name: 16, dtype: object

>  <pication:ARG:20>  (17) 
pication:ARG:20    0
pication:ARG:20    0
Name: 16, dtype: object

>  <hbond:HIS:21>  (17) 
hbond:HIS:21    0
hbond:HIS:21    0
Name: 16, dtype: object

>  <hydroph_interaction:HIS:21>  (17) 
hydroph_interaction:HIS:21    0
hydroph_interaction:HIS:21    0
Name: 16, dtype: object

>  <saltbridge:HIS:21>  (17) 
saltbridge:HIS:21    0
saltbridge:HIS:21    0
Name: 16, dtype: object

>  <pistack:HIS:21>  (17) 
pistack:HIS:21    1
pistack:HIS:21    1
Name: 16, dtype: object

>  <pication:HIS:21>  (17) 
pication:HIS:21    0
pication:HIS:21    0
Name: 16, dtype: object

>  <halogenbond:HIS:21>  (17) 
halogenbond:HIS:21    0
halogenbond:HIS:21    0
Name: 16, dtype: object

>  <hydroph_interaction:LEU:22>  (17) 
hydroph_interaction:LEU:22    0
hydroph_interaction:LEU:22    0
Name: 16, dtype: object

>  <hbond:LEU:22>  (17) 
hbond:LEU:22    0
hbond:LEU:22    0
Name: 16, dtype: object

>  <hydroph_interaction:TRP:28>  (17) 
hydroph_interaction:TRP:28    0
hydroph_interaction:TRP:28    0
Name: 16, dtype: object

>  <hbond:SER:36>  (17) 
hbond:SER:36    0
hbond:SER:36    0
Name: 16, dtype: object

>  <halogenbond:SER:36>  (17) 
halogenbond:SER:36    0
halogenbond:SER:36    0
Name: 16, dtype: object

>  <hbond:ARG:38>  (17) 
hbond:ARG:38    0
hbond:ARG:38    0
Name: 16, dtype: object

>  <halogenbond:ARG:38>  (17) 
halogenbond:ARG:38    0
halogenbond:ARG:38    0
Name: 16, dtype: object

>  <hbond:ASP:39>  (17) 
hbond:ASP:39    0
hbond:ASP:39    0
Name: 16, dtype: object

>  <saltbridge:ASP:39>  (17) 
saltbridge:ASP:39    0
saltbridge:ASP:39    0
Name: 16, dtype: object

>  <hydroph_interaction:ASP:39>  (17) 
hydroph_interaction:ASP:39    1
hydroph_interaction:ASP:39    1
Name: 16, dtype: object

>  <halogenbond:ASP:39>  (17) 
halogenbond:ASP:39    0
halogenbond:ASP:39    0
Name: 16, dtype: object

>  <hydroph_interaction:LEU:40>  (17) 
hydroph_interaction:LEU:40    0
hydroph_interaction:LEU:40    0
Name: 16, dtype: object

>  <hydroph_interaction:TYR:63>  (17) 
hydroph_interaction:TYR:63    0
hydroph_interaction:TYR:63    0
Name: 16, dtype: object

>  <pistack:TYR:63>  (17) 
pistack:TYR:63    0
pistack:TYR:63    0
Name: 16, dtype: object

>  <hbond:TYR:63>  (17) 
hbond:TYR:63    0
hbond:TYR:63    0
Name: 16, dtype: object

>  <hbond:TYR:64>  (17) 
hbond:TYR:64    0
hbond:TYR:64    0
Name: 16, dtype: object

>  <halogenbond:TYR:64>  (17) 
halogenbond:TYR:64    0
halogenbond:TYR:64    0
Name: 16, dtype: object

>  <hydroph_interaction:TYR:64>  (17) 
hydroph_interaction:TYR:64    0
hydroph_interaction:TYR:64    0
Name: 16, dtype: object

>  <hbond:CYS:65>  (17) 
hbond:CYS:65    0
hbond:CYS:65    0
Name: 16, dtype: object

>  <halogenbond:CYS:65>  (17) 
halogenbond:CYS:65    0
halogenbond:CYS:65    0
Name: 16, dtype: object

>  <hbond:SER:66>  (17) 
hbond:SER:66    0
hbond:SER:66    0
Name: 16, dtype: object

>  <hbond:SER:67>  (17) 
hbond:SER:67    0
hbond:SER:67    0
Name: 16, dtype: object

>  <halogenbond:SER:67>  (17) 
halogenbond:SER:67    0
halogenbond:SER:67    0
Name: 16, dtype: object

>  <hydroph_interaction:ARG:68>  (17) 
hydroph_interaction:ARG:68    0
hydroph_interaction:ARG:68    0
Name: 16, dtype: object

>  <hbond:ARG:68>  (17) 
hbond:ARG:68    0
hbond:ARG:68    0
Name: 16, dtype: object

>  <saltbridge:ARG:68>  (17) 
saltbridge:ARG:68    0
saltbridge:ARG:68    0
Name: 16, dtype: object

>  <pication:ARG:68>  (17) 
pication:ARG:68    0
pication:ARG:68    0
Name: 16, dtype: object

>  <hydroph_interaction:TYR:72>  (17) 
hydroph_interaction:TYR:72    0
hydroph_interaction:TYR:72    0
Name: 16, dtype: object

>  <hydroph_interaction:VAL:74>  (17) 
hydroph_interaction:VAL:74    0
hydroph_interaction:VAL:74    0
Name: 16, dtype: object

>  <hydroph_interaction:PHE:76>  (17) 
hydroph_interaction:PHE:76    0
hydroph_interaction:PHE:76    0
Name: 16, dtype: object

>  <hbond:SER:77>  (17) 
hbond:SER:77    0
hbond:SER:77    0
Name: 16, dtype: object

>  <hbond:SER:80>  (17) 
hbond:SER:80    0
hbond:SER:80    0
Name: 16, dtype: object

>  <hbond:LEU:81>  (17) 
hbond:LEU:81    0
hbond:LEU:81    0
Name: 16, dtype: object

>  <halogenbond:LEU:81>  (17) 
halogenbond:LEU:81    0
halogenbond:LEU:81    0
Name: 16, dtype: object

>  <hydroph_interaction:LEU:81>  (17) 
hydroph_interaction:LEU:81    0
hydroph_interaction:LEU:81    0
Name: 16, dtype: object

>  <hydroph_interaction:ILE:82>  (17) 
hydroph_interaction:ILE:82    0
hydroph_interaction:ILE:82    0
Name: 16, dtype: object

>  <hbond:ILE:82>  (17) 
hbond:ILE:82    0
hbond:ILE:82    0
Name: 16, dtype: object

>  <hydroph_interaction:PHE:83>  (17) 
hydroph_interaction:PHE:83    0
hydroph_interaction:PHE:83    0
Name: 16, dtype: object

>  <hbond:PHE:83>  (17) 
hbond:PHE:83    0
hbond:PHE:83    0
Name: 16, dtype: object

>  <halogenbond:PHE:83>  (17) 
halogenbond:PHE:83    0
halogenbond:PHE:83    0
Name: 16, dtype: object

>  <pistack:PHE:83>  (17) 
pistack:PHE:83    0
pistack:PHE:83    0
Name: 16, dtype: object

>  <hydroph_interaction:VAL:84>  (17) 
hydroph_interaction:VAL:84    0
hydroph_interaction:VAL:84    0
Name: 16, dtype: object

>  <hbond:VAL:84>  (17) 
hbond:VAL:84    0
hbond:VAL:84    0
Name: 16, dtype: object

>  <halogenbond:VAL:84>  (17) 
halogenbond:VAL:84    0
halogenbond:VAL:84    0
Name: 16, dtype: object

>  <hydroph_interaction:GLU:85>  (17) 
hydroph_interaction:GLU:85    0
hydroph_interaction:GLU:85    0
Name: 16, dtype: object

>  <hbond:GLU:85>  (17) 
hbond:GLU:85    0
hbond:GLU:85    0
Name: 16, dtype: object

>  <saltbridge:GLU:85>  (17) 
saltbridge:GLU:85    0
saltbridge:GLU:85    0
Name: 16, dtype: object

>  <halogenbond:GLU:85>  (17) 
halogenbond:GLU:85    0
halogenbond:GLU:85    0
Name: 16, dtype: object

>  <hbond:ALA:86>  (17) 
hbond:ALA:86    0
hbond:ALA:86    0
Name: 16, dtype: object

>  <halogenbond:ALA:86>  (17) 
halogenbond:ALA:86    0
halogenbond:ALA:86    0
Name: 16, dtype: object

>  <hydroph_interaction:ALA:86>  (17) 
hydroph_interaction:ALA:86    0
hydroph_interaction:ALA:86    0
Name: 16, dtype: object

>  <hbond:SER:87>  (17) 
hbond:SER:87    1
hbond:SER:87    1
Name: 16, dtype: object

>  <halogenbond:SER:87>  (17) 
halogenbond:SER:87    0
halogenbond:SER:87    0
Name: 16, dtype: object

>  <hbond:GLU:88>  (17) 
hbond:GLU:88    0
hbond:GLU:88    0
Name: 16, dtype: object

>  <hydroph_interaction:GLU:88>  (17) 
hydroph_interaction:GLU:88    0
hydroph_interaction:GLU:88    0
Name: 16, dtype: object

>  <halogenbond:GLU:88>  (17) 
halogenbond:GLU:88    0
halogenbond:GLU:88    0
Name: 16, dtype: object

>  <saltbridge:GLU:88>  (17) 
saltbridge:GLU:88    0
saltbridge:GLU:88    0
Name: 16, dtype: object

>  <hydroph_interaction:TYR:89>  (17) 
hydroph_interaction:TYR:89    0
hydroph_interaction:TYR:89    0
Name: 16, dtype: object

>  <pistack:TYR:89>  (17) 
pistack:TYR:89    0
pistack:TYR:89    0
Name: 16, dtype: object

>  <hbond:TYR:89>  (17) 
hbond:TYR:89    0
hbond:TYR:89    0
Name: 16, dtype: object

>  <halogenbond:TYR:89>  (17) 
halogenbond:TYR:89    0
halogenbond:TYR:89    0
Name: 16, dtype: object

>  <hbond:TYR:90>  (17) 
hbond:TYR:90    0
hbond:TYR:90    0
Name: 16, dtype: object

>  <hydroph_interaction:TYR:90>  (17) 
hydroph_interaction:TYR:90    1
hydroph_interaction:TYR:90    1
Name: 16, dtype: object

>  <pistack:TYR:90>  (17) 
pistack:TYR:90    0
pistack:TYR:90    0
Name: 16, dtype: object

>  <halogenbond:TYR:90>  (17) 
halogenbond:TYR:90    0
halogenbond:TYR:90    0
Name: 16, dtype: object

>  <pication:TYR:90>  (17) 
pication:TYR:90    0
pication:TYR:90    0
Name: 16, dtype: object

>  <hydroph_interaction:PRO:91>  (17) 
hydroph_interaction:PRO:91    0
hydroph_interaction:PRO:91    0
Name: 16, dtype: object

>  <halogenbond:PRO:91>  (17) 
halogenbond:PRO:91    0
halogenbond:PRO:91    0
Name: 16, dtype: object

>  <hbond:PRO:91>  (17) 
hbond:PRO:91    0
hbond:PRO:91    0
Name: 16, dtype: object

>  <hydroph_interaction:ALA:92>  (17) 
hydroph_interaction:ALA:92    0
hydroph_interaction:ALA:92    0
Name: 16, dtype: object

>  <hbond:ARG:93>  (17) 
hbond:ARG:93    1
hbond:ARG:93    1
Name: 16, dtype: object

>  <pication:ARG:93>  (17) 
pication:ARG:93    0
pication:ARG:93    0
Name: 16, dtype: object

>  <saltbridge:ARG:93>  (17) 
saltbridge:ARG:93    0
saltbridge:ARG:93    0
Name: 16, dtype: object

>  <hydroph_interaction:ARG:93>  (17) 
hydroph_interaction:ARG:93    0
hydroph_interaction:ARG:93    0
Name: 16, dtype: object

>  <halogenbond:ARG:93>  (17) 
halogenbond:ARG:93    0
halogenbond:ARG:93    0
Name: 16, dtype: object

>  <hydroph_interaction:TYR:94>  (17) 
hydroph_interaction:TYR:94    0
hydroph_interaction:TYR:94    0
Name: 16, dtype: object

>  <hbond:TYR:94>  (17) 
hbond:TYR:94    0
hbond:TYR:94    0
Name: 16, dtype: object

>  <halogenbond:GLN:95>  (17) 
halogenbond:GLN:95    0
halogenbond:GLN:95    0
Name: 16, dtype: object

>  <hbond:GLN:95>  (17) 
hbond:GLN:95    1
hbond:GLN:95    1
Name: 16, dtype: object

>  <hydroph_interaction:GLN:95>  (17) 
hydroph_interaction:GLN:95    0
hydroph_interaction:GLN:95    0
Name: 16, dtype: object

>  <hbond:SER:96>  (17) 
hbond:SER:96    0
hbond:SER:96    0
Name: 16, dtype: object

>  <hydroph_interaction:LEU:98>  (17) 
hydroph_interaction:LEU:98    0
hydroph_interaction:LEU:98    0
Name: 16, dtype: object

>  <hbond:LEU:98>  (17) 
hbond:LEU:98    0
hbond:LEU:98    0
Name: 16, dtype: object

>  <hbond:MET:99>  (17) 
hbond:MET:99    0
hbond:MET:99    0
Name: 16, dtype: object

>  <hydroph_interaction:MET:99>  (17) 
hydroph_interaction:MET:99    0
hydroph_interaction:MET:99    0
Name: 16, dtype: object

>  <halogenbond:MET:99>  (17) 
halogenbond:MET:99    0
halogenbond:MET:99    0
Name: 16, dtype: object

>  <hydroph_interaction:LEU:100>  (17) 
hydroph_interaction:LEU:100    0
hydroph_interaction:LEU:100    0
Name: 16, dtype: object

>  <hbond:LEU:100>  (17) 
hbond:LEU:100    0
hbond:LEU:100    0
Name: 16, dtype: object

>  <hbond:ALA:101>  (17) 
hbond:ALA:101    0
hbond:ALA:101    0
Name: 16, dtype: object

>  <hydroph_interaction:ALA:101>  (17) 
hydroph_interaction:ALA:101    0
hydroph_interaction:ALA:101    0
Name: 16, dtype: object

>  <hydroph_interaction:VAL:102>  (17) 
hydroph_interaction:VAL:102    0
hydroph_interaction:VAL:102    0
Name: 16, dtype: object

>  <hbond:VAL:102>  (17) 
hbond:VAL:102    0
hbond:VAL:102    0
Name: 16, dtype: object

>  <hbond:GLY:103>  (17) 
hbond:GLY:103    0
hbond:GLY:103    0
Name: 16, dtype: object

>  <halogenbond:GLY:103>  (17) 
halogenbond:GLY:103    0
halogenbond:GLY:103    0
Name: 16, dtype: object

>  <hydroph_interaction:HIS:104>  (17) 
hydroph_interaction:HIS:104    0
hydroph_interaction:HIS:104    0
Name: 16, dtype: object

>  <hbond:HIS:104>  (17) 
hbond:HIS:104    0
hbond:HIS:104    0
Name: 16, dtype: object

>  <saltbridge:HIS:104>  (17) 
saltbridge:HIS:104    0
saltbridge:HIS:104    0
Name: 16, dtype: object

>  <pication:HIS:104>  (17) 
pication:HIS:104    0
pication:HIS:104    0
Name: 16, dtype: object

>  <pistack:HIS:104>  (17) 
pistack:HIS:104    0
pistack:HIS:104    0
Name: 16, dtype: object

>  <halogenbond:HIS:104>  (17) 
halogenbond:HIS:104    0
halogenbond:HIS:104    0
Name: 16, dtype: object

>  <hbond:SER:105>  (17) 
hbond:SER:105    0
hbond:SER:105    0
Name: 16, dtype: object

>  <halogenbond:SER:105>  (17) 
halogenbond:SER:105    0
halogenbond:SER:105    0
Name: 16, dtype: object

>  <hbond:GLU:106>  (17) 
hbond:GLU:106    0
hbond:GLU:106    0
Name: 16, dtype: object

>  <hydroph_interaction:GLU:106>  (17) 
hydroph_interaction:GLU:106    0
hydroph_interaction:GLU:106    0
Name: 16, dtype: object

>  <saltbridge:GLU:106>  (17) 
saltbridge:GLU:106    0
saltbridge:GLU:106    0
Name: 16, dtype: object

>  <halogenbond:GLU:106>  (17) 
halogenbond:GLU:106    0
halogenbond:GLU:106    0
Name: 16, dtype: object

>  <hydroph_interaction:PRO:107>  (17) 
hydroph_interaction:PRO:107    0
hydroph_interaction:PRO:107    0
Name: 16, dtype: object

>  <hbond:PRO:107>  (17) 
hbond:PRO:107    0
hbond:PRO:107    0
Name: 16, dtype: object

>  <halogenbond:PRO:107>  (17) 
halogenbond:PRO:107    0
halogenbond:PRO:107    0
Name: 16, dtype: object

>  <hbond:GLY:108>  (17) 
hbond:GLY:108    0
hbond:GLY:108    0
Name: 16, dtype: object

>  <halogenbond:GLY:108>  (17) 
halogenbond:GLY:108    0
halogenbond:GLY:108    0
Name: 16, dtype: object

>  <hbond:ASP:109>  (17) 
hbond:ASP:109    0
hbond:ASP:109    0
Name: 16, dtype: object

>  <hydroph_interaction:ASP:109>  (17) 
hydroph_interaction:ASP:109    0
hydroph_interaction:ASP:109    0
Name: 16, dtype: object

>  <saltbridge:ASP:109>  (17) 
saltbridge:ASP:109    0
saltbridge:ASP:109    0
Name: 16, dtype: object

>  <hbond:CYS:110>  (17) 
hbond:CYS:110    0
hbond:CYS:110    0
Name: 16, dtype: object

>  <halogenbond:CYS:110>  (17) 
halogenbond:CYS:110    0
halogenbond:CYS:110    0
Name: 16, dtype: object

>  <hbond:GLY:111>  (17) 
hbond:GLY:111    0
hbond:GLY:111    0
Name: 16, dtype: object

>  <hbond:GLY:112>  (17) 
hbond:GLY:112    0
hbond:GLY:112    0
Name: 16, dtype: object

>  <hbond:ILE:113>  (17) 
hbond:ILE:113    0
hbond:ILE:113    0
Name: 16, dtype: object

>  <hydroph_interaction:LEU:114>  (17) 
hydroph_interaction:LEU:114    0
hydroph_interaction:LEU:114    0
Name: 16, dtype: object

>  <hbond:LEU:114>  (17) 
hbond:LEU:114    0
hbond:LEU:114    0
Name: 16, dtype: object

>  <hydroph_interaction:ILE:123>  (17) 
hydroph_interaction:ILE:123    0
hydroph_interaction:ILE:123    0
Name: 16, dtype: object

>  <hbond:ILE:123>  (17) 
hbond:ILE:123    0
hbond:ILE:123    0
Name: 16, dtype: object

>  <hydroph_interaction:VAL:124>  (17) 
hydroph_interaction:VAL:124    0
hydroph_interaction:VAL:124    0
Name: 16, dtype: object

>  <hbond:VAL:124>  (17) 
hbond:VAL:124    0
hbond:VAL:124    0
Name: 16, dtype: object

>  <halogenbond:VAL:124>  (17) 
halogenbond:VAL:124    0
halogenbond:VAL:124    0
Name: 16, dtype: object

>  <hbond:SER:125>  (17) 
hbond:SER:125    1
hbond:SER:125    1
Name: 16, dtype: object

>  <halogenbond:SER:125>  (17) 
halogenbond:SER:125    0
halogenbond:SER:125    0
Name: 16, dtype: object

>  <hydroph_interaction:THR:126>  (17) 
hydroph_interaction:THR:126    0
hydroph_interaction:THR:126    0
Name: 16, dtype: object

>  <hbond:THR:126>  (17) 
hbond:THR:126    0
hbond:THR:126    0
Name: 16, dtype: object

>  <halogenbond:THR:126>  (17) 
halogenbond:THR:126    0
halogenbond:THR:126    0
Name: 16, dtype: object

>  <hbond:GLY:127>  (17) 
hbond:GLY:127    1
hbond:GLY:127    1
Name: 16, dtype: object

>  <halogenbond:GLY:127>  (17) 
halogenbond:GLY:127    0
halogenbond:GLY:127    0
Name: 16, dtype: object

>  <hydroph_interaction:GLY:127>  (17) 
hydroph_interaction:GLY:127    0
hydroph_interaction:GLY:127    0
Name: 16, dtype: object

>  <hbond:GLY:128>  (17) 
hbond:GLY:128    0
hbond:GLY:128    0
Name: 16, dtype: object

>  <halogenbond:GLY:128>  (17) 
halogenbond:GLY:128    0
halogenbond:GLY:128    0
Name: 16, dtype: object

>  <hydroph_interaction:GLY:128>  (17) 
hydroph_interaction:GLY:128    0
hydroph_interaction:GLY:128    0
Name: 16, dtype: object

>  <hbond:ASN:129>  (17) 
hbond:ASN:129    0
hbond:ASN:129    0
Name: 16, dtype: object

>  <hydroph_interaction:ASN:129>  (17) 
hydroph_interaction:ASN:129    0
hydroph_interaction:ASN:129    0
Name: 16, dtype: object

>  <halogenbond:ASN:129>  (17) 
halogenbond:ASN:129    0
halogenbond:ASN:129    0
Name: 16, dtype: object

>  <hbond:GLY:130>  (17) 
hbond:GLY:130    0
hbond:GLY:130    0
Name: 16, dtype: object

>  <hydroph_interaction:LEU:131>  (17) 
hydroph_interaction:LEU:131    0
hydroph_interaction:LEU:131    0
Name: 16, dtype: object

>  <hbond:LEU:131>  (17) 
hbond:LEU:131    0
hbond:LEU:131    0
Name: 16, dtype: object

>  <halogenbond:LEU:131>  (17) 
halogenbond:LEU:131    0
halogenbond:LEU:131    0
Name: 16, dtype: object

>  <hydroph_interaction:VAL:132>  (17) 
hydroph_interaction:VAL:132    0
hydroph_interaction:VAL:132    0
Name: 16, dtype: object

>  <hbond:VAL:132>  (17) 
hbond:VAL:132    0
hbond:VAL:132    0
Name: 16, dtype: object

>  <hbond:GLY:133>  (17) 
hbond:GLY:133    0
hbond:GLY:133    0
Name: 16, dtype: object

>  <halogenbond:GLY:133>  (17) 
halogenbond:GLY:133    0
halogenbond:GLY:133    0
Name: 16, dtype: object

>  <hydroph_interaction:PHE:134>  (17) 
hydroph_interaction:PHE:134    0
hydroph_interaction:PHE:134    0
Name: 16, dtype: object

>  <hbond:PHE:134>  (17) 
hbond:PHE:134    0
hbond:PHE:134    0
Name: 16, dtype: object

>  <pistack:PHE:134>  (17) 
pistack:PHE:134    0
pistack:PHE:134    0
Name: 16, dtype: object

>  <pication:PHE:134>  (17) 
pication:PHE:134    0
pication:PHE:134    0
Name: 16, dtype: object

>  <hydroph_interaction:ALA:135>  (17) 
hydroph_interaction:ALA:135    0
hydroph_interaction:ALA:135    0
Name: 16, dtype: object

>  <hbond:ALA:135>  (17) 
hbond:ALA:135    0
hbond:ALA:135    0
Name: 16, dtype: object

$$$$
Z1503451859
     RDKit          3D

 42 42  0  0  0  0  0  0  0  0999 V2000
   10.2420    9.1880   22.7750 C   0  0  0  0  0  0  0  0  0  0  0  0
    9.3510   10.0940   23.5390 C   0  0  0  0  0  0  0  0  0  0  0  0
    8.4380    9.6340   24.3960 N   0  0  0  0  0  0  0  0  0  0  0  0
    7.8280   10.7430   24.8680 N   0  0  0  0  0  0  0  0  0  0  0  0
    6.7450   10.6500   25.8240 C   0  0  0  0  0  0  0  0  0  0  0  0
    8.3290   11.8910   24.3470 C   0  0  0  0  0  0  0  0  0  0  0  0
    7.8030   13.2200   24.7310 C   0  0  0  0  0  0  0  0  0  0  0  0
    9.3170   11.4980   23.4820 C   0  0  0  0  0  0  0  0  0  0  0  0
   10.1150   12.2780   22.7150 N   0  0  0  0  0  0  0  0  0  0  0  0
   10.8620   13.2550   23.2360 C   0  0  0  0  0  0  0  0  0  0  0  0
   10.7400   13.7770   24.3320 O   0  0  0  0  0  0  0  0  0  0  0  0
   11.8100   13.5980   22.3410 N   0  0  0  0  0  0  0  0  0  0  0  0
   13.0140   14.0830   22.9060 C   0  0  0  0  0  0  0  0  0  0  0  0
   12.8070   15.4150   23.5400 C   0  0  0  0  0  0  0  0  0  0  0  0
   14.1950   14.1000   21.9700 C   0  0  0  0  0  0  0  0  0  0  0  0
   15.4260   13.3380   22.4240 C   0  0  0  0  0  0  0  0  0  0  0  0
   16.3820   14.2180   23.1880 C   0  0  0  0  0  0  0  0  0  0  0  0
   15.9860   12.6890   21.1590 C   0  0  0  0  0  0  0  0  0  0  0  0
    9.7000    8.3310   22.3740 H   0  0  0  0  0  0  0  0  0  0  0  0
   10.6700    9.7240   21.9260 H   0  0  0  0  0  0  0  0  0  0  0  0
   11.0650    8.8180   23.3870 H   0  0  0  0  0  0  0  0  0  0  0  0
    6.0990    9.8140   25.5610 H   0  0  0  0  0  0  0  0  0  0  0  0
    6.1650   11.5720   25.7730 H   0  0  0  0  0  0  0  0  0  0  0  0
    7.1430   10.5080   26.8180 H   0  0  0  0  0  0  0  0  0  0  0  0
    8.6050   13.9480   24.8990 H   0  0  0  0  0  0  0  0  0  0  0  0
    7.1710   13.6360   23.9360 H   0  0  0  0  0  0  0  0  0  0  0  0
    7.2180   13.1470   25.6530 H   0  0  0  0  0  0  0  0  0  0  0  0
   10.4080   11.9470   21.7920 H   0  0  0  0  0  0  0  0  0  0  0  0
   11.8450   12.9850   21.5170 H   0  0  0  0  0  0  0  0  0  0  0  0
   13.2740   13.3940   23.7200 H   0  0  0  0  0  0  0  0  0  0  0  0
   13.7240   15.9600   23.3570 H   0  0  0  0  0  0  0  0  0  0  0  0
   12.6690   15.3330   24.6240 H   0  0  0  0  0  0  0  0  0  0  0  0
   11.9980   15.9990   23.1230 H   0  0  0  0  0  0  0  0  0  0  0  0
   13.8690   13.6680   21.0130 H   0  0  0  0  0  0  0  0  0  0  0  0
   14.4580   15.1440   21.7650 H   0  0  0  0  0  0  0  0  0  0  0  0
   15.1360   12.5420   23.1120 H   0  0  0  0  0  0  0  0  0  0  0  0
   16.0090   15.2290   23.1800 H   0  0  0  0  0  0  0  0  0  0  0  0
   17.3720   14.2380   22.7500 H   0  0  0  0  0  0  0  0  0  0  0  0
   16.4920   13.8910   24.2240 H   0  0  0  0  0  0  0  0  0  0  0  0
   15.1900   12.5320   20.4190 H   0  0  0  0  0  0  0  0  0  0  0  0
   16.7490   13.2900   20.6810 H   0  0  0  0  0  0  0  0  0  0  0  0
   16.4300   11.7240   21.3810 H   0  0  0  0  0  0  0  0  0  0  0  0
  1  2  1  0
  2  3  2  0
  3  4  1  0
  4  5  1  0
  4  6  1  0
  6  7  1  0
  6  8  2  0
  8  9  1  0
  9 10  1  0
 10 11  2  0
 10 12  1  0
 12 13  1  0
 13 14  1  0
 13 15  1  0
 15 16  1  0
 16 17  1  0
 16 18  1  0
  8  2  1  0
  1 19  1  0
  1 20  1  0
  1 21  1  0
  5 22  1  0
  5 23  1  0
  5 24  1  0
  7 25  1  0
  7 26  1  0
  7 27  1  0
  9 28  1  0
 12 29  1  0
 13 30  1  0
 14 31  1  0
 14 32  1  0
 14 33  1  0
 15 34  1  0
 15 35  1  0
 16 36  1  0
 17 37  1  0
 17 38  1  0
 17 39  1  0
 18 40  1  0
 18 41  1  0
 18 42  1  0
A    1
 C1 
A    2
 C2 
A    3
 N1 
A    4
 N2 
A    5
 C3 
A    6
 C4 
A    7
 C5 
A    8
 C6 
A    9
 N3 
A   10
 C7 
A   11
 O1 
A   12
 N4 
A   13
 C8 
A   14
 C9 
A   15
 C10
A   16
 C11
A   17
 C12
A   18
 C13
A   19
 H1 
A   20
 H2 
A   21
 H3 
A   22
 H4 
A   23
 H5 
A   24
 H6 
A   25
 H7 
A   26
 H8 
A   27
 H9 
A   28
 H10
A   29
 H11
A   30
 H12
A   31
 H13
A   32
 H14
A   33
 H15
A   34
 H16
A   35
 H17
A   36
 H18
A   37
 H19
A   38
 H20
A   39
 H21
A   40
 H22
A   41
 H23
A   42
 H24
M  END
>  <ref_pdb>  (18) 
x0310_0A

>  <ref_mols>  (18) 
x0310_0A,x0451_0A,x0365_0A

>  <original SMILES>  (18) 
Cc1nn(C)c(C)c1NC(=O)NC(C)CC(C)C

>  <rationale>  (18) 
info hbond:S125+G127+S87; hydroph_interaction:V124+Y89+Y90+H21+L22+N19; 

>  <intxn_cluster>  (18) 
103

>  <intxn_cluster_rank>  (18) 
3

>  <N_interactions>  (18) 
11

>  <∆∆G>  (18) 
-13.21951

>  <$/mg>  (18) 
163.0

>  <comRMSD>  (18) 
0.792851

>  <N_rotatable_bonds>  (18) 
10

>  <N_analogues_07>  (18) 
4

>  <deep_P1_sidechain>  (18) 
True

>  <farthest_distance_to_substrate>  (18) 
3.158825

>  <hbond:SER:7>  (18) 
hbond:SER:7    0
hbond:SER:7    0
Name: 17, dtype: object

>  <halogenbond:SER:7>  (18) 
halogenbond:SER:7    0
halogenbond:SER:7    0
Name: 17, dtype: object

>  <hbond:GLY:8>  (18) 
hbond:GLY:8    0
hbond:GLY:8    0
Name: 17, dtype: object

>  <hydroph_interaction:ASN:19>  (18) 
hydroph_interaction:ASN:19    1
hydroph_interaction:ASN:19    1
Name: 17, dtype: object

>  <hbond:ASN:19>  (18) 
hbond:ASN:19    0
hbond:ASN:19    0
Name: 17, dtype: object

>  <halogenbond:ASN:19>  (18) 
halogenbond:ASN:19    0
halogenbond:ASN:19    0
Name: 17, dtype: object

>  <hbond:ARG:20>  (18) 
hbond:ARG:20    0
hbond:ARG:20    0
Name: 17, dtype: object

>  <hydroph_interaction:ARG:20>  (18) 
hydroph_interaction:ARG:20    0
hydroph_interaction:ARG:20    0
Name: 17, dtype: object

>  <saltbridge:ARG:20>  (18) 
saltbridge:ARG:20    0
saltbridge:ARG:20    0
Name: 17, dtype: object

>  <halogenbond:ARG:20>  (18) 
halogenbond:ARG:20    0
halogenbond:ARG:20    0
Name: 17, dtype: object

>  <pication:ARG:20>  (18) 
pication:ARG:20    0
pication:ARG:20    0
Name: 17, dtype: object

>  <hbond:HIS:21>  (18) 
hbond:HIS:21    0
hbond:HIS:21    0
Name: 17, dtype: object

>  <hydroph_interaction:HIS:21>  (18) 
hydroph_interaction:HIS:21    1
hydroph_interaction:HIS:21    1
Name: 17, dtype: object

>  <saltbridge:HIS:21>  (18) 
saltbridge:HIS:21    0
saltbridge:HIS:21    0
Name: 17, dtype: object

>  <pistack:HIS:21>  (18) 
pistack:HIS:21    0
pistack:HIS:21    0
Name: 17, dtype: object

>  <pication:HIS:21>  (18) 
pication:HIS:21    0
pication:HIS:21    0
Name: 17, dtype: object

>  <halogenbond:HIS:21>  (18) 
halogenbond:HIS:21    0
halogenbond:HIS:21    0
Name: 17, dtype: object

>  <hydroph_interaction:LEU:22>  (18) 
hydroph_interaction:LEU:22    2
hydroph_interaction:LEU:22    2
Name: 17, dtype: object

>  <hbond:LEU:22>  (18) 
hbond:LEU:22    0
hbond:LEU:22    0
Name: 17, dtype: object

>  <hydroph_interaction:TRP:28>  (18) 
hydroph_interaction:TRP:28    0
hydroph_interaction:TRP:28    0
Name: 17, dtype: object

>  <hbond:SER:36>  (18) 
hbond:SER:36    0
hbond:SER:36    0
Name: 17, dtype: object

>  <halogenbond:SER:36>  (18) 
halogenbond:SER:36    0
halogenbond:SER:36    0
Name: 17, dtype: object

>  <hbond:ARG:38>  (18) 
hbond:ARG:38    0
hbond:ARG:38    0
Name: 17, dtype: object

>  <halogenbond:ARG:38>  (18) 
halogenbond:ARG:38    0
halogenbond:ARG:38    0
Name: 17, dtype: object

>  <hbond:ASP:39>  (18) 
hbond:ASP:39    0
hbond:ASP:39    0
Name: 17, dtype: object

>  <saltbridge:ASP:39>  (18) 
saltbridge:ASP:39    0
saltbridge:ASP:39    0
Name: 17, dtype: object

>  <hydroph_interaction:ASP:39>  (18) 
hydroph_interaction:ASP:39    0
hydroph_interaction:ASP:39    0
Name: 17, dtype: object

>  <halogenbond:ASP:39>  (18) 
halogenbond:ASP:39    0
halogenbond:ASP:39    0
Name: 17, dtype: object

>  <hydroph_interaction:LEU:40>  (18) 
hydroph_interaction:LEU:40    0
hydroph_interaction:LEU:40    0
Name: 17, dtype: object

>  <hydroph_interaction:TYR:63>  (18) 
hydroph_interaction:TYR:63    0
hydroph_interaction:TYR:63    0
Name: 17, dtype: object

>  <pistack:TYR:63>  (18) 
pistack:TYR:63    0
pistack:TYR:63    0
Name: 17, dtype: object

>  <hbond:TYR:63>  (18) 
hbond:TYR:63    0
hbond:TYR:63    0
Name: 17, dtype: object

>  <hbond:TYR:64>  (18) 
hbond:TYR:64    0
hbond:TYR:64    0
Name: 17, dtype: object

>  <halogenbond:TYR:64>  (18) 
halogenbond:TYR:64    0
halogenbond:TYR:64    0
Name: 17, dtype: object

>  <hydroph_interaction:TYR:64>  (18) 
hydroph_interaction:TYR:64    0
hydroph_interaction:TYR:64    0
Name: 17, dtype: object

>  <hbond:CYS:65>  (18) 
hbond:CYS:65    0
hbond:CYS:65    0
Name: 17, dtype: object

>  <halogenbond:CYS:65>  (18) 
halogenbond:CYS:65    0
halogenbond:CYS:65    0
Name: 17, dtype: object

>  <hbond:SER:66>  (18) 
hbond:SER:66    0
hbond:SER:66    0
Name: 17, dtype: object

>  <hbond:SER:67>  (18) 
hbond:SER:67    0
hbond:SER:67    0
Name: 17, dtype: object

>  <halogenbond:SER:67>  (18) 
halogenbond:SER:67    0
halogenbond:SER:67    0
Name: 17, dtype: object

>  <hydroph_interaction:ARG:68>  (18) 
hydroph_interaction:ARG:68    0
hydroph_interaction:ARG:68    0
Name: 17, dtype: object

>  <hbond:ARG:68>  (18) 
hbond:ARG:68    0
hbond:ARG:68    0
Name: 17, dtype: object

>  <saltbridge:ARG:68>  (18) 
saltbridge:ARG:68    0
saltbridge:ARG:68    0
Name: 17, dtype: object

>  <pication:ARG:68>  (18) 
pication:ARG:68    0
pication:ARG:68    0
Name: 17, dtype: object

>  <hydroph_interaction:TYR:72>  (18) 
hydroph_interaction:TYR:72    0
hydroph_interaction:TYR:72    0
Name: 17, dtype: object

>  <hydroph_interaction:VAL:74>  (18) 
hydroph_interaction:VAL:74    0
hydroph_interaction:VAL:74    0
Name: 17, dtype: object

>  <hydroph_interaction:PHE:76>  (18) 
hydroph_interaction:PHE:76    0
hydroph_interaction:PHE:76    0
Name: 17, dtype: object

>  <hbond:SER:77>  (18) 
hbond:SER:77    0
hbond:SER:77    0
Name: 17, dtype: object

>  <hbond:SER:80>  (18) 
hbond:SER:80    0
hbond:SER:80    0
Name: 17, dtype: object

>  <hbond:LEU:81>  (18) 
hbond:LEU:81    0
hbond:LEU:81    0
Name: 17, dtype: object

>  <halogenbond:LEU:81>  (18) 
halogenbond:LEU:81    0
halogenbond:LEU:81    0
Name: 17, dtype: object

>  <hydroph_interaction:LEU:81>  (18) 
hydroph_interaction:LEU:81    0
hydroph_interaction:LEU:81    0
Name: 17, dtype: object

>  <hydroph_interaction:ILE:82>  (18) 
hydroph_interaction:ILE:82    0
hydroph_interaction:ILE:82    0
Name: 17, dtype: object

>  <hbond:ILE:82>  (18) 
hbond:ILE:82    0
hbond:ILE:82    0
Name: 17, dtype: object

>  <hydroph_interaction:PHE:83>  (18) 
hydroph_interaction:PHE:83    0
hydroph_interaction:PHE:83    0
Name: 17, dtype: object

>  <hbond:PHE:83>  (18) 
hbond:PHE:83    0
hbond:PHE:83    0
Name: 17, dtype: object

>  <halogenbond:PHE:83>  (18) 
halogenbond:PHE:83    0
halogenbond:PHE:83    0
Name: 17, dtype: object

>  <pistack:PHE:83>  (18) 
pistack:PHE:83    0
pistack:PHE:83    0
Name: 17, dtype: object

>  <hydroph_interaction:VAL:84>  (18) 
hydroph_interaction:VAL:84    0
hydroph_interaction:VAL:84    0
Name: 17, dtype: object

>  <hbond:VAL:84>  (18) 
hbond:VAL:84    0
hbond:VAL:84    0
Name: 17, dtype: object

>  <halogenbond:VAL:84>  (18) 
halogenbond:VAL:84    0
halogenbond:VAL:84    0
Name: 17, dtype: object

>  <hydroph_interaction:GLU:85>  (18) 
hydroph_interaction:GLU:85    0
hydroph_interaction:GLU:85    0
Name: 17, dtype: object

>  <hbond:GLU:85>  (18) 
hbond:GLU:85    0
hbond:GLU:85    0
Name: 17, dtype: object

>  <saltbridge:GLU:85>  (18) 
saltbridge:GLU:85    0
saltbridge:GLU:85    0
Name: 17, dtype: object

>  <halogenbond:GLU:85>  (18) 
halogenbond:GLU:85    0
halogenbond:GLU:85    0
Name: 17, dtype: object

>  <hbond:ALA:86>  (18) 
hbond:ALA:86    0
hbond:ALA:86    0
Name: 17, dtype: object

>  <halogenbond:ALA:86>  (18) 
halogenbond:ALA:86    0
halogenbond:ALA:86    0
Name: 17, dtype: object

>  <hydroph_interaction:ALA:86>  (18) 
hydroph_interaction:ALA:86    0
hydroph_interaction:ALA:86    0
Name: 17, dtype: object

>  <hbond:SER:87>  (18) 
hbond:SER:87    1
hbond:SER:87    1
Name: 17, dtype: object

>  <halogenbond:SER:87>  (18) 
halogenbond:SER:87    0
halogenbond:SER:87    0
Name: 17, dtype: object

>  <hbond:GLU:88>  (18) 
hbond:GLU:88    0
hbond:GLU:88    0
Name: 17, dtype: object

>  <hydroph_interaction:GLU:88>  (18) 
hydroph_interaction:GLU:88    0
hydroph_interaction:GLU:88    0
Name: 17, dtype: object

>  <halogenbond:GLU:88>  (18) 
halogenbond:GLU:88    0
halogenbond:GLU:88    0
Name: 17, dtype: object

>  <saltbridge:GLU:88>  (18) 
saltbridge:GLU:88    0
saltbridge:GLU:88    0
Name: 17, dtype: object

>  <hydroph_interaction:TYR:89>  (18) 
hydroph_interaction:TYR:89    1
hydroph_interaction:TYR:89    1
Name: 17, dtype: object

>  <pistack:TYR:89>  (18) 
pistack:TYR:89    0
pistack:TYR:89    0
Name: 17, dtype: object

>  <hbond:TYR:89>  (18) 
hbond:TYR:89    0
hbond:TYR:89    0
Name: 17, dtype: object

>  <halogenbond:TYR:89>  (18) 
halogenbond:TYR:89    0
halogenbond:TYR:89    0
Name: 17, dtype: object

>  <hbond:TYR:90>  (18) 
hbond:TYR:90    0
hbond:TYR:90    0
Name: 17, dtype: object

>  <hydroph_interaction:TYR:90>  (18) 
hydroph_interaction:TYR:90    1
hydroph_interaction:TYR:90    1
Name: 17, dtype: object

>  <pistack:TYR:90>  (18) 
pistack:TYR:90    0
pistack:TYR:90    0
Name: 17, dtype: object

>  <halogenbond:TYR:90>  (18) 
halogenbond:TYR:90    0
halogenbond:TYR:90    0
Name: 17, dtype: object

>  <pication:TYR:90>  (18) 
pication:TYR:90    0
pication:TYR:90    0
Name: 17, dtype: object

>  <hydroph_interaction:PRO:91>  (18) 
hydroph_interaction:PRO:91    0
hydroph_interaction:PRO:91    0
Name: 17, dtype: object

>  <halogenbond:PRO:91>  (18) 
halogenbond:PRO:91    0
halogenbond:PRO:91    0
Name: 17, dtype: object

>  <hbond:PRO:91>  (18) 
hbond:PRO:91    0
hbond:PRO:91    0
Name: 17, dtype: object

>  <hydroph_interaction:ALA:92>  (18) 
hydroph_interaction:ALA:92    0
hydroph_interaction:ALA:92    0
Name: 17, dtype: object

>  <hbond:ARG:93>  (18) 
hbond:ARG:93    0
hbond:ARG:93    0
Name: 17, dtype: object

>  <pication:ARG:93>  (18) 
pication:ARG:93    0
pication:ARG:93    0
Name: 17, dtype: object

>  <saltbridge:ARG:93>  (18) 
saltbridge:ARG:93    0
saltbridge:ARG:93    0
Name: 17, dtype: object

>  <hydroph_interaction:ARG:93>  (18) 
hydroph_interaction:ARG:93    0
hydroph_interaction:ARG:93    0
Name: 17, dtype: object

>  <halogenbond:ARG:93>  (18) 
halogenbond:ARG:93    0
halogenbond:ARG:93    0
Name: 17, dtype: object

>  <hydroph_interaction:TYR:94>  (18) 
hydroph_interaction:TYR:94    0
hydroph_interaction:TYR:94    0
Name: 17, dtype: object

>  <hbond:TYR:94>  (18) 
hbond:TYR:94    0
hbond:TYR:94    0
Name: 17, dtype: object

>  <halogenbond:GLN:95>  (18) 
halogenbond:GLN:95    0
halogenbond:GLN:95    0
Name: 17, dtype: object

>  <hbond:GLN:95>  (18) 
hbond:GLN:95    0
hbond:GLN:95    0
Name: 17, dtype: object

>  <hydroph_interaction:GLN:95>  (18) 
hydroph_interaction:GLN:95    0
hydroph_interaction:GLN:95    0
Name: 17, dtype: object

>  <hbond:SER:96>  (18) 
hbond:SER:96    0
hbond:SER:96    0
Name: 17, dtype: object

>  <hydroph_interaction:LEU:98>  (18) 
hydroph_interaction:LEU:98    0
hydroph_interaction:LEU:98    0
Name: 17, dtype: object

>  <hbond:LEU:98>  (18) 
hbond:LEU:98    0
hbond:LEU:98    0
Name: 17, dtype: object

>  <hbond:MET:99>  (18) 
hbond:MET:99    0
hbond:MET:99    0
Name: 17, dtype: object

>  <hydroph_interaction:MET:99>  (18) 
hydroph_interaction:MET:99    0
hydroph_interaction:MET:99    0
Name: 17, dtype: object

>  <halogenbond:MET:99>  (18) 
halogenbond:MET:99    0
halogenbond:MET:99    0
Name: 17, dtype: object

>  <hydroph_interaction:LEU:100>  (18) 
hydroph_interaction:LEU:100    0
hydroph_interaction:LEU:100    0
Name: 17, dtype: object

>  <hbond:LEU:100>  (18) 
hbond:LEU:100    0
hbond:LEU:100    0
Name: 17, dtype: object

>  <hbond:ALA:101>  (18) 
hbond:ALA:101    0
hbond:ALA:101    0
Name: 17, dtype: object

>  <hydroph_interaction:ALA:101>  (18) 
hydroph_interaction:ALA:101    0
hydroph_interaction:ALA:101    0
Name: 17, dtype: object

>  <hydroph_interaction:VAL:102>  (18) 
hydroph_interaction:VAL:102    0
hydroph_interaction:VAL:102    0
Name: 17, dtype: object

>  <hbond:VAL:102>  (18) 
hbond:VAL:102    0
hbond:VAL:102    0
Name: 17, dtype: object

>  <hbond:GLY:103>  (18) 
hbond:GLY:103    0
hbond:GLY:103    0
Name: 17, dtype: object

>  <halogenbond:GLY:103>  (18) 
halogenbond:GLY:103    0
halogenbond:GLY:103    0
Name: 17, dtype: object

>  <hydroph_interaction:HIS:104>  (18) 
hydroph_interaction:HIS:104    0
hydroph_interaction:HIS:104    0
Name: 17, dtype: object

>  <hbond:HIS:104>  (18) 
hbond:HIS:104    0
hbond:HIS:104    0
Name: 17, dtype: object

>  <saltbridge:HIS:104>  (18) 
saltbridge:HIS:104    0
saltbridge:HIS:104    0
Name: 17, dtype: object

>  <pication:HIS:104>  (18) 
pication:HIS:104    0
pication:HIS:104    0
Name: 17, dtype: object

>  <pistack:HIS:104>  (18) 
pistack:HIS:104    0
pistack:HIS:104    0
Name: 17, dtype: object

>  <halogenbond:HIS:104>  (18) 
halogenbond:HIS:104    0
halogenbond:HIS:104    0
Name: 17, dtype: object

>  <hbond:SER:105>  (18) 
hbond:SER:105    0
hbond:SER:105    0
Name: 17, dtype: object

>  <halogenbond:SER:105>  (18) 
halogenbond:SER:105    0
halogenbond:SER:105    0
Name: 17, dtype: object

>  <hbond:GLU:106>  (18) 
hbond:GLU:106    0
hbond:GLU:106    0
Name: 17, dtype: object

>  <hydroph_interaction:GLU:106>  (18) 
hydroph_interaction:GLU:106    0
hydroph_interaction:GLU:106    0
Name: 17, dtype: object

>  <saltbridge:GLU:106>  (18) 
saltbridge:GLU:106    0
saltbridge:GLU:106    0
Name: 17, dtype: object

>  <halogenbond:GLU:106>  (18) 
halogenbond:GLU:106    0
halogenbond:GLU:106    0
Name: 17, dtype: object

>  <hydroph_interaction:PRO:107>  (18) 
hydroph_interaction:PRO:107    0
hydroph_interaction:PRO:107    0
Name: 17, dtype: object

>  <hbond:PRO:107>  (18) 
hbond:PRO:107    0
hbond:PRO:107    0
Name: 17, dtype: object

>  <halogenbond:PRO:107>  (18) 
halogenbond:PRO:107    0
halogenbond:PRO:107    0
Name: 17, dtype: object

>  <hbond:GLY:108>  (18) 
hbond:GLY:108    0
hbond:GLY:108    0
Name: 17, dtype: object

>  <halogenbond:GLY:108>  (18) 
halogenbond:GLY:108    0
halogenbond:GLY:108    0
Name: 17, dtype: object

>  <hbond:ASP:109>  (18) 
hbond:ASP:109    0
hbond:ASP:109    0
Name: 17, dtype: object

>  <hydroph_interaction:ASP:109>  (18) 
hydroph_interaction:ASP:109    0
hydroph_interaction:ASP:109    0
Name: 17, dtype: object

>  <saltbridge:ASP:109>  (18) 
saltbridge:ASP:109    0
saltbridge:ASP:109    0
Name: 17, dtype: object

>  <hbond:CYS:110>  (18) 
hbond:CYS:110    0
hbond:CYS:110    0
Name: 17, dtype: object

>  <halogenbond:CYS:110>  (18) 
halogenbond:CYS:110    0
halogenbond:CYS:110    0
Name: 17, dtype: object

>  <hbond:GLY:111>  (18) 
hbond:GLY:111    0
hbond:GLY:111    0
Name: 17, dtype: object

>  <hbond:GLY:112>  (18) 
hbond:GLY:112    0
hbond:GLY:112    0
Name: 17, dtype: object

>  <hbond:ILE:113>  (18) 
hbond:ILE:113    0
hbond:ILE:113    0
Name: 17, dtype: object

>  <hydroph_interaction:LEU:114>  (18) 
hydroph_interaction:LEU:114    0
hydroph_interaction:LEU:114    0
Name: 17, dtype: object

>  <hbond:LEU:114>  (18) 
hbond:LEU:114    0
hbond:LEU:114    0
Name: 17, dtype: object

>  <hydroph_interaction:ILE:123>  (18) 
hydroph_interaction:ILE:123    0
hydroph_interaction:ILE:123    0
Name: 17, dtype: object

>  <hbond:ILE:123>  (18) 
hbond:ILE:123    0
hbond:ILE:123    0
Name: 17, dtype: object

>  <hydroph_interaction:VAL:124>  (18) 
hydroph_interaction:VAL:124    1
hydroph_interaction:VAL:124    1
Name: 17, dtype: object

>  <hbond:VAL:124>  (18) 
hbond:VAL:124    0
hbond:VAL:124    0
Name: 17, dtype: object

>  <halogenbond:VAL:124>  (18) 
halogenbond:VAL:124    0
halogenbond:VAL:124    0
Name: 17, dtype: object

>  <hbond:SER:125>  (18) 
hbond:SER:125    2
hbond:SER:125    2
Name: 17, dtype: object

>  <halogenbond:SER:125>  (18) 
halogenbond:SER:125    0
halogenbond:SER:125    0
Name: 17, dtype: object

>  <hydroph_interaction:THR:126>  (18) 
hydroph_interaction:THR:126    0
hydroph_interaction:THR:126    0
Name: 17, dtype: object

>  <hbond:THR:126>  (18) 
hbond:THR:126    0
hbond:THR:126    0
Name: 17, dtype: object

>  <halogenbond:THR:126>  (18) 
halogenbond:THR:126    0
halogenbond:THR:126    0
Name: 17, dtype: object

>  <hbond:GLY:127>  (18) 
hbond:GLY:127    1
hbond:GLY:127    1
Name: 17, dtype: object

>  <halogenbond:GLY:127>  (18) 
halogenbond:GLY:127    0
halogenbond:GLY:127    0
Name: 17, dtype: object

>  <hydroph_interaction:GLY:127>  (18) 
hydroph_interaction:GLY:127    0
hydroph_interaction:GLY:127    0
Name: 17, dtype: object

>  <hbond:GLY:128>  (18) 
hbond:GLY:128    0
hbond:GLY:128    0
Name: 17, dtype: object

>  <halogenbond:GLY:128>  (18) 
halogenbond:GLY:128    0
halogenbond:GLY:128    0
Name: 17, dtype: object

>  <hydroph_interaction:GLY:128>  (18) 
hydroph_interaction:GLY:128    0
hydroph_interaction:GLY:128    0
Name: 17, dtype: object

>  <hbond:ASN:129>  (18) 
hbond:ASN:129    0
hbond:ASN:129    0
Name: 17, dtype: object

>  <hydroph_interaction:ASN:129>  (18) 
hydroph_interaction:ASN:129    0
hydroph_interaction:ASN:129    0
Name: 17, dtype: object

>  <halogenbond:ASN:129>  (18) 
halogenbond:ASN:129    0
halogenbond:ASN:129    0
Name: 17, dtype: object

>  <hbond:GLY:130>  (18) 
hbond:GLY:130    0
hbond:GLY:130    0
Name: 17, dtype: object

>  <hydroph_interaction:LEU:131>  (18) 
hydroph_interaction:LEU:131    0
hydroph_interaction:LEU:131    0
Name: 17, dtype: object

>  <hbond:LEU:131>  (18) 
hbond:LEU:131    0
hbond:LEU:131    0
Name: 17, dtype: object

>  <halogenbond:LEU:131>  (18) 
halogenbond:LEU:131    0
halogenbond:LEU:131    0
Name: 17, dtype: object

>  <hydroph_interaction:VAL:132>  (18) 
hydroph_interaction:VAL:132    0
hydroph_interaction:VAL:132    0
Name: 17, dtype: object

>  <hbond:VAL:132>  (18) 
hbond:VAL:132    0
hbond:VAL:132    0
Name: 17, dtype: object

>  <hbond:GLY:133>  (18) 
hbond:GLY:133    0
hbond:GLY:133    0
Name: 17, dtype: object

>  <halogenbond:GLY:133>  (18) 
halogenbond:GLY:133    0
halogenbond:GLY:133    0
Name: 17, dtype: object

>  <hydroph_interaction:PHE:134>  (18) 
hydroph_interaction:PHE:134    0
hydroph_interaction:PHE:134    0
Name: 17, dtype: object

>  <hbond:PHE:134>  (18) 
hbond:PHE:134    0
hbond:PHE:134    0
Name: 17, dtype: object

>  <pistack:PHE:134>  (18) 
pistack:PHE:134    0
pistack:PHE:134    0
Name: 17, dtype: object

>  <pication:PHE:134>  (18) 
pication:PHE:134    0
pication:PHE:134    0
Name: 17, dtype: object

>  <hydroph_interaction:ALA:135>  (18) 
hydroph_interaction:ALA:135    0
hydroph_interaction:ALA:135    0
Name: 17, dtype: object

>  <hbond:ALA:135>  (18) 
hbond:ALA:135    0
hbond:ALA:135    0
Name: 17, dtype: object

$$$$
Z3199018877
     RDKit          3D

 39 41  0  0  0  0  0  0  0  0999 V2000
   11.5850   10.4810   22.3170 C   0  0  0  0  0  0  0  0  0  0  0  0
   10.4440   11.0860   23.1130 C   0  0  0  0  0  0  0  0  0  0  0  0
   10.2760   12.5300   23.5150 C   0  0  0  0  0  0  0  0  0  0  0  0
   11.2040   13.6970   23.2040 C   0  0  0  0  0  0  0  0  0  0  0  0
   11.3300   14.6770   23.9210 O   0  0  0  0  0  0  0  0  0  0  0  0
   11.9380   13.4980   21.9380 N   0  0  0  0  0  0  0  0  0  0  0  0
   13.3180   13.7980   21.8910 C   0  0  0  0  0  0  0  0  0  0  0  0
   14.0300   13.2110   22.9340 C   0  0  0  0  0  0  0  0  0  0  0  0
   13.3170   12.1780   23.4030 F   0  0  0  0  0  0  0  0  0  0  0  0
   15.3500   12.9360   22.7400 C   0  0  0  0  0  0  0  0  0  0  0  0
   15.7470   13.9730   23.7030 C   0  0  0  0  0  0  0  0  0  0  0  0
   14.2460   14.2790   23.9870 C   0  0  0  0  0  0  0  0  0  0  0  0
    8.9880   12.5980   24.3450 C   0  0  0  0  0  0  0  0  0  0  0  0
    8.1980   13.6770   25.0710 C   0  0  0  0  0  0  0  0  0  0  0  0
    6.9410   13.2480   25.8080 C   0  0  0  0  0  0  0  0  0  0  0  0
    6.5350   11.9010   25.8120 C   0  0  0  0  0  0  0  0  0  0  0  0
    7.3840   10.8870   25.0560 C   0  0  0  0  0  0  0  0  0  0  0  0
    8.5280   11.2600   24.3750 C   0  0  0  0  0  0  0  0  0  0  0  0
    9.4000   10.4390   23.6380 N   0  0  0  0  0  0  0  0  0  0  0  0
    9.2690    9.0540   23.4420 C   0  0  0  0  0  0  0  0  0  0  0  0
   12.2600   11.2240   21.8910 H   0  0  0  0  0  0  0  0  0  0  0  0
   12.1740    9.8090   22.9440 H   0  0  0  0  0  0  0  0  0  0  0  0
   11.1890    9.8570   21.5160 H   0  0  0  0  0  0  0  0  0  0  0  0
   11.5700   12.8340   21.2600 H   0  0  0  0  0  0  0  0  0  0  0  0
   13.4120   14.8870   21.9790 H   0  0  0  0  0  0  0  0  0  0  0  0
   13.6710   13.5630   20.8950 H   0  0  0  0  0  0  0  0  0  0  0  0
   15.6230   11.9220   23.0190 H   0  0  0  0  0  0  0  0  0  0  0  0
   15.6660   13.1320   21.7110 H   0  0  0  0  0  0  0  0  0  0  0  0
   16.3310   14.7780   23.2770 H   0  0  0  0  0  0  0  0  0  0  0  0
   16.2760   13.5780   24.5750 H   0  0  0  0  0  0  0  0  0  0  0  0
   13.9430   15.2930   23.7100 H   0  0  0  0  0  0  0  0  0  0  0  0
   13.9110   14.0320   25.0050 H   0  0  0  0  0  0  0  0  0  0  0  0
    8.5170   14.7250   25.0700 H   0  0  0  0  0  0  0  0  0  0  0  0
    6.4000   14.0520   26.3200 H   0  0  0  0  0  0  0  0  0  0  0  0
    5.6370   11.5890   26.3400 H   0  0  0  0  0  0  0  0  0  0  0  0
    7.0740    9.8500   25.0590 H   0  0  0  0  0  0  0  0  0  0  0  0
   10.2500    8.5820   23.5040 H   0  0  0  0  0  0  0  0  0  0  0  0
    8.6110    8.7160   24.2260 H   0  0  0  0  0  0  0  0  0  0  0  0
    8.8610    8.8330   22.4670 H   0  0  0  0  0  0  0  0  0  0  0  0
  1  2  1  0
  2  3  2  0
  3  4  1  0
  4  5  2  0
  4  6  1  0
  6  7  1  0
  7  8  1  0
  8  9  1  0
  8 10  1  0
 10 11  1  0
 11 12  1  0
  3 13  1  0
 13 14  2  0
 14 15  1  0
 15 16  2  0
 16 17  1  0
 17 18  2  0
 18 19  1  0
 19 20  1  0
 19  2  1  0
 12  8  1  0
 18 13  1  0
  1 21  1  0
  1 22  1  0
  1 23  1  0
  6 24  1  0
  7 25  1  0
  7 26  1  0
 10 27  1  0
 10 28  1  0
 11 29  1  0
 11 30  1  0
 12 31  1  0
 12 32  1  0
 14 33  1  0
 15 34  1  0
 16 35  1  0
 17 36  1  0
 20 37  1  0
 20 38  1  0
 20 39  1  0
A    1
 C1 
A    2
 C2 
A    3
 C3 
A    4
 C4 
A    5
 O1 
A    6
 N1 
A    7
 C5 
A    8
 C6 
A    9
 F1 
A   10
 C7 
A   11
 C8 
A   12
 C9 
A   13
 C10
A   14
 C11
A   15
 C12
A   16
 C13
A   17
 C14
A   18
 C15
A   19
 N2 
A   20
 C16
A   21
 H1 
A   22
 H2 
A   23
 H3 
A   24
 H4 
A   25
 H5 
A   26
 H6 
A   27
 H7 
A   28
 H8 
A   29
 H9 
A   30
 H10
A   31
 H11
A   32
 H12
A   33
 H13
A   34
 H14
A   35
 H15
A   36
 H16
A   37
 H17
A   38
 H18
A   39
 H19
M  END
>  <ref_pdb>  (19) 
x0310_0A

>  <ref_mols>  (19) 
x0416_0A,x0451_0A,x0739_0A

>  <original SMILES>  (19) 
Cc1c(C(=O)NCC2(F)CCC2)c2ccccc2n1C

>  <rationale>  (19) 
info halogenbond:P107; hbond:S125+S87; hydroph_interaction:P107+Y89+L22; 

>  <intxn_cluster>  (19) 
207

>  <intxn_cluster_rank>  (19) 
4

>  <N_interactions>  (19) 
7

>  <∆∆G>  (19) 
-8.652543

>  <$/mg>  (19) 
nan

>  <comRMSD>  (19) 
0.896605

>  <N_rotatable_bonds>  (19) 
5

>  <N_analogues_07>  (19) 
3

>  <deep_P1_sidechain>  (19) 
False

>  <farthest_distance_to_substrate>  (19) 
2.30584

>  <hbond:SER:7>  (19) 
hbond:SER:7    0
hbond:SER:7    0
Name: 18, dtype: object

>  <halogenbond:SER:7>  (19) 
halogenbond:SER:7    0
halogenbond:SER:7    0
Name: 18, dtype: object

>  <hbond:GLY:8>  (19) 
hbond:GLY:8    0
hbond:GLY:8    0
Name: 18, dtype: object

>  <hydroph_interaction:ASN:19>  (19) 
hydroph_interaction:ASN:19    0
hydroph_interaction:ASN:19    0
Name: 18, dtype: object

>  <hbond:ASN:19>  (19) 
hbond:ASN:19    0
hbond:ASN:19    0
Name: 18, dtype: object

>  <halogenbond:ASN:19>  (19) 
halogenbond:ASN:19    0
halogenbond:ASN:19    0
Name: 18, dtype: object

>  <hbond:ARG:20>  (19) 
hbond:ARG:20    0
hbond:ARG:20    0
Name: 18, dtype: object

>  <hydroph_interaction:ARG:20>  (19) 
hydroph_interaction:ARG:20    0
hydroph_interaction:ARG:20    0
Name: 18, dtype: object

>  <saltbridge:ARG:20>  (19) 
saltbridge:ARG:20    0
saltbridge:ARG:20    0
Name: 18, dtype: object

>  <halogenbond:ARG:20>  (19) 
halogenbond:ARG:20    0
halogenbond:ARG:20    0
Name: 18, dtype: object

>  <pication:ARG:20>  (19) 
pication:ARG:20    0
pication:ARG:20    0
Name: 18, dtype: object

>  <hbond:HIS:21>  (19) 
hbond:HIS:21    0
hbond:HIS:21    0
Name: 18, dtype: object

>  <hydroph_interaction:HIS:21>  (19) 
hydroph_interaction:HIS:21    0
hydroph_interaction:HIS:21    0
Name: 18, dtype: object

>  <saltbridge:HIS:21>  (19) 
saltbridge:HIS:21    0
saltbridge:HIS:21    0
Name: 18, dtype: object

>  <pistack:HIS:21>  (19) 
pistack:HIS:21    0
pistack:HIS:21    0
Name: 18, dtype: object

>  <pication:HIS:21>  (19) 
pication:HIS:21    0
pication:HIS:21    0
Name: 18, dtype: object

>  <halogenbond:HIS:21>  (19) 
halogenbond:HIS:21    0
halogenbond:HIS:21    0
Name: 18, dtype: object

>  <hydroph_interaction:LEU:22>  (19) 
hydroph_interaction:LEU:22    2
hydroph_interaction:LEU:22    2
Name: 18, dtype: object

>  <hbond:LEU:22>  (19) 
hbond:LEU:22    0
hbond:LEU:22    0
Name: 18, dtype: object

>  <hydroph_interaction:TRP:28>  (19) 
hydroph_interaction:TRP:28    0
hydroph_interaction:TRP:28    0
Name: 18, dtype: object

>  <hbond:SER:36>  (19) 
hbond:SER:36    0
hbond:SER:36    0
Name: 18, dtype: object

>  <halogenbond:SER:36>  (19) 
halogenbond:SER:36    0
halogenbond:SER:36    0
Name: 18, dtype: object

>  <hbond:ARG:38>  (19) 
hbond:ARG:38    0
hbond:ARG:38    0
Name: 18, dtype: object

>  <halogenbond:ARG:38>  (19) 
halogenbond:ARG:38    0
halogenbond:ARG:38    0
Name: 18, dtype: object

>  <hbond:ASP:39>  (19) 
hbond:ASP:39    0
hbond:ASP:39    0
Name: 18, dtype: object

>  <saltbridge:ASP:39>  (19) 
saltbridge:ASP:39    0
saltbridge:ASP:39    0
Name: 18, dtype: object

>  <hydroph_interaction:ASP:39>  (19) 
hydroph_interaction:ASP:39    0
hydroph_interaction:ASP:39    0
Name: 18, dtype: object

>  <halogenbond:ASP:39>  (19) 
halogenbond:ASP:39    0
halogenbond:ASP:39    0
Name: 18, dtype: object

>  <hydroph_interaction:LEU:40>  (19) 
hydroph_interaction:LEU:40    0
hydroph_interaction:LEU:40    0
Name: 18, dtype: object

>  <hydroph_interaction:TYR:63>  (19) 
hydroph_interaction:TYR:63    0
hydroph_interaction:TYR:63    0
Name: 18, dtype: object

>  <pistack:TYR:63>  (19) 
pistack:TYR:63    0
pistack:TYR:63    0
Name: 18, dtype: object

>  <hbond:TYR:63>  (19) 
hbond:TYR:63    0
hbond:TYR:63    0
Name: 18, dtype: object

>  <hbond:TYR:64>  (19) 
hbond:TYR:64    0
hbond:TYR:64    0
Name: 18, dtype: object

>  <halogenbond:TYR:64>  (19) 
halogenbond:TYR:64    0
halogenbond:TYR:64    0
Name: 18, dtype: object

>  <hydroph_interaction:TYR:64>  (19) 
hydroph_interaction:TYR:64    0
hydroph_interaction:TYR:64    0
Name: 18, dtype: object

>  <hbond:CYS:65>  (19) 
hbond:CYS:65    0
hbond:CYS:65    0
Name: 18, dtype: object

>  <halogenbond:CYS:65>  (19) 
halogenbond:CYS:65    0
halogenbond:CYS:65    0
Name: 18, dtype: object

>  <hbond:SER:66>  (19) 
hbond:SER:66    0
hbond:SER:66    0
Name: 18, dtype: object

>  <hbond:SER:67>  (19) 
hbond:SER:67    0
hbond:SER:67    0
Name: 18, dtype: object

>  <halogenbond:SER:67>  (19) 
halogenbond:SER:67    0
halogenbond:SER:67    0
Name: 18, dtype: object

>  <hydroph_interaction:ARG:68>  (19) 
hydroph_interaction:ARG:68    0
hydroph_interaction:ARG:68    0
Name: 18, dtype: object

>  <hbond:ARG:68>  (19) 
hbond:ARG:68    0
hbond:ARG:68    0
Name: 18, dtype: object

>  <saltbridge:ARG:68>  (19) 
saltbridge:ARG:68    0
saltbridge:ARG:68    0
Name: 18, dtype: object

>  <pication:ARG:68>  (19) 
pication:ARG:68    0
pication:ARG:68    0
Name: 18, dtype: object

>  <hydroph_interaction:TYR:72>  (19) 
hydroph_interaction:TYR:72    0
hydroph_interaction:TYR:72    0
Name: 18, dtype: object

>  <hydroph_interaction:VAL:74>  (19) 
hydroph_interaction:VAL:74    0
hydroph_interaction:VAL:74    0
Name: 18, dtype: object

>  <hydroph_interaction:PHE:76>  (19) 
hydroph_interaction:PHE:76    0
hydroph_interaction:PHE:76    0
Name: 18, dtype: object

>  <hbond:SER:77>  (19) 
hbond:SER:77    0
hbond:SER:77    0
Name: 18, dtype: object

>  <hbond:SER:80>  (19) 
hbond:SER:80    0
hbond:SER:80    0
Name: 18, dtype: object

>  <hbond:LEU:81>  (19) 
hbond:LEU:81    0
hbond:LEU:81    0
Name: 18, dtype: object

>  <halogenbond:LEU:81>  (19) 
halogenbond:LEU:81    0
halogenbond:LEU:81    0
Name: 18, dtype: object

>  <hydroph_interaction:LEU:81>  (19) 
hydroph_interaction:LEU:81    0
hydroph_interaction:LEU:81    0
Name: 18, dtype: object

>  <hydroph_interaction:ILE:82>  (19) 
hydroph_interaction:ILE:82    0
hydroph_interaction:ILE:82    0
Name: 18, dtype: object

>  <hbond:ILE:82>  (19) 
hbond:ILE:82    0
hbond:ILE:82    0
Name: 18, dtype: object

>  <hydroph_interaction:PHE:83>  (19) 
hydroph_interaction:PHE:83    0
hydroph_interaction:PHE:83    0
Name: 18, dtype: object

>  <hbond:PHE:83>  (19) 
hbond:PHE:83    0
hbond:PHE:83    0
Name: 18, dtype: object

>  <halogenbond:PHE:83>  (19) 
halogenbond:PHE:83    0
halogenbond:PHE:83    0
Name: 18, dtype: object

>  <pistack:PHE:83>  (19) 
pistack:PHE:83    0
pistack:PHE:83    0
Name: 18, dtype: object

>  <hydroph_interaction:VAL:84>  (19) 
hydroph_interaction:VAL:84    0
hydroph_interaction:VAL:84    0
Name: 18, dtype: object

>  <hbond:VAL:84>  (19) 
hbond:VAL:84    0
hbond:VAL:84    0
Name: 18, dtype: object

>  <halogenbond:VAL:84>  (19) 
halogenbond:VAL:84    0
halogenbond:VAL:84    0
Name: 18, dtype: object

>  <hydroph_interaction:GLU:85>  (19) 
hydroph_interaction:GLU:85    0
hydroph_interaction:GLU:85    0
Name: 18, dtype: object

>  <hbond:GLU:85>  (19) 
hbond:GLU:85    0
hbond:GLU:85    0
Name: 18, dtype: object

>  <saltbridge:GLU:85>  (19) 
saltbridge:GLU:85    0
saltbridge:GLU:85    0
Name: 18, dtype: object

>  <halogenbond:GLU:85>  (19) 
halogenbond:GLU:85    0
halogenbond:GLU:85    0
Name: 18, dtype: object

>  <hbond:ALA:86>  (19) 
hbond:ALA:86    0
hbond:ALA:86    0
Name: 18, dtype: object

>  <halogenbond:ALA:86>  (19) 
halogenbond:ALA:86    0
halogenbond:ALA:86    0
Name: 18, dtype: object

>  <hydroph_interaction:ALA:86>  (19) 
hydroph_interaction:ALA:86    0
hydroph_interaction:ALA:86    0
Name: 18, dtype: object

>  <hbond:SER:87>  (19) 
hbond:SER:87    1
hbond:SER:87    1
Name: 18, dtype: object

>  <halogenbond:SER:87>  (19) 
halogenbond:SER:87    0
halogenbond:SER:87    0
Name: 18, dtype: object

>  <hbond:GLU:88>  (19) 
hbond:GLU:88    0
hbond:GLU:88    0
Name: 18, dtype: object

>  <hydroph_interaction:GLU:88>  (19) 
hydroph_interaction:GLU:88    0
hydroph_interaction:GLU:88    0
Name: 18, dtype: object

>  <halogenbond:GLU:88>  (19) 
halogenbond:GLU:88    0
halogenbond:GLU:88    0
Name: 18, dtype: object

>  <saltbridge:GLU:88>  (19) 
saltbridge:GLU:88    0
saltbridge:GLU:88    0
Name: 18, dtype: object

>  <hydroph_interaction:TYR:89>  (19) 
hydroph_interaction:TYR:89    1
hydroph_interaction:TYR:89    1
Name: 18, dtype: object

>  <pistack:TYR:89>  (19) 
pistack:TYR:89    0
pistack:TYR:89    0
Name: 18, dtype: object

>  <hbond:TYR:89>  (19) 
hbond:TYR:89    0
hbond:TYR:89    0
Name: 18, dtype: object

>  <halogenbond:TYR:89>  (19) 
halogenbond:TYR:89    0
halogenbond:TYR:89    0
Name: 18, dtype: object

>  <hbond:TYR:90>  (19) 
hbond:TYR:90    0
hbond:TYR:90    0
Name: 18, dtype: object

>  <hydroph_interaction:TYR:90>  (19) 
hydroph_interaction:TYR:90    0
hydroph_interaction:TYR:90    0
Name: 18, dtype: object

>  <pistack:TYR:90>  (19) 
pistack:TYR:90    0
pistack:TYR:90    0
Name: 18, dtype: object

>  <halogenbond:TYR:90>  (19) 
halogenbond:TYR:90    0
halogenbond:TYR:90    0
Name: 18, dtype: object

>  <pication:TYR:90>  (19) 
pication:TYR:90    0
pication:TYR:90    0
Name: 18, dtype: object

>  <hydroph_interaction:PRO:91>  (19) 
hydroph_interaction:PRO:91    0
hydroph_interaction:PRO:91    0
Name: 18, dtype: object

>  <halogenbond:PRO:91>  (19) 
halogenbond:PRO:91    0
halogenbond:PRO:91    0
Name: 18, dtype: object

>  <hbond:PRO:91>  (19) 
hbond:PRO:91    0
hbond:PRO:91    0
Name: 18, dtype: object

>  <hydroph_interaction:ALA:92>  (19) 
hydroph_interaction:ALA:92    0
hydroph_interaction:ALA:92    0
Name: 18, dtype: object

>  <hbond:ARG:93>  (19) 
hbond:ARG:93    0
hbond:ARG:93    0
Name: 18, dtype: object

>  <pication:ARG:93>  (19) 
pication:ARG:93    0
pication:ARG:93    0
Name: 18, dtype: object

>  <saltbridge:ARG:93>  (19) 
saltbridge:ARG:93    0
saltbridge:ARG:93    0
Name: 18, dtype: object

>  <hydroph_interaction:ARG:93>  (19) 
hydroph_interaction:ARG:93    0
hydroph_interaction:ARG:93    0
Name: 18, dtype: object

>  <halogenbond:ARG:93>  (19) 
halogenbond:ARG:93    0
halogenbond:ARG:93    0
Name: 18, dtype: object

>  <hydroph_interaction:TYR:94>  (19) 
hydroph_interaction:TYR:94    0
hydroph_interaction:TYR:94    0
Name: 18, dtype: object

>  <hbond:TYR:94>  (19) 
hbond:TYR:94    0
hbond:TYR:94    0
Name: 18, dtype: object

>  <halogenbond:GLN:95>  (19) 
halogenbond:GLN:95    0
halogenbond:GLN:95    0
Name: 18, dtype: object

>  <hbond:GLN:95>  (19) 
hbond:GLN:95    0
hbond:GLN:95    0
Name: 18, dtype: object

>  <hydroph_interaction:GLN:95>  (19) 
hydroph_interaction:GLN:95    0
hydroph_interaction:GLN:95    0
Name: 18, dtype: object

>  <hbond:SER:96>  (19) 
hbond:SER:96    0
hbond:SER:96    0
Name: 18, dtype: object

>  <hydroph_interaction:LEU:98>  (19) 
hydroph_interaction:LEU:98    0
hydroph_interaction:LEU:98    0
Name: 18, dtype: object

>  <hbond:LEU:98>  (19) 
hbond:LEU:98    0
hbond:LEU:98    0
Name: 18, dtype: object

>  <hbond:MET:99>  (19) 
hbond:MET:99    0
hbond:MET:99    0
Name: 18, dtype: object

>  <hydroph_interaction:MET:99>  (19) 
hydroph_interaction:MET:99    0
hydroph_interaction:MET:99    0
Name: 18, dtype: object

>  <halogenbond:MET:99>  (19) 
halogenbond:MET:99    0
halogenbond:MET:99    0
Name: 18, dtype: object

>  <hydroph_interaction:LEU:100>  (19) 
hydroph_interaction:LEU:100    0
hydroph_interaction:LEU:100    0
Name: 18, dtype: object

>  <hbond:LEU:100>  (19) 
hbond:LEU:100    0
hbond:LEU:100    0
Name: 18, dtype: object

>  <hbond:ALA:101>  (19) 
hbond:ALA:101    0
hbond:ALA:101    0
Name: 18, dtype: object

>  <hydroph_interaction:ALA:101>  (19) 
hydroph_interaction:ALA:101    0
hydroph_interaction:ALA:101    0
Name: 18, dtype: object

>  <hydroph_interaction:VAL:102>  (19) 
hydroph_interaction:VAL:102    0
hydroph_interaction:VAL:102    0
Name: 18, dtype: object

>  <hbond:VAL:102>  (19) 
hbond:VAL:102    0
hbond:VAL:102    0
Name: 18, dtype: object

>  <hbond:GLY:103>  (19) 
hbond:GLY:103    0
hbond:GLY:103    0
Name: 18, dtype: object

>  <halogenbond:GLY:103>  (19) 
halogenbond:GLY:103    0
halogenbond:GLY:103    0
Name: 18, dtype: object

>  <hydroph_interaction:HIS:104>  (19) 
hydroph_interaction:HIS:104    0
hydroph_interaction:HIS:104    0
Name: 18, dtype: object

>  <hbond:HIS:104>  (19) 
hbond:HIS:104    0
hbond:HIS:104    0
Name: 18, dtype: object

>  <saltbridge:HIS:104>  (19) 
saltbridge:HIS:104    0
saltbridge:HIS:104    0
Name: 18, dtype: object

>  <pication:HIS:104>  (19) 
pication:HIS:104    0
pication:HIS:104    0
Name: 18, dtype: object

>  <pistack:HIS:104>  (19) 
pistack:HIS:104    0
pistack:HIS:104    0
Name: 18, dtype: object

>  <halogenbond:HIS:104>  (19) 
halogenbond:HIS:104    0
halogenbond:HIS:104    0
Name: 18, dtype: object

>  <hbond:SER:105>  (19) 
hbond:SER:105    0
hbond:SER:105    0
Name: 18, dtype: object

>  <halogenbond:SER:105>  (19) 
halogenbond:SER:105    0
halogenbond:SER:105    0
Name: 18, dtype: object

>  <hbond:GLU:106>  (19) 
hbond:GLU:106    0
hbond:GLU:106    0
Name: 18, dtype: object

>  <hydroph_interaction:GLU:106>  (19) 
hydroph_interaction:GLU:106    0
hydroph_interaction:GLU:106    0
Name: 18, dtype: object

>  <saltbridge:GLU:106>  (19) 
saltbridge:GLU:106    0
saltbridge:GLU:106    0
Name: 18, dtype: object

>  <halogenbond:GLU:106>  (19) 
halogenbond:GLU:106    0
halogenbond:GLU:106    0
Name: 18, dtype: object

>  <hydroph_interaction:PRO:107>  (19) 
hydroph_interaction:PRO:107    1
hydroph_interaction:PRO:107    1
Name: 18, dtype: object

>  <hbond:PRO:107>  (19) 
hbond:PRO:107    0
hbond:PRO:107    0
Name: 18, dtype: object

>  <halogenbond:PRO:107>  (19) 
halogenbond:PRO:107    1
halogenbond:PRO:107    1
Name: 18, dtype: object

>  <hbond:GLY:108>  (19) 
hbond:GLY:108    0
hbond:GLY:108    0
Name: 18, dtype: object

>  <halogenbond:GLY:108>  (19) 
halogenbond:GLY:108    0
halogenbond:GLY:108    0
Name: 18, dtype: object

>  <hbond:ASP:109>  (19) 
hbond:ASP:109    0
hbond:ASP:109    0
Name: 18, dtype: object

>  <hydroph_interaction:ASP:109>  (19) 
hydroph_interaction:ASP:109    0
hydroph_interaction:ASP:109    0
Name: 18, dtype: object

>  <saltbridge:ASP:109>  (19) 
saltbridge:ASP:109    0
saltbridge:ASP:109    0
Name: 18, dtype: object

>  <hbond:CYS:110>  (19) 
hbond:CYS:110    0
hbond:CYS:110    0
Name: 18, dtype: object

>  <halogenbond:CYS:110>  (19) 
halogenbond:CYS:110    0
halogenbond:CYS:110    0
Name: 18, dtype: object

>  <hbond:GLY:111>  (19) 
hbond:GLY:111    0
hbond:GLY:111    0
Name: 18, dtype: object

>  <hbond:GLY:112>  (19) 
hbond:GLY:112    0
hbond:GLY:112    0
Name: 18, dtype: object

>  <hbond:ILE:113>  (19) 
hbond:ILE:113    0
hbond:ILE:113    0
Name: 18, dtype: object

>  <hydroph_interaction:LEU:114>  (19) 
hydroph_interaction:LEU:114    0
hydroph_interaction:LEU:114    0
Name: 18, dtype: object

>  <hbond:LEU:114>  (19) 
hbond:LEU:114    0
hbond:LEU:114    0
Name: 18, dtype: object

>  <hydroph_interaction:ILE:123>  (19) 
hydroph_interaction:ILE:123    0
hydroph_interaction:ILE:123    0
Name: 18, dtype: object

>  <hbond:ILE:123>  (19) 
hbond:ILE:123    0
hbond:ILE:123    0
Name: 18, dtype: object

>  <hydroph_interaction:VAL:124>  (19) 
hydroph_interaction:VAL:124    0
hydroph_interaction:VAL:124    0
Name: 18, dtype: object

>  <hbond:VAL:124>  (19) 
hbond:VAL:124    0
hbond:VAL:124    0
Name: 18, dtype: object

>  <halogenbond:VAL:124>  (19) 
halogenbond:VAL:124    0
halogenbond:VAL:124    0
Name: 18, dtype: object

>  <hbond:SER:125>  (19) 
hbond:SER:125    1
hbond:SER:125    1
Name: 18, dtype: object

>  <halogenbond:SER:125>  (19) 
halogenbond:SER:125    0
halogenbond:SER:125    0
Name: 18, dtype: object

>  <hydroph_interaction:THR:126>  (19) 
hydroph_interaction:THR:126    0
hydroph_interaction:THR:126    0
Name: 18, dtype: object

>  <hbond:THR:126>  (19) 
hbond:THR:126    0
hbond:THR:126    0
Name: 18, dtype: object

>  <halogenbond:THR:126>  (19) 
halogenbond:THR:126    0
halogenbond:THR:126    0
Name: 18, dtype: object

>  <hbond:GLY:127>  (19) 
hbond:GLY:127    0
hbond:GLY:127    0
Name: 18, dtype: object

>  <halogenbond:GLY:127>  (19) 
halogenbond:GLY:127    0
halogenbond:GLY:127    0
Name: 18, dtype: object

>  <hydroph_interaction:GLY:127>  (19) 
hydroph_interaction:GLY:127    0
hydroph_interaction:GLY:127    0
Name: 18, dtype: object

>  <hbond:GLY:128>  (19) 
hbond:GLY:128    0
hbond:GLY:128    0
Name: 18, dtype: object

>  <halogenbond:GLY:128>  (19) 
halogenbond:GLY:128    0
halogenbond:GLY:128    0
Name: 18, dtype: object

>  <hydroph_interaction:GLY:128>  (19) 
hydroph_interaction:GLY:128    0
hydroph_interaction:GLY:128    0
Name: 18, dtype: object

>  <hbond:ASN:129>  (19) 
hbond:ASN:129    0
hbond:ASN:129    0
Name: 18, dtype: object

>  <hydroph_interaction:ASN:129>  (19) 
hydroph_interaction:ASN:129    0
hydroph_interaction:ASN:129    0
Name: 18, dtype: object

>  <halogenbond:ASN:129>  (19) 
halogenbond:ASN:129    0
halogenbond:ASN:129    0
Name: 18, dtype: object

>  <hbond:GLY:130>  (19) 
hbond:GLY:130    0
hbond:GLY:130    0
Name: 18, dtype: object

>  <hydroph_interaction:LEU:131>  (19) 
hydroph_interaction:LEU:131    0
hydroph_interaction:LEU:131    0
Name: 18, dtype: object

>  <hbond:LEU:131>  (19) 
hbond:LEU:131    0
hbond:LEU:131    0
Name: 18, dtype: object

>  <halogenbond:LEU:131>  (19) 
halogenbond:LEU:131    0
halogenbond:LEU:131    0
Name: 18, dtype: object

>  <hydroph_interaction:VAL:132>  (19) 
hydroph_interaction:VAL:132    0
hydroph_interaction:VAL:132    0
Name: 18, dtype: object

>  <hbond:VAL:132>  (19) 
hbond:VAL:132    0
hbond:VAL:132    0
Name: 18, dtype: object

>  <hbond:GLY:133>  (19) 
hbond:GLY:133    0
hbond:GLY:133    0
Name: 18, dtype: object

>  <halogenbond:GLY:133>  (19) 
halogenbond:GLY:133    0
halogenbond:GLY:133    0
Name: 18, dtype: object

>  <hydroph_interaction:PHE:134>  (19) 
hydroph_interaction:PHE:134    0
hydroph_interaction:PHE:134    0
Name: 18, dtype: object

>  <hbond:PHE:134>  (19) 
hbond:PHE:134    0
hbond:PHE:134    0
Name: 18, dtype: object

>  <pistack:PHE:134>  (19) 
pistack:PHE:134    0
pistack:PHE:134    0
Name: 18, dtype: object

>  <pication:PHE:134>  (19) 
pication:PHE:134    0
pication:PHE:134    0
Name: 18, dtype: object

>  <hydroph_interaction:ALA:135>  (19) 
hydroph_interaction:ALA:135    0
hydroph_interaction:ALA:135    0
Name: 18, dtype: object

>  <hbond:ALA:135>  (19) 
hbond:ALA:135    0
hbond:ALA:135    0
Name: 18, dtype: object

$$$$
Z2518855390
     RDKit          3D

 33 34  0  0  0  0  0  0  0  0999 V2000
    9.8290    8.9970   23.1880 C   0  0  0  0  0  0  0  0  0  0  0  0
    9.5300   10.3610   23.4140 N   0  0  0  0  0  0  0  0  0  0  0  0
    8.6410   10.8720   24.3160 C   0  0  0  0  0  0  0  0  0  0  0  0
    8.6810   12.2400   24.1820 C   0  0  0  0  0  0  0  0  0  0  0  0
    9.6260   12.5310   23.1610 C   0  0  0  0  0  0  0  0  0  0  0  0
   10.1000   13.6830   22.5520 C   0  0  0  0  0  0  0  0  0  0  0  0
   11.4210   14.0930   22.9770 N   0  0  0  0  0  0  0  0  0  0  0  0
   12.4100   14.2330   22.1730 C   0  0  0  0  0  0  0  0  0  0  0  0
   12.4530   14.0370   20.8260 N   0  0  0  0  0  0  0  0  0  0  0  0
   13.6570   14.6190   22.5320 N   0  0  0  0  0  0  0  0  0  0  0  0
   14.7650   13.8020   22.8160 C   0  0  0  0  0  0  0  0  0  0  0  0
   15.0760   13.5000   24.1490 C   0  0  0  0  0  0  0  0  0  0  0  0
   16.1710   12.6950   24.4730 C   0  0  0  0  0  0  0  0  0  0  0  0
   16.9840   12.1730   23.4930 C   0  0  0  0  0  0  0  0  0  0  0  0
   16.6820   12.4660   22.1730 C   0  0  0  0  0  0  0  0  0  0  0  0
   15.5920   13.2650   21.8380 C   0  0  0  0  0  0  0  0  0  0  0  0
   10.1340   11.3390   22.7200 C   0  0  0  0  0  0  0  0  0  0  0  0
   10.9160    8.8740   23.1560 H   0  0  0  0  0  0  0  0  0  0  0  0
    9.4210    8.4510   24.0190 H   0  0  0  0  0  0  0  0  0  0  0  0
    9.3670    8.6770   22.2540 H   0  0  0  0  0  0  0  0  0  0  0  0
    8.0610   10.2320   24.9700 H   0  0  0  0  0  0  0  0  0  0  0  0
    8.0930   12.9490   24.7500 H   0  0  0  0  0  0  0  0  0  0  0  0
    9.4390   14.5250   22.5610 H   0  0  0  0  0  0  0  0  0  0  0  0
   10.2000   13.4480   21.4910 H   0  0  0  0  0  0  0  0  0  0  0  0
   11.8140   13.3100   20.5250 H   0  0  0  0  0  0  0  0  0  0  0  0
   13.3780   13.7110   20.5600 H   0  0  0  0  0  0  0  0  0  0  0  0
   13.9180   15.4380   22.0060 H   0  0  0  0  0  0  0  0  0  0  0  0
   14.4640   13.8910   24.9590 H   0  0  0  0  0  0  0  0  0  0  0  0
   16.3830   12.4790   25.5160 H   0  0  0  0  0  0  0  0  0  0  0  0
   17.8370   11.5480   23.7430 H   0  0  0  0  0  0  0  0  0  0  0  0
   17.2940   12.0710   21.3740 H   0  0  0  0  0  0  0  0  0  0  0  0
   15.4050   13.4590   20.7830 H   0  0  0  0  0  0  0  0  0  0  0  0
   10.8640   11.1100   21.9730 H   0  0  0  0  0  0  0  0  0  0  0  0
  1  2  1  0
  2  3  1  0
  3  4  2  0
  4  5  1  0
  5  6  1  0
  6  7  1  0
  7  8  2  3
  8  9  1  0
  8 10  1  0
 10 11  1  0
 11 12  2  0
 12 13  1  0
 13 14  2  0
 14 15  1  0
 15 16  2  0
  5 17  2  0
 17  2  1  0
 16 11  1  0
  1 18  1  0
  1 19  1  0
  1 20  1  0
  3 21  1  0
  4 22  1  0
  6 23  1  0
  6 24  1  0
  9 25  1  0
  9 26  1  0
 10 27  1  0
 12 28  1  0
 13 29  1  0
 14 30  1  0
 15 31  1  0
 16 32  1  0
 17 33  1  0
A    1
 C1 
A    2
 N1 
A    3
 C2 
A    4
 C3 
A    5
 C4 
A    6
 C5 
A    7
 N2 
A    8
 C6 
A    9
 N3 
A   10
 N4 
A   11
 C7 
A   12
 C8 
A   13
 C9 
A   14
 C10
A   15
 C11
A   16
 C12
A   17
 C13
A   18
 H1 
A   19
 H2 
A   20
 H3 
A   21
 H4 
A   22
 H5 
A   23
 H6 
A   24
 H7 
A   25
 H8 
A   26
 H9 
A   27
 H10
A   28
 H11
A   29
 H12
A   30
 H13
A   31
 H14
A   32
 H15
A   33
 H16
M  END
>  <ref_pdb>  (20) 
x0310_0A

>  <ref_mols>  (20) 
x0451_0A,x0416_0A

>  <original SMILES>  (20) 
Cn1ccc(CN=C(N)Nc2ccccc2)c1

>  <rationale>  (20) 
info hbond:E88+S87+D39; hydroph_interaction:Y89+H21+L22+N19; 

>  <intxn_cluster>  (20) 
206

>  <intxn_cluster_rank>  (20) 
4

>  <N_interactions>  (20) 
7

>  <∆∆G>  (20) 
-10.436666

>  <$/mg>  (20) 
163.0

>  <comRMSD>  (20) 
0.865565

>  <N_rotatable_bonds>  (20) 
4

>  <N_analogues_07>  (20) 
0

>  <deep_P1_sidechain>  (20) 
False

>  <farthest_distance_to_substrate>  (20) 
2.695935

>  <hbond:SER:7>  (20) 
hbond:SER:7    0
hbond:SER:7    0
Name: 19, dtype: object

>  <halogenbond:SER:7>  (20) 
halogenbond:SER:7    0
halogenbond:SER:7    0
Name: 19, dtype: object

>  <hbond:GLY:8>  (20) 
hbond:GLY:8    0
hbond:GLY:8    0
Name: 19, dtype: object

>  <hydroph_interaction:ASN:19>  (20) 
hydroph_interaction:ASN:19    1
hydroph_interaction:ASN:19    1
Name: 19, dtype: object

>  <hbond:ASN:19>  (20) 
hbond:ASN:19    0
hbond:ASN:19    0
Name: 19, dtype: object

>  <halogenbond:ASN:19>  (20) 
halogenbond:ASN:19    0
halogenbond:ASN:19    0
Name: 19, dtype: object

>  <hbond:ARG:20>  (20) 
hbond:ARG:20    0
hbond:ARG:20    0
Name: 19, dtype: object

>  <hydroph_interaction:ARG:20>  (20) 
hydroph_interaction:ARG:20    0
hydroph_interaction:ARG:20    0
Name: 19, dtype: object

>  <saltbridge:ARG:20>  (20) 
saltbridge:ARG:20    0
saltbridge:ARG:20    0
Name: 19, dtype: object

>  <halogenbond:ARG:20>  (20) 
halogenbond:ARG:20    0
halogenbond:ARG:20    0
Name: 19, dtype: object

>  <pication:ARG:20>  (20) 
pication:ARG:20    0
pication:ARG:20    0
Name: 19, dtype: object

>  <hbond:HIS:21>  (20) 
hbond:HIS:21    0
hbond:HIS:21    0
Name: 19, dtype: object

>  <hydroph_interaction:HIS:21>  (20) 
hydroph_interaction:HIS:21    1
hydroph_interaction:HIS:21    1
Name: 19, dtype: object

>  <saltbridge:HIS:21>  (20) 
saltbridge:HIS:21    0
saltbridge:HIS:21    0
Name: 19, dtype: object

>  <pistack:HIS:21>  (20) 
pistack:HIS:21    0
pistack:HIS:21    0
Name: 19, dtype: object

>  <pication:HIS:21>  (20) 
pication:HIS:21    0
pication:HIS:21    0
Name: 19, dtype: object

>  <halogenbond:HIS:21>  (20) 
halogenbond:HIS:21    0
halogenbond:HIS:21    0
Name: 19, dtype: object

>  <hydroph_interaction:LEU:22>  (20) 
hydroph_interaction:LEU:22    1
hydroph_interaction:LEU:22    1
Name: 19, dtype: object

>  <hbond:LEU:22>  (20) 
hbond:LEU:22    0
hbond:LEU:22    0
Name: 19, dtype: object

>  <hydroph_interaction:TRP:28>  (20) 
hydroph_interaction:TRP:28    0
hydroph_interaction:TRP:28    0
Name: 19, dtype: object

>  <hbond:SER:36>  (20) 
hbond:SER:36    0
hbond:SER:36    0
Name: 19, dtype: object

>  <halogenbond:SER:36>  (20) 
halogenbond:SER:36    0
halogenbond:SER:36    0
Name: 19, dtype: object

>  <hbond:ARG:38>  (20) 
hbond:ARG:38    0
hbond:ARG:38    0
Name: 19, dtype: object

>  <halogenbond:ARG:38>  (20) 
halogenbond:ARG:38    0
halogenbond:ARG:38    0
Name: 19, dtype: object

>  <hbond:ASP:39>  (20) 
hbond:ASP:39    1
hbond:ASP:39    1
Name: 19, dtype: object

>  <saltbridge:ASP:39>  (20) 
saltbridge:ASP:39    0
saltbridge:ASP:39    0
Name: 19, dtype: object

>  <hydroph_interaction:ASP:39>  (20) 
hydroph_interaction:ASP:39    0
hydroph_interaction:ASP:39    0
Name: 19, dtype: object

>  <halogenbond:ASP:39>  (20) 
halogenbond:ASP:39    0
halogenbond:ASP:39    0
Name: 19, dtype: object

>  <hydroph_interaction:LEU:40>  (20) 
hydroph_interaction:LEU:40    0
hydroph_interaction:LEU:40    0
Name: 19, dtype: object

>  <hydroph_interaction:TYR:63>  (20) 
hydroph_interaction:TYR:63    0
hydroph_interaction:TYR:63    0
Name: 19, dtype: object

>  <pistack:TYR:63>  (20) 
pistack:TYR:63    0
pistack:TYR:63    0
Name: 19, dtype: object

>  <hbond:TYR:63>  (20) 
hbond:TYR:63    0
hbond:TYR:63    0
Name: 19, dtype: object

>  <hbond:TYR:64>  (20) 
hbond:TYR:64    0
hbond:TYR:64    0
Name: 19, dtype: object

>  <halogenbond:TYR:64>  (20) 
halogenbond:TYR:64    0
halogenbond:TYR:64    0
Name: 19, dtype: object

>  <hydroph_interaction:TYR:64>  (20) 
hydroph_interaction:TYR:64    0
hydroph_interaction:TYR:64    0
Name: 19, dtype: object

>  <hbond:CYS:65>  (20) 
hbond:CYS:65    0
hbond:CYS:65    0
Name: 19, dtype: object

>  <halogenbond:CYS:65>  (20) 
halogenbond:CYS:65    0
halogenbond:CYS:65    0
Name: 19, dtype: object

>  <hbond:SER:66>  (20) 
hbond:SER:66    0
hbond:SER:66    0
Name: 19, dtype: object

>  <hbond:SER:67>  (20) 
hbond:SER:67    0
hbond:SER:67    0
Name: 19, dtype: object

>  <halogenbond:SER:67>  (20) 
halogenbond:SER:67    0
halogenbond:SER:67    0
Name: 19, dtype: object

>  <hydroph_interaction:ARG:68>  (20) 
hydroph_interaction:ARG:68    0
hydroph_interaction:ARG:68    0
Name: 19, dtype: object

>  <hbond:ARG:68>  (20) 
hbond:ARG:68    0
hbond:ARG:68    0
Name: 19, dtype: object

>  <saltbridge:ARG:68>  (20) 
saltbridge:ARG:68    0
saltbridge:ARG:68    0
Name: 19, dtype: object

>  <pication:ARG:68>  (20) 
pication:ARG:68    0
pication:ARG:68    0
Name: 19, dtype: object

>  <hydroph_interaction:TYR:72>  (20) 
hydroph_interaction:TYR:72    0
hydroph_interaction:TYR:72    0
Name: 19, dtype: object

>  <hydroph_interaction:VAL:74>  (20) 
hydroph_interaction:VAL:74    0
hydroph_interaction:VAL:74    0
Name: 19, dtype: object

>  <hydroph_interaction:PHE:76>  (20) 
hydroph_interaction:PHE:76    0
hydroph_interaction:PHE:76    0
Name: 19, dtype: object

>  <hbond:SER:77>  (20) 
hbond:SER:77    0
hbond:SER:77    0
Name: 19, dtype: object

>  <hbond:SER:80>  (20) 
hbond:SER:80    0
hbond:SER:80    0
Name: 19, dtype: object

>  <hbond:LEU:81>  (20) 
hbond:LEU:81    0
hbond:LEU:81    0
Name: 19, dtype: object

>  <halogenbond:LEU:81>  (20) 
halogenbond:LEU:81    0
halogenbond:LEU:81    0
Name: 19, dtype: object

>  <hydroph_interaction:LEU:81>  (20) 
hydroph_interaction:LEU:81    0
hydroph_interaction:LEU:81    0
Name: 19, dtype: object

>  <hydroph_interaction:ILE:82>  (20) 
hydroph_interaction:ILE:82    0
hydroph_interaction:ILE:82    0
Name: 19, dtype: object

>  <hbond:ILE:82>  (20) 
hbond:ILE:82    0
hbond:ILE:82    0
Name: 19, dtype: object

>  <hydroph_interaction:PHE:83>  (20) 
hydroph_interaction:PHE:83    0
hydroph_interaction:PHE:83    0
Name: 19, dtype: object

>  <hbond:PHE:83>  (20) 
hbond:PHE:83    0
hbond:PHE:83    0
Name: 19, dtype: object

>  <halogenbond:PHE:83>  (20) 
halogenbond:PHE:83    0
halogenbond:PHE:83    0
Name: 19, dtype: object

>  <pistack:PHE:83>  (20) 
pistack:PHE:83    0
pistack:PHE:83    0
Name: 19, dtype: object

>  <hydroph_interaction:VAL:84>  (20) 
hydroph_interaction:VAL:84    0
hydroph_interaction:VAL:84    0
Name: 19, dtype: object

>  <hbond:VAL:84>  (20) 
hbond:VAL:84    0
hbond:VAL:84    0
Name: 19, dtype: object

>  <halogenbond:VAL:84>  (20) 
halogenbond:VAL:84    0
halogenbond:VAL:84    0
Name: 19, dtype: object

>  <hydroph_interaction:GLU:85>  (20) 
hydroph_interaction:GLU:85    0
hydroph_interaction:GLU:85    0
Name: 19, dtype: object

>  <hbond:GLU:85>  (20) 
hbond:GLU:85    0
hbond:GLU:85    0
Name: 19, dtype: object

>  <saltbridge:GLU:85>  (20) 
saltbridge:GLU:85    0
saltbridge:GLU:85    0
Name: 19, dtype: object

>  <halogenbond:GLU:85>  (20) 
halogenbond:GLU:85    0
halogenbond:GLU:85    0
Name: 19, dtype: object

>  <hbond:ALA:86>  (20) 
hbond:ALA:86    0
hbond:ALA:86    0
Name: 19, dtype: object

>  <halogenbond:ALA:86>  (20) 
halogenbond:ALA:86    0
halogenbond:ALA:86    0
Name: 19, dtype: object

>  <hydroph_interaction:ALA:86>  (20) 
hydroph_interaction:ALA:86    0
hydroph_interaction:ALA:86    0
Name: 19, dtype: object

>  <hbond:SER:87>  (20) 
hbond:SER:87    1
hbond:SER:87    1
Name: 19, dtype: object

>  <halogenbond:SER:87>  (20) 
halogenbond:SER:87    0
halogenbond:SER:87    0
Name: 19, dtype: object

>  <hbond:GLU:88>  (20) 
hbond:GLU:88    1
hbond:GLU:88    1
Name: 19, dtype: object

>  <hydroph_interaction:GLU:88>  (20) 
hydroph_interaction:GLU:88    0
hydroph_interaction:GLU:88    0
Name: 19, dtype: object

>  <halogenbond:GLU:88>  (20) 
halogenbond:GLU:88    0
halogenbond:GLU:88    0
Name: 19, dtype: object

>  <saltbridge:GLU:88>  (20) 
saltbridge:GLU:88    0
saltbridge:GLU:88    0
Name: 19, dtype: object

>  <hydroph_interaction:TYR:89>  (20) 
hydroph_interaction:TYR:89    1
hydroph_interaction:TYR:89    1
Name: 19, dtype: object

>  <pistack:TYR:89>  (20) 
pistack:TYR:89    0
pistack:TYR:89    0
Name: 19, dtype: object

>  <hbond:TYR:89>  (20) 
hbond:TYR:89    0
hbond:TYR:89    0
Name: 19, dtype: object

>  <halogenbond:TYR:89>  (20) 
halogenbond:TYR:89    0
halogenbond:TYR:89    0
Name: 19, dtype: object

>  <hbond:TYR:90>  (20) 
hbond:TYR:90    0
hbond:TYR:90    0
Name: 19, dtype: object

>  <hydroph_interaction:TYR:90>  (20) 
hydroph_interaction:TYR:90    0
hydroph_interaction:TYR:90    0
Name: 19, dtype: object

>  <pistack:TYR:90>  (20) 
pistack:TYR:90    0
pistack:TYR:90    0
Name: 19, dtype: object

>  <halogenbond:TYR:90>  (20) 
halogenbond:TYR:90    0
halogenbond:TYR:90    0
Name: 19, dtype: object

>  <pication:TYR:90>  (20) 
pication:TYR:90    0
pication:TYR:90    0
Name: 19, dtype: object

>  <hydroph_interaction:PRO:91>  (20) 
hydroph_interaction:PRO:91    0
hydroph_interaction:PRO:91    0
Name: 19, dtype: object

>  <halogenbond:PRO:91>  (20) 
halogenbond:PRO:91    0
halogenbond:PRO:91    0
Name: 19, dtype: object

>  <hbond:PRO:91>  (20) 
hbond:PRO:91    0
hbond:PRO:91    0
Name: 19, dtype: object

>  <hydroph_interaction:ALA:92>  (20) 
hydroph_interaction:ALA:92    0
hydroph_interaction:ALA:92    0
Name: 19, dtype: object

>  <hbond:ARG:93>  (20) 
hbond:ARG:93    0
hbond:ARG:93    0
Name: 19, dtype: object

>  <pication:ARG:93>  (20) 
pication:ARG:93    0
pication:ARG:93    0
Name: 19, dtype: object

>  <saltbridge:ARG:93>  (20) 
saltbridge:ARG:93    0
saltbridge:ARG:93    0
Name: 19, dtype: object

>  <hydroph_interaction:ARG:93>  (20) 
hydroph_interaction:ARG:93    0
hydroph_interaction:ARG:93    0
Name: 19, dtype: object

>  <halogenbond:ARG:93>  (20) 
halogenbond:ARG:93    0
halogenbond:ARG:93    0
Name: 19, dtype: object

>  <hydroph_interaction:TYR:94>  (20) 
hydroph_interaction:TYR:94    0
hydroph_interaction:TYR:94    0
Name: 19, dtype: object

>  <hbond:TYR:94>  (20) 
hbond:TYR:94    0
hbond:TYR:94    0
Name: 19, dtype: object

>  <halogenbond:GLN:95>  (20) 
halogenbond:GLN:95    0
halogenbond:GLN:95    0
Name: 19, dtype: object

>  <hbond:GLN:95>  (20) 
hbond:GLN:95    0
hbond:GLN:95    0
Name: 19, dtype: object

>  <hydroph_interaction:GLN:95>  (20) 
hydroph_interaction:GLN:95    0
hydroph_interaction:GLN:95    0
Name: 19, dtype: object

>  <hbond:SER:96>  (20) 
hbond:SER:96    0
hbond:SER:96    0
Name: 19, dtype: object

>  <hydroph_interaction:LEU:98>  (20) 
hydroph_interaction:LEU:98    0
hydroph_interaction:LEU:98    0
Name: 19, dtype: object

>  <hbond:LEU:98>  (20) 
hbond:LEU:98    0
hbond:LEU:98    0
Name: 19, dtype: object

>  <hbond:MET:99>  (20) 
hbond:MET:99    0
hbond:MET:99    0
Name: 19, dtype: object

>  <hydroph_interaction:MET:99>  (20) 
hydroph_interaction:MET:99    0
hydroph_interaction:MET:99    0
Name: 19, dtype: object

>  <halogenbond:MET:99>  (20) 
halogenbond:MET:99    0
halogenbond:MET:99    0
Name: 19, dtype: object

>  <hydroph_interaction:LEU:100>  (20) 
hydroph_interaction:LEU:100    0
hydroph_interaction:LEU:100    0
Name: 19, dtype: object

>  <hbond:LEU:100>  (20) 
hbond:LEU:100    0
hbond:LEU:100    0
Name: 19, dtype: object

>  <hbond:ALA:101>  (20) 
hbond:ALA:101    0
hbond:ALA:101    0
Name: 19, dtype: object

>  <hydroph_interaction:ALA:101>  (20) 
hydroph_interaction:ALA:101    0
hydroph_interaction:ALA:101    0
Name: 19, dtype: object

>  <hydroph_interaction:VAL:102>  (20) 
hydroph_interaction:VAL:102    0
hydroph_interaction:VAL:102    0
Name: 19, dtype: object

>  <hbond:VAL:102>  (20) 
hbond:VAL:102    0
hbond:VAL:102    0
Name: 19, dtype: object

>  <hbond:GLY:103>  (20) 
hbond:GLY:103    0
hbond:GLY:103    0
Name: 19, dtype: object

>  <halogenbond:GLY:103>  (20) 
halogenbond:GLY:103    0
halogenbond:GLY:103    0
Name: 19, dtype: object

>  <hydroph_interaction:HIS:104>  (20) 
hydroph_interaction:HIS:104    0
hydroph_interaction:HIS:104    0
Name: 19, dtype: object

>  <hbond:HIS:104>  (20) 
hbond:HIS:104    0
hbond:HIS:104    0
Name: 19, dtype: object

>  <saltbridge:HIS:104>  (20) 
saltbridge:HIS:104    0
saltbridge:HIS:104    0
Name: 19, dtype: object

>  <pication:HIS:104>  (20) 
pication:HIS:104    0
pication:HIS:104    0
Name: 19, dtype: object

>  <pistack:HIS:104>  (20) 
pistack:HIS:104    0
pistack:HIS:104    0
Name: 19, dtype: object

>  <halogenbond:HIS:104>  (20) 
halogenbond:HIS:104    0
halogenbond:HIS:104    0
Name: 19, dtype: object

>  <hbond:SER:105>  (20) 
hbond:SER:105    0
hbond:SER:105    0
Name: 19, dtype: object

>  <halogenbond:SER:105>  (20) 
halogenbond:SER:105    0
halogenbond:SER:105    0
Name: 19, dtype: object

>  <hbond:GLU:106>  (20) 
hbond:GLU:106    0
hbond:GLU:106    0
Name: 19, dtype: object

>  <hydroph_interaction:GLU:106>  (20) 
hydroph_interaction:GLU:106    0
hydroph_interaction:GLU:106    0
Name: 19, dtype: object

>  <saltbridge:GLU:106>  (20) 
saltbridge:GLU:106    0
saltbridge:GLU:106    0
Name: 19, dtype: object

>  <halogenbond:GLU:106>  (20) 
halogenbond:GLU:106    0
halogenbond:GLU:106    0
Name: 19, dtype: object

>  <hydroph_interaction:PRO:107>  (20) 
hydroph_interaction:PRO:107    0
hydroph_interaction:PRO:107    0
Name: 19, dtype: object

>  <hbond:PRO:107>  (20) 
hbond:PRO:107    0
hbond:PRO:107    0
Name: 19, dtype: object

>  <halogenbond:PRO:107>  (20) 
halogenbond:PRO:107    0
halogenbond:PRO:107    0
Name: 19, dtype: object

>  <hbond:GLY:108>  (20) 
hbond:GLY:108    0
hbond:GLY:108    0
Name: 19, dtype: object

>  <halogenbond:GLY:108>  (20) 
halogenbond:GLY:108    0
halogenbond:GLY:108    0
Name: 19, dtype: object

>  <hbond:ASP:109>  (20) 
hbond:ASP:109    0
hbond:ASP:109    0
Name: 19, dtype: object

>  <hydroph_interaction:ASP:109>  (20) 
hydroph_interaction:ASP:109    0
hydroph_interaction:ASP:109    0
Name: 19, dtype: object

>  <saltbridge:ASP:109>  (20) 
saltbridge:ASP:109    0
saltbridge:ASP:109    0
Name: 19, dtype: object

>  <hbond:CYS:110>  (20) 
hbond:CYS:110    0
hbond:CYS:110    0
Name: 19, dtype: object

>  <halogenbond:CYS:110>  (20) 
halogenbond:CYS:110    0
halogenbond:CYS:110    0
Name: 19, dtype: object

>  <hbond:GLY:111>  (20) 
hbond:GLY:111    0
hbond:GLY:111    0
Name: 19, dtype: object

>  <hbond:GLY:112>  (20) 
hbond:GLY:112    0
hbond:GLY:112    0
Name: 19, dtype: object

>  <hbond:ILE:113>  (20) 
hbond:ILE:113    0
hbond:ILE:113    0
Name: 19, dtype: object

>  <hydroph_interaction:LEU:114>  (20) 
hydroph_interaction:LEU:114    0
hydroph_interaction:LEU:114    0
Name: 19, dtype: object

>  <hbond:LEU:114>  (20) 
hbond:LEU:114    0
hbond:LEU:114    0
Name: 19, dtype: object

>  <hydroph_interaction:ILE:123>  (20) 
hydroph_interaction:ILE:123    0
hydroph_interaction:ILE:123    0
Name: 19, dtype: object

>  <hbond:ILE:123>  (20) 
hbond:ILE:123    0
hbond:ILE:123    0
Name: 19, dtype: object

>  <hydroph_interaction:VAL:124>  (20) 
hydroph_interaction:VAL:124    0
hydroph_interaction:VAL:124    0
Name: 19, dtype: object

>  <hbond:VAL:124>  (20) 
hbond:VAL:124    0
hbond:VAL:124    0
Name: 19, dtype: object

>  <halogenbond:VAL:124>  (20) 
halogenbond:VAL:124    0
halogenbond:VAL:124    0
Name: 19, dtype: object

>  <hbond:SER:125>  (20) 
hbond:SER:125    0
hbond:SER:125    0
Name: 19, dtype: object

>  <halogenbond:SER:125>  (20) 
halogenbond:SER:125    0
halogenbond:SER:125    0
Name: 19, dtype: object

>  <hydroph_interaction:THR:126>  (20) 
hydroph_interaction:THR:126    0
hydroph_interaction:THR:126    0
Name: 19, dtype: object

>  <hbond:THR:126>  (20) 
hbond:THR:126    0
hbond:THR:126    0
Name: 19, dtype: object

>  <halogenbond:THR:126>  (20) 
halogenbond:THR:126    0
halogenbond:THR:126    0
Name: 19, dtype: object

>  <hbond:GLY:127>  (20) 
hbond:GLY:127    0
hbond:GLY:127    0
Name: 19, dtype: object

>  <halogenbond:GLY:127>  (20) 
halogenbond:GLY:127    0
halogenbond:GLY:127    0
Name: 19, dtype: object

>  <hydroph_interaction:GLY:127>  (20) 
hydroph_interaction:GLY:127    0
hydroph_interaction:GLY:127    0
Name: 19, dtype: object

>  <hbond:GLY:128>  (20) 
hbond:GLY:128    0
hbond:GLY:128    0
Name: 19, dtype: object

>  <halogenbond:GLY:128>  (20) 
halogenbond:GLY:128    0
halogenbond:GLY:128    0
Name: 19, dtype: object

>  <hydroph_interaction:GLY:128>  (20) 
hydroph_interaction:GLY:128    0
hydroph_interaction:GLY:128    0
Name: 19, dtype: object

>  <hbond:ASN:129>  (20) 
hbond:ASN:129    0
hbond:ASN:129    0
Name: 19, dtype: object

>  <hydroph_interaction:ASN:129>  (20) 
hydroph_interaction:ASN:129    0
hydroph_interaction:ASN:129    0
Name: 19, dtype: object

>  <halogenbond:ASN:129>  (20) 
halogenbond:ASN:129    0
halogenbond:ASN:129    0
Name: 19, dtype: object

>  <hbond:GLY:130>  (20) 
hbond:GLY:130    0
hbond:GLY:130    0
Name: 19, dtype: object

>  <hydroph_interaction:LEU:131>  (20) 
hydroph_interaction:LEU:131    0
hydroph_interaction:LEU:131    0
Name: 19, dtype: object

>  <hbond:LEU:131>  (20) 
hbond:LEU:131    0
hbond:LEU:131    0
Name: 19, dtype: object

>  <halogenbond:LEU:131>  (20) 
halogenbond:LEU:131    0
halogenbond:LEU:131    0
Name: 19, dtype: object

>  <hydroph_interaction:VAL:132>  (20) 
hydroph_interaction:VAL:132    0
hydroph_interaction:VAL:132    0
Name: 19, dtype: object

>  <hbond:VAL:132>  (20) 
hbond:VAL:132    0
hbond:VAL:132    0
Name: 19, dtype: object

>  <hbond:GLY:133>  (20) 
hbond:GLY:133    0
hbond:GLY:133    0
Name: 19, dtype: object

>  <halogenbond:GLY:133>  (20) 
halogenbond:GLY:133    0
halogenbond:GLY:133    0
Name: 19, dtype: object

>  <hydroph_interaction:PHE:134>  (20) 
hydroph_interaction:PHE:134    0
hydroph_interaction:PHE:134    0
Name: 19, dtype: object

>  <hbond:PHE:134>  (20) 
hbond:PHE:134    0
hbond:PHE:134    0
Name: 19, dtype: object

>  <pistack:PHE:134>  (20) 
pistack:PHE:134    0
pistack:PHE:134    0
Name: 19, dtype: object

>  <pication:PHE:134>  (20) 
pication:PHE:134    0
pication:PHE:134    0
Name: 19, dtype: object

>  <hydroph_interaction:ALA:135>  (20) 
hydroph_interaction:ALA:135    0
hydroph_interaction:ALA:135    0
Name: 19, dtype: object

>  <hbond:ALA:135>  (20) 
hbond:ALA:135    0
hbond:ALA:135    0
Name: 19, dtype: object

$$$$
Z3339269550
     RDKit          3D

 43 44  0  0  0  0  0  0  0  0999 V2000
   20.0560   12.4900   25.2160 C   0  0  0  0  0  0  0  0  0  0  0  0
   19.1960   11.4120   25.5780 O   0  0  0  0  0  0  0  0  0  0  0  0
   18.1620   11.2100   24.7000 C   0  0  0  0  0  0  0  0  0  0  0  0
   18.0770   10.2120   23.9900 O   0  0  0  0  0  0  0  0  0  0  0  0
   17.1930   12.3250   24.7140 C   0  0  0  0  0  0  0  0  0  0  0  0
   15.8290   12.3870   24.4160 C   0  0  0  0  0  0  0  0  0  0  0  0
   15.3390   13.7080   24.5700 C   0  0  0  0  0  0  0  0  0  0  0  0
   13.8860   13.8610   24.2580 C   0  0  0  0  0  0  0  0  0  0  0  0
   13.7650   14.4220   22.9080 N   0  0  0  0  0  0  0  0  0  0  0  0
   12.4010   14.8370   22.4770 C   0  0  0  0  0  0  0  0  0  0  0  0
   12.1920   14.8650   21.0170 C   0  0  0  0  0  0  0  0  0  0  0  0
   11.3030   14.0470   23.2310 C   0  0  0  0  0  0  0  0  0  0  0  0
   11.0840   14.2760   24.4160 O   0  0  0  0  0  0  0  0  0  0  0  0
   10.6340   13.1180   22.5240 N   0  0  0  0  0  0  0  0  0  0  0  0
    9.8750   12.1360   23.1620 C   0  0  0  0  0  0  0  0  0  0  0  0
   10.0280   10.6700   22.9490 C   0  0  0  0  0  0  0  0  0  0  0  0
    9.2230    9.8210   23.6570 C   0  0  0  0  0  0  0  0  0  0  0  0
    8.2810   10.3140   24.5520 C   0  0  0  0  0  0  0  0  0  0  0  0
    8.1270   11.6770   24.7540 C   0  0  0  0  0  0  0  0  0  0  0  0
    8.9120   12.5820   24.0710 C   0  0  0  0  0  0  0  0  0  0  0  0
   16.2840   14.6100   24.9740 C   0  0  0  0  0  0  0  0  0  0  0  0
   16.1400   15.9550   25.2120 C   0  0  0  0  0  0  0  0  0  0  0  0
   17.7950   13.8650   25.1700 S   0  0  0  0  0  0  0  0  0  0  0  0
   21.0590   12.1220   24.9760 H   0  0  0  0  0  0  0  0  0  0  0  0
   20.1010   13.2370   26.0160 H   0  0  0  0  0  0  0  0  0  0  0  0
   19.6430   12.9710   24.3260 H   0  0  0  0  0  0  0  0  0  0  0  0
   15.2300   11.5410   24.1040 H   0  0  0  0  0  0  0  0  0  0  0  0
   13.4060   14.4920   25.0160 H   0  0  0  0  0  0  0  0  0  0  0  0
   13.4120   12.8730   24.2990 H   0  0  0  0  0  0  0  0  0  0  0  0
   14.0720   13.6900   22.2600 H   0  0  0  0  0  0  0  0  0  0  0  0
   12.3040   15.8690   22.8340 H   0  0  0  0  0  0  0  0  0  0  0  0
   11.1950   15.2470   20.7820 H   0  0  0  0  0  0  0  0  0  0  0  0
   12.9150   15.5390   20.5540 H   0  0  0  0  0  0  0  0  0  0  0  0
   12.3040   13.8740   20.5830 H   0  0  0  0  0  0  0  0  0  0  0  0
   10.9900   12.8480   21.6040 H   0  0  0  0  0  0  0  0  0  0  0  0
   10.7570   10.2710   22.2520 H   0  0  0  0  0  0  0  0  0  0  0  0
    9.3310    8.7770   23.5110 H   0  0  0  0  0  0  0  0  0  0  0  0
    7.6550    9.6250   25.1010 H   0  0  0  0  0  0  0  0  0  0  0  0
    7.3820   12.0350   25.4590 H   0  0  0  0  0  0  0  0  0  0  0  0
    8.7710   13.6440   24.2530 H   0  0  0  0  0  0  0  0  0  0  0  0
   15.3730   16.1410   25.9700 H   0  0  0  0  0  0  0  0  0  0  0  0
   15.8330   16.4260   24.2880 H   0  0  0  0  0  0  0  0  0  0  0  0
   17.0680   16.4270   25.5500 H   0  0  0  0  0  0  0  0  0  0  0  0
  1  2  1  0
  2  3  1  0
  3  4  2  0
  3  5  1  0
  5  6  2  0
  6  7  1  0
  7  8  1  0
  8  9  1  0
  9 10  1  0
 10 11  1  0
 10 12  1  0
 12 13  2  0
 12 14  1  0
 14 15  1  0
 15 16  2  0
 16 17  1  0
 17 18  2  0
 18 19  1  0
 19 20  2  0
  7 21  2  0
 21 22  1  0
 21 23  1  0
 23  5  1  0
 20 15  1  0
  1 24  1  0
  1 25  1  0
  1 26  1  0
  6 27  1  0
  8 28  1  0
  8 29  1  0
  9 30  1  0
 10 31  1  0
 11 32  1  0
 11 33  1  0
 11 34  1  0
 14 35  1  0
 16 36  1  0
 17 37  1  0
 18 38  1  0
 19 39  1  0
 20 40  1  0
 22 41  1  0
 22 42  1  0
 22 43  1  0
A    1
 C1 
A    2
 O1 
A    3
 C2 
A    4
 O2 
A    5
 C3 
A    6
 C4 
A    7
 C5 
A    8
 C6 
A    9
 N1 
A   10
 C7 
A   11
 C8 
A   12
 C9 
A   13
 O3 
A   14
 N2 
A   15
 C10
A   16
 C11
A   17
 C12
A   18
 C13
A   19
 C14
A   20
 C15
A   21
 C16
A   22
 C17
A   23
 S1 
A   24
 H1 
A   25
 H2 
A   26
 H3 
A   27
 H4 
A   28
 H5 
A   29
 H6 
A   30
 H7 
A   31
 H8 
A   32
 H9 
A   33
 H10
A   34
 H11
A   35
 H12
A   36
 H13
A   37
 H14
A   38
 H15
A   39
 H16
A   40
 H17
A   41
 H18
A   42
 H19
A   43
 H20
M  END
>  <ref_pdb>  (21) 
x0310_0A

>  <ref_mols>  (21) 
x0554_0A,x0310_0A

>  <original SMILES>  (21) 
COC(=O)c1cc(CNC(C)C(=O)Nc2ccccc2)c(C)s1

>  <rationale>  (21) 
info hbond:S125+E88+S7; hydroph_interaction:P107+Y89+Y90; pication:H21; 

>  <intxn_cluster>  (21) 
207

>  <intxn_cluster_rank>  (21) 
5

>  <N_interactions>  (21) 
7

>  <∆∆G>  (21) 
-12.842248

>  <$/mg>  (21) 
nan

>  <comRMSD>  (21) 
0.755464

>  <N_rotatable_bonds>  (21) 
9

>  <N_analogues_07>  (21) 
0

>  <deep_P1_sidechain>  (21) 
False

>  <farthest_distance_to_substrate>  (21) 
4.578697

>  <hbond:SER:7>  (21) 
hbond:SER:7    1
hbond:SER:7    1
Name: 20, dtype: object

>  <halogenbond:SER:7>  (21) 
halogenbond:SER:7    0
halogenbond:SER:7    0
Name: 20, dtype: object

>  <hbond:GLY:8>  (21) 
hbond:GLY:8    0
hbond:GLY:8    0
Name: 20, dtype: object

>  <hydroph_interaction:ASN:19>  (21) 
hydroph_interaction:ASN:19    0
hydroph_interaction:ASN:19    0
Name: 20, dtype: object

>  <hbond:ASN:19>  (21) 
hbond:ASN:19    0
hbond:ASN:19    0
Name: 20, dtype: object

>  <halogenbond:ASN:19>  (21) 
halogenbond:ASN:19    0
halogenbond:ASN:19    0
Name: 20, dtype: object

>  <hbond:ARG:20>  (21) 
hbond:ARG:20    0
hbond:ARG:20    0
Name: 20, dtype: object

>  <hydroph_interaction:ARG:20>  (21) 
hydroph_interaction:ARG:20    0
hydroph_interaction:ARG:20    0
Name: 20, dtype: object

>  <saltbridge:ARG:20>  (21) 
saltbridge:ARG:20    0
saltbridge:ARG:20    0
Name: 20, dtype: object

>  <halogenbond:ARG:20>  (21) 
halogenbond:ARG:20    0
halogenbond:ARG:20    0
Name: 20, dtype: object

>  <pication:ARG:20>  (21) 
pication:ARG:20    0
pication:ARG:20    0
Name: 20, dtype: object

>  <hbond:HIS:21>  (21) 
hbond:HIS:21    0
hbond:HIS:21    0
Name: 20, dtype: object

>  <hydroph_interaction:HIS:21>  (21) 
hydroph_interaction:HIS:21    0
hydroph_interaction:HIS:21    0
Name: 20, dtype: object

>  <saltbridge:HIS:21>  (21) 
saltbridge:HIS:21    0
saltbridge:HIS:21    0
Name: 20, dtype: object

>  <pistack:HIS:21>  (21) 
pistack:HIS:21    0
pistack:HIS:21    0
Name: 20, dtype: object

>  <pication:HIS:21>  (21) 
pication:HIS:21    1
pication:HIS:21    1
Name: 20, dtype: object

>  <halogenbond:HIS:21>  (21) 
halogenbond:HIS:21    0
halogenbond:HIS:21    0
Name: 20, dtype: object

>  <hydroph_interaction:LEU:22>  (21) 
hydroph_interaction:LEU:22    0
hydroph_interaction:LEU:22    0
Name: 20, dtype: object

>  <hbond:LEU:22>  (21) 
hbond:LEU:22    0
hbond:LEU:22    0
Name: 20, dtype: object

>  <hydroph_interaction:TRP:28>  (21) 
hydroph_interaction:TRP:28    0
hydroph_interaction:TRP:28    0
Name: 20, dtype: object

>  <hbond:SER:36>  (21) 
hbond:SER:36    0
hbond:SER:36    0
Name: 20, dtype: object

>  <halogenbond:SER:36>  (21) 
halogenbond:SER:36    0
halogenbond:SER:36    0
Name: 20, dtype: object

>  <hbond:ARG:38>  (21) 
hbond:ARG:38    0
hbond:ARG:38    0
Name: 20, dtype: object

>  <halogenbond:ARG:38>  (21) 
halogenbond:ARG:38    0
halogenbond:ARG:38    0
Name: 20, dtype: object

>  <hbond:ASP:39>  (21) 
hbond:ASP:39    0
hbond:ASP:39    0
Name: 20, dtype: object

>  <saltbridge:ASP:39>  (21) 
saltbridge:ASP:39    0
saltbridge:ASP:39    0
Name: 20, dtype: object

>  <hydroph_interaction:ASP:39>  (21) 
hydroph_interaction:ASP:39    0
hydroph_interaction:ASP:39    0
Name: 20, dtype: object

>  <halogenbond:ASP:39>  (21) 
halogenbond:ASP:39    0
halogenbond:ASP:39    0
Name: 20, dtype: object

>  <hydroph_interaction:LEU:40>  (21) 
hydroph_interaction:LEU:40    0
hydroph_interaction:LEU:40    0
Name: 20, dtype: object

>  <hydroph_interaction:TYR:63>  (21) 
hydroph_interaction:TYR:63    0
hydroph_interaction:TYR:63    0
Name: 20, dtype: object

>  <pistack:TYR:63>  (21) 
pistack:TYR:63    0
pistack:TYR:63    0
Name: 20, dtype: object

>  <hbond:TYR:63>  (21) 
hbond:TYR:63    0
hbond:TYR:63    0
Name: 20, dtype: object

>  <hbond:TYR:64>  (21) 
hbond:TYR:64    0
hbond:TYR:64    0
Name: 20, dtype: object

>  <halogenbond:TYR:64>  (21) 
halogenbond:TYR:64    0
halogenbond:TYR:64    0
Name: 20, dtype: object

>  <hydroph_interaction:TYR:64>  (21) 
hydroph_interaction:TYR:64    0
hydroph_interaction:TYR:64    0
Name: 20, dtype: object

>  <hbond:CYS:65>  (21) 
hbond:CYS:65    0
hbond:CYS:65    0
Name: 20, dtype: object

>  <halogenbond:CYS:65>  (21) 
halogenbond:CYS:65    0
halogenbond:CYS:65    0
Name: 20, dtype: object

>  <hbond:SER:66>  (21) 
hbond:SER:66    0
hbond:SER:66    0
Name: 20, dtype: object

>  <hbond:SER:67>  (21) 
hbond:SER:67    0
hbond:SER:67    0
Name: 20, dtype: object

>  <halogenbond:SER:67>  (21) 
halogenbond:SER:67    0
halogenbond:SER:67    0
Name: 20, dtype: object

>  <hydroph_interaction:ARG:68>  (21) 
hydroph_interaction:ARG:68    0
hydroph_interaction:ARG:68    0
Name: 20, dtype: object

>  <hbond:ARG:68>  (21) 
hbond:ARG:68    0
hbond:ARG:68    0
Name: 20, dtype: object

>  <saltbridge:ARG:68>  (21) 
saltbridge:ARG:68    0
saltbridge:ARG:68    0
Name: 20, dtype: object

>  <pication:ARG:68>  (21) 
pication:ARG:68    0
pication:ARG:68    0
Name: 20, dtype: object

>  <hydroph_interaction:TYR:72>  (21) 
hydroph_interaction:TYR:72    0
hydroph_interaction:TYR:72    0
Name: 20, dtype: object

>  <hydroph_interaction:VAL:74>  (21) 
hydroph_interaction:VAL:74    0
hydroph_interaction:VAL:74    0
Name: 20, dtype: object

>  <hydroph_interaction:PHE:76>  (21) 
hydroph_interaction:PHE:76    0
hydroph_interaction:PHE:76    0
Name: 20, dtype: object

>  <hbond:SER:77>  (21) 
hbond:SER:77    0
hbond:SER:77    0
Name: 20, dtype: object

>  <hbond:SER:80>  (21) 
hbond:SER:80    0
hbond:SER:80    0
Name: 20, dtype: object

>  <hbond:LEU:81>  (21) 
hbond:LEU:81    0
hbond:LEU:81    0
Name: 20, dtype: object

>  <halogenbond:LEU:81>  (21) 
halogenbond:LEU:81    0
halogenbond:LEU:81    0
Name: 20, dtype: object

>  <hydroph_interaction:LEU:81>  (21) 
hydroph_interaction:LEU:81    0
hydroph_interaction:LEU:81    0
Name: 20, dtype: object

>  <hydroph_interaction:ILE:82>  (21) 
hydroph_interaction:ILE:82    0
hydroph_interaction:ILE:82    0
Name: 20, dtype: object

>  <hbond:ILE:82>  (21) 
hbond:ILE:82    0
hbond:ILE:82    0
Name: 20, dtype: object

>  <hydroph_interaction:PHE:83>  (21) 
hydroph_interaction:PHE:83    0
hydroph_interaction:PHE:83    0
Name: 20, dtype: object

>  <hbond:PHE:83>  (21) 
hbond:PHE:83    0
hbond:PHE:83    0
Name: 20, dtype: object

>  <halogenbond:PHE:83>  (21) 
halogenbond:PHE:83    0
halogenbond:PHE:83    0
Name: 20, dtype: object

>  <pistack:PHE:83>  (21) 
pistack:PHE:83    0
pistack:PHE:83    0
Name: 20, dtype: object

>  <hydroph_interaction:VAL:84>  (21) 
hydroph_interaction:VAL:84    0
hydroph_interaction:VAL:84    0
Name: 20, dtype: object

>  <hbond:VAL:84>  (21) 
hbond:VAL:84    0
hbond:VAL:84    0
Name: 20, dtype: object

>  <halogenbond:VAL:84>  (21) 
halogenbond:VAL:84    0
halogenbond:VAL:84    0
Name: 20, dtype: object

>  <hydroph_interaction:GLU:85>  (21) 
hydroph_interaction:GLU:85    0
hydroph_interaction:GLU:85    0
Name: 20, dtype: object

>  <hbond:GLU:85>  (21) 
hbond:GLU:85    0
hbond:GLU:85    0
Name: 20, dtype: object

>  <saltbridge:GLU:85>  (21) 
saltbridge:GLU:85    0
saltbridge:GLU:85    0
Name: 20, dtype: object

>  <halogenbond:GLU:85>  (21) 
halogenbond:GLU:85    0
halogenbond:GLU:85    0
Name: 20, dtype: object

>  <hbond:ALA:86>  (21) 
hbond:ALA:86    0
hbond:ALA:86    0
Name: 20, dtype: object

>  <halogenbond:ALA:86>  (21) 
halogenbond:ALA:86    0
halogenbond:ALA:86    0
Name: 20, dtype: object

>  <hydroph_interaction:ALA:86>  (21) 
hydroph_interaction:ALA:86    0
hydroph_interaction:ALA:86    0
Name: 20, dtype: object

>  <hbond:SER:87>  (21) 
hbond:SER:87    0
hbond:SER:87    0
Name: 20, dtype: object

>  <halogenbond:SER:87>  (21) 
halogenbond:SER:87    0
halogenbond:SER:87    0
Name: 20, dtype: object

>  <hbond:GLU:88>  (21) 
hbond:GLU:88    1
hbond:GLU:88    1
Name: 20, dtype: object

>  <hydroph_interaction:GLU:88>  (21) 
hydroph_interaction:GLU:88    0
hydroph_interaction:GLU:88    0
Name: 20, dtype: object

>  <halogenbond:GLU:88>  (21) 
halogenbond:GLU:88    0
halogenbond:GLU:88    0
Name: 20, dtype: object

>  <saltbridge:GLU:88>  (21) 
saltbridge:GLU:88    0
saltbridge:GLU:88    0
Name: 20, dtype: object

>  <hydroph_interaction:TYR:89>  (21) 
hydroph_interaction:TYR:89    1
hydroph_interaction:TYR:89    1
Name: 20, dtype: object

>  <pistack:TYR:89>  (21) 
pistack:TYR:89    0
pistack:TYR:89    0
Name: 20, dtype: object

>  <hbond:TYR:89>  (21) 
hbond:TYR:89    0
hbond:TYR:89    0
Name: 20, dtype: object

>  <halogenbond:TYR:89>  (21) 
halogenbond:TYR:89    0
halogenbond:TYR:89    0
Name: 20, dtype: object

>  <hbond:TYR:90>  (21) 
hbond:TYR:90    0
hbond:TYR:90    0
Name: 20, dtype: object

>  <hydroph_interaction:TYR:90>  (21) 
hydroph_interaction:TYR:90    1
hydroph_interaction:TYR:90    1
Name: 20, dtype: object

>  <pistack:TYR:90>  (21) 
pistack:TYR:90    0
pistack:TYR:90    0
Name: 20, dtype: object

>  <halogenbond:TYR:90>  (21) 
halogenbond:TYR:90    0
halogenbond:TYR:90    0
Name: 20, dtype: object

>  <pication:TYR:90>  (21) 
pication:TYR:90    0
pication:TYR:90    0
Name: 20, dtype: object

>  <hydroph_interaction:PRO:91>  (21) 
hydroph_interaction:PRO:91    0
hydroph_interaction:PRO:91    0
Name: 20, dtype: object

>  <halogenbond:PRO:91>  (21) 
halogenbond:PRO:91    0
halogenbond:PRO:91    0
Name: 20, dtype: object

>  <hbond:PRO:91>  (21) 
hbond:PRO:91    0
hbond:PRO:91    0
Name: 20, dtype: object

>  <hydroph_interaction:ALA:92>  (21) 
hydroph_interaction:ALA:92    0
hydroph_interaction:ALA:92    0
Name: 20, dtype: object

>  <hbond:ARG:93>  (21) 
hbond:ARG:93    0
hbond:ARG:93    0
Name: 20, dtype: object

>  <pication:ARG:93>  (21) 
pication:ARG:93    0
pication:ARG:93    0
Name: 20, dtype: object

>  <saltbridge:ARG:93>  (21) 
saltbridge:ARG:93    0
saltbridge:ARG:93    0
Name: 20, dtype: object

>  <hydroph_interaction:ARG:93>  (21) 
hydroph_interaction:ARG:93    0
hydroph_interaction:ARG:93    0
Name: 20, dtype: object

>  <halogenbond:ARG:93>  (21) 
halogenbond:ARG:93    0
halogenbond:ARG:93    0
Name: 20, dtype: object

>  <hydroph_interaction:TYR:94>  (21) 
hydroph_interaction:TYR:94    0
hydroph_interaction:TYR:94    0
Name: 20, dtype: object

>  <hbond:TYR:94>  (21) 
hbond:TYR:94    0
hbond:TYR:94    0
Name: 20, dtype: object

>  <halogenbond:GLN:95>  (21) 
halogenbond:GLN:95    0
halogenbond:GLN:95    0
Name: 20, dtype: object

>  <hbond:GLN:95>  (21) 
hbond:GLN:95    0
hbond:GLN:95    0
Name: 20, dtype: object

>  <hydroph_interaction:GLN:95>  (21) 
hydroph_interaction:GLN:95    0
hydroph_interaction:GLN:95    0
Name: 20, dtype: object

>  <hbond:SER:96>  (21) 
hbond:SER:96    0
hbond:SER:96    0
Name: 20, dtype: object

>  <hydroph_interaction:LEU:98>  (21) 
hydroph_interaction:LEU:98    0
hydroph_interaction:LEU:98    0
Name: 20, dtype: object

>  <hbond:LEU:98>  (21) 
hbond:LEU:98    0
hbond:LEU:98    0
Name: 20, dtype: object

>  <hbond:MET:99>  (21) 
hbond:MET:99    0
hbond:MET:99    0
Name: 20, dtype: object

>  <hydroph_interaction:MET:99>  (21) 
hydroph_interaction:MET:99    0
hydroph_interaction:MET:99    0
Name: 20, dtype: object

>  <halogenbond:MET:99>  (21) 
halogenbond:MET:99    0
halogenbond:MET:99    0
Name: 20, dtype: object

>  <hydroph_interaction:LEU:100>  (21) 
hydroph_interaction:LEU:100    0
hydroph_interaction:LEU:100    0
Name: 20, dtype: object

>  <hbond:LEU:100>  (21) 
hbond:LEU:100    0
hbond:LEU:100    0
Name: 20, dtype: object

>  <hbond:ALA:101>  (21) 
hbond:ALA:101    0
hbond:ALA:101    0
Name: 20, dtype: object

>  <hydroph_interaction:ALA:101>  (21) 
hydroph_interaction:ALA:101    0
hydroph_interaction:ALA:101    0
Name: 20, dtype: object

>  <hydroph_interaction:VAL:102>  (21) 
hydroph_interaction:VAL:102    0
hydroph_interaction:VAL:102    0
Name: 20, dtype: object

>  <hbond:VAL:102>  (21) 
hbond:VAL:102    0
hbond:VAL:102    0
Name: 20, dtype: object

>  <hbond:GLY:103>  (21) 
hbond:GLY:103    0
hbond:GLY:103    0
Name: 20, dtype: object

>  <halogenbond:GLY:103>  (21) 
halogenbond:GLY:103    0
halogenbond:GLY:103    0
Name: 20, dtype: object

>  <hydroph_interaction:HIS:104>  (21) 
hydroph_interaction:HIS:104    0
hydroph_interaction:HIS:104    0
Name: 20, dtype: object

>  <hbond:HIS:104>  (21) 
hbond:HIS:104    0
hbond:HIS:104    0
Name: 20, dtype: object

>  <saltbridge:HIS:104>  (21) 
saltbridge:HIS:104    0
saltbridge:HIS:104    0
Name: 20, dtype: object

>  <pication:HIS:104>  (21) 
pication:HIS:104    0
pication:HIS:104    0
Name: 20, dtype: object

>  <pistack:HIS:104>  (21) 
pistack:HIS:104    0
pistack:HIS:104    0
Name: 20, dtype: object

>  <halogenbond:HIS:104>  (21) 
halogenbond:HIS:104    0
halogenbond:HIS:104    0
Name: 20, dtype: object

>  <hbond:SER:105>  (21) 
hbond:SER:105    0
hbond:SER:105    0
Name: 20, dtype: object

>  <halogenbond:SER:105>  (21) 
halogenbond:SER:105    0
halogenbond:SER:105    0
Name: 20, dtype: object

>  <hbond:GLU:106>  (21) 
hbond:GLU:106    0
hbond:GLU:106    0
Name: 20, dtype: object

>  <hydroph_interaction:GLU:106>  (21) 
hydroph_interaction:GLU:106    0
hydroph_interaction:GLU:106    0
Name: 20, dtype: object

>  <saltbridge:GLU:106>  (21) 
saltbridge:GLU:106    0
saltbridge:GLU:106    0
Name: 20, dtype: object

>  <halogenbond:GLU:106>  (21) 
halogenbond:GLU:106    0
halogenbond:GLU:106    0
Name: 20, dtype: object

>  <hydroph_interaction:PRO:107>  (21) 
hydroph_interaction:PRO:107    1
hydroph_interaction:PRO:107    1
Name: 20, dtype: object

>  <hbond:PRO:107>  (21) 
hbond:PRO:107    0
hbond:PRO:107    0
Name: 20, dtype: object

>  <halogenbond:PRO:107>  (21) 
halogenbond:PRO:107    0
halogenbond:PRO:107    0
Name: 20, dtype: object

>  <hbond:GLY:108>  (21) 
hbond:GLY:108    0
hbond:GLY:108    0
Name: 20, dtype: object

>  <halogenbond:GLY:108>  (21) 
halogenbond:GLY:108    0
halogenbond:GLY:108    0
Name: 20, dtype: object

>  <hbond:ASP:109>  (21) 
hbond:ASP:109    0
hbond:ASP:109    0
Name: 20, dtype: object

>  <hydroph_interaction:ASP:109>  (21) 
hydroph_interaction:ASP:109    0
hydroph_interaction:ASP:109    0
Name: 20, dtype: object

>  <saltbridge:ASP:109>  (21) 
saltbridge:ASP:109    0
saltbridge:ASP:109    0
Name: 20, dtype: object

>  <hbond:CYS:110>  (21) 
hbond:CYS:110    0
hbond:CYS:110    0
Name: 20, dtype: object

>  <halogenbond:CYS:110>  (21) 
halogenbond:CYS:110    0
halogenbond:CYS:110    0
Name: 20, dtype: object

>  <hbond:GLY:111>  (21) 
hbond:GLY:111    0
hbond:GLY:111    0
Name: 20, dtype: object

>  <hbond:GLY:112>  (21) 
hbond:GLY:112    0
hbond:GLY:112    0
Name: 20, dtype: object

>  <hbond:ILE:113>  (21) 
hbond:ILE:113    0
hbond:ILE:113    0
Name: 20, dtype: object

>  <hydroph_interaction:LEU:114>  (21) 
hydroph_interaction:LEU:114    0
hydroph_interaction:LEU:114    0
Name: 20, dtype: object

>  <hbond:LEU:114>  (21) 
hbond:LEU:114    0
hbond:LEU:114    0
Name: 20, dtype: object

>  <hydroph_interaction:ILE:123>  (21) 
hydroph_interaction:ILE:123    0
hydroph_interaction:ILE:123    0
Name: 20, dtype: object

>  <hbond:ILE:123>  (21) 
hbond:ILE:123    0
hbond:ILE:123    0
Name: 20, dtype: object

>  <hydroph_interaction:VAL:124>  (21) 
hydroph_interaction:VAL:124    0
hydroph_interaction:VAL:124    0
Name: 20, dtype: object

>  <hbond:VAL:124>  (21) 
hbond:VAL:124    0
hbond:VAL:124    0
Name: 20, dtype: object

>  <halogenbond:VAL:124>  (21) 
halogenbond:VAL:124    0
halogenbond:VAL:124    0
Name: 20, dtype: object

>  <hbond:SER:125>  (21) 
hbond:SER:125    1
hbond:SER:125    1
Name: 20, dtype: object

>  <halogenbond:SER:125>  (21) 
halogenbond:SER:125    0
halogenbond:SER:125    0
Name: 20, dtype: object

>  <hydroph_interaction:THR:126>  (21) 
hydroph_interaction:THR:126    0
hydroph_interaction:THR:126    0
Name: 20, dtype: object

>  <hbond:THR:126>  (21) 
hbond:THR:126    0
hbond:THR:126    0
Name: 20, dtype: object

>  <halogenbond:THR:126>  (21) 
halogenbond:THR:126    0
halogenbond:THR:126    0
Name: 20, dtype: object

>  <hbond:GLY:127>  (21) 
hbond:GLY:127    0
hbond:GLY:127    0
Name: 20, dtype: object

>  <halogenbond:GLY:127>  (21) 
halogenbond:GLY:127    0
halogenbond:GLY:127    0
Name: 20, dtype: object

>  <hydroph_interaction:GLY:127>  (21) 
hydroph_interaction:GLY:127    0
hydroph_interaction:GLY:127    0
Name: 20, dtype: object

>  <hbond:GLY:128>  (21) 
hbond:GLY:128    0
hbond:GLY:128    0
Name: 20, dtype: object

>  <halogenbond:GLY:128>  (21) 
halogenbond:GLY:128    0
halogenbond:GLY:128    0
Name: 20, dtype: object

>  <hydroph_interaction:GLY:128>  (21) 
hydroph_interaction:GLY:128    0
hydroph_interaction:GLY:128    0
Name: 20, dtype: object

>  <hbond:ASN:129>  (21) 
hbond:ASN:129    0
hbond:ASN:129    0
Name: 20, dtype: object

>  <hydroph_interaction:ASN:129>  (21) 
hydroph_interaction:ASN:129    0
hydroph_interaction:ASN:129    0
Name: 20, dtype: object

>  <halogenbond:ASN:129>  (21) 
halogenbond:ASN:129    0
halogenbond:ASN:129    0
Name: 20, dtype: object

>  <hbond:GLY:130>  (21) 
hbond:GLY:130    0
hbond:GLY:130    0
Name: 20, dtype: object

>  <hydroph_interaction:LEU:131>  (21) 
hydroph_interaction:LEU:131    0
hydroph_interaction:LEU:131    0
Name: 20, dtype: object

>  <hbond:LEU:131>  (21) 
hbond:LEU:131    0
hbond:LEU:131    0
Name: 20, dtype: object

>  <halogenbond:LEU:131>  (21) 
halogenbond:LEU:131    0
halogenbond:LEU:131    0
Name: 20, dtype: object

>  <hydroph_interaction:VAL:132>  (21) 
hydroph_interaction:VAL:132    0
hydroph_interaction:VAL:132    0
Name: 20, dtype: object

>  <hbond:VAL:132>  (21) 
hbond:VAL:132    0
hbond:VAL:132    0
Name: 20, dtype: object

>  <hbond:GLY:133>  (21) 
hbond:GLY:133    0
hbond:GLY:133    0
Name: 20, dtype: object

>  <halogenbond:GLY:133>  (21) 
halogenbond:GLY:133    0
halogenbond:GLY:133    0
Name: 20, dtype: object

>  <hydroph_interaction:PHE:134>  (21) 
hydroph_interaction:PHE:134    0
hydroph_interaction:PHE:134    0
Name: 20, dtype: object

>  <hbond:PHE:134>  (21) 
hbond:PHE:134    0
hbond:PHE:134    0
Name: 20, dtype: object

>  <pistack:PHE:134>  (21) 
pistack:PHE:134    0
pistack:PHE:134    0
Name: 20, dtype: object

>  <pication:PHE:134>  (21) 
pication:PHE:134    0
pication:PHE:134    0
Name: 20, dtype: object

>  <hydroph_interaction:ALA:135>  (21) 
hydroph_interaction:ALA:135    0
hydroph_interaction:ALA:135    0
Name: 20, dtype: object

>  <hbond:ALA:135>  (21) 
hbond:ALA:135    0
hbond:ALA:135    0
Name: 20, dtype: object

$$$$
Z1738928145
     RDKit          3D

 37 38  0  0  0  0  0  0  0  0999 V2000
   10.3090    9.1210   22.4900 C   0  0  0  0  0  0  0  0  0  0  0  0
    9.5860   10.1800   23.2460 C   0  0  0  0  0  0  0  0  0  0  0  0
    8.6680    9.7770   24.2100 C   0  0  0  0  0  0  0  0  0  0  0  0
    7.9340   10.7670   24.9780 N   0  0  0  0  0  0  0  0  0  0  0  0
    8.1730   12.0600   24.7140 C   0  0  0  0  0  0  0  0  0  0  0  0
    7.4520   12.9410   25.4670 N   0  0  0  0  0  0  0  0  0  0  0  0
    9.0740   12.4350   23.7570 C   0  0  0  0  0  0  0  0  0  0  0  0
    9.3330   14.1050   23.4550 S   0  0  0  0  0  6  0  0  0  0  0  0
   10.5830   14.4450   24.1100 O   0  0  0  0  0  0  0  0  0  0  0  0
    8.0960   14.7300   23.8810 O   0  0  0  0  0  0  0  0  0  0  0  0
    9.4840   14.3340   21.7600 N   0  0  0  0  0  0  0  0  0  0  0  0
    8.3470   14.8190   20.9460 C   0  0  0  0  0  0  0  0  0  0  0  0
    8.6180   15.6060   19.7700 C   0  0  0  0  0  0  0  0  0  0  0  0
    9.9260   15.9900   19.4630 C   0  0  0  0  0  0  0  0  0  0  0  0
   10.3830   16.1530   18.1530 C   0  0  0  0  0  0  0  0  0  0  0  0
   11.4110   15.6430   17.7500 O   0  0  0  0  0  0  0  0  0  0  0  0
    9.6580   16.9070   17.2930 O   0  0  0  0  0  0  0  0  0  0  0  0
   10.8900   14.9200   19.9290 C   0  0  0  0  0  0  0  0  0  0  0  0
   10.8320   14.6890   21.2910 C   0  0  0  0  0  0  0  0  0  0  0  0
    9.7880   11.5130   23.0220 C   0  0  0  0  0  0  0  0  0  0  0  0
   10.9560    9.5980   21.7610 H   0  0  0  0  0  0  0  0  0  0  0  0
    9.6100    8.4830   21.9550 H   0  0  0  0  0  0  0  0  0  0  0  0
   10.9070    8.5110   23.1720 H   0  0  0  0  0  0  0  0  0  0  0  0
    8.5250    8.7240   24.3620 H   0  0  0  0  0  0  0  0  0  0  0  0
    6.9350   12.4190   26.1710 H   0  0  0  0  0  0  0  0  0  0  0  0
    8.0220   13.6910   25.8570 H   0  0  0  0  0  0  0  0  0  0  0  0
    7.7890   13.9720   20.5930 H   0  0  0  0  0  0  0  0  0  0  0  0
    7.6270   15.2480   21.6460 H   0  0  0  0  0  0  0  0  0  0  0  0
    8.0550   15.2740   18.9040 H   0  0  0  0  0  0  0  0  0  0  0  0
    8.1280   16.5660   19.9850 H   0  0  0  0  0  0  0  0  0  0  0  0
   10.1260   16.9020   19.9920 H   0  0  0  0  0  0  0  0  0  0  0  0
    9.2710   16.2110   16.7160 H   0  0  0  0  0  0  0  0  0  0  0  0
   10.6830   14.0050   19.3850 H   0  0  0  0  0  0  0  0  0  0  0  0
   11.9140   15.1940   19.6570 H   0  0  0  0  0  0  0  0  0  0  0  0
   11.1850   15.5840   21.8140 H   0  0  0  0  0  0  0  0  0  0  0  0
   11.5330   13.8750   21.5090 H   0  0  0  0  0  0  0  0  0  0  0  0
   10.5040   11.8380   22.2690 H   0  0  0  0  0  0  0  0  0  0  0  0
  1  2  1  0
  2  3  2  0
  3  4  1  0
  4  5  2  0
  5  6  1  0
  5  7  1  0
  7  8  1  0
  8  9  2  0
  8 10  2  0
  8 11  1  0
 11 12  1  0
 12 13  1  0
 13 14  1  0
 14 15  1  0
 15 16  2  0
 15 17  1  0
 14 18  1  0
 18 19  1  0
  7 20  2  0
 20  2  1  0
 19 11  1  0
  1 21  1  0
  1 22  1  0
  1 23  1  0
  3 24  1  0
  6 25  1  0
  6 26  1  0
 12 27  1  0
 12 28  1  0
 13 29  1  0
 13 30  1  0
 14 31  1  0
 17 32  1  0
 18 33  1  0
 18 34  1  0
 19 35  1  0
 19 36  1  0
 20 37  1  0
A    1
 C1 
A    2
 C2 
A    3
 C3 
A    4
 N1 
A    5
 C4 
A    6
 N2 
A    7
 C5 
A    8
 S1 
A    9
 O1 
A   10
 O2 
A   11
 N3 
A   12
 C6 
A   13
 C7 
A   14
 C8 
A   15
 C9 
A   16
 O3 
A   17
 O4 
A   18
 C10
A   19
 C11
A   20
 C12
A   21
 H1 
A   22
 H2 
A   23
 H3 
A   24
 H4 
A   25
 H5 
A   26
 H6 
A   27
 H7 
A   28
 H8 
A   29
 H9 
A   30
 H10
A   31
 H11
A   32
 H12
A   33
 H13
A   34
 H14
A   35
 H15
A   36
 H16
A   37
 H17
M  END
>  <ref_pdb>  (22) 
x0310_0A

>  <ref_mols>  (22) 
x0416_0A,x1148_0A

>  <original SMILES>  (22) 
Cc1cnc(N)c(S(=O)(=O)N2CCC(C(=O)O)CC2)c1

>  <rationale>  (22) 
info hbond:D39; hydroph_interaction:V124+Y90+T126+V84; saltbridge:R93; 

>  <intxn_cluster>  (22) 
101

>  <intxn_cluster_rank>  (22) 
5

>  <N_interactions>  (22) 
6

>  <∆∆G>  (22) 
-5.64959

>  <$/mg>  (22) 
163.0

>  <comRMSD>  (22) 
0.716839

>  <N_rotatable_bonds>  (22) 
5

>  <N_analogues_07>  (22) 
2

>  <deep_P1_sidechain>  (22) 
True

>  <farthest_distance_to_substrate>  (22) 
2.444598

>  <hbond:SER:7>  (22) 
hbond:SER:7    0
hbond:SER:7    0
Name: 21, dtype: object

>  <halogenbond:SER:7>  (22) 
halogenbond:SER:7    0
halogenbond:SER:7    0
Name: 21, dtype: object

>  <hbond:GLY:8>  (22) 
hbond:GLY:8    0
hbond:GLY:8    0
Name: 21, dtype: object

>  <hydroph_interaction:ASN:19>  (22) 
hydroph_interaction:ASN:19    0
hydroph_interaction:ASN:19    0
Name: 21, dtype: object

>  <hbond:ASN:19>  (22) 
hbond:ASN:19    0
hbond:ASN:19    0
Name: 21, dtype: object

>  <halogenbond:ASN:19>  (22) 
halogenbond:ASN:19    0
halogenbond:ASN:19    0
Name: 21, dtype: object

>  <hbond:ARG:20>  (22) 
hbond:ARG:20    0
hbond:ARG:20    0
Name: 21, dtype: object

>  <hydroph_interaction:ARG:20>  (22) 
hydroph_interaction:ARG:20    0
hydroph_interaction:ARG:20    0
Name: 21, dtype: object

>  <saltbridge:ARG:20>  (22) 
saltbridge:ARG:20    0
saltbridge:ARG:20    0
Name: 21, dtype: object

>  <halogenbond:ARG:20>  (22) 
halogenbond:ARG:20    0
halogenbond:ARG:20    0
Name: 21, dtype: object

>  <pication:ARG:20>  (22) 
pication:ARG:20    0
pication:ARG:20    0
Name: 21, dtype: object

>  <hbond:HIS:21>  (22) 
hbond:HIS:21    0
hbond:HIS:21    0
Name: 21, dtype: object

>  <hydroph_interaction:HIS:21>  (22) 
hydroph_interaction:HIS:21    0
hydroph_interaction:HIS:21    0
Name: 21, dtype: object

>  <saltbridge:HIS:21>  (22) 
saltbridge:HIS:21    0
saltbridge:HIS:21    0
Name: 21, dtype: object

>  <pistack:HIS:21>  (22) 
pistack:HIS:21    0
pistack:HIS:21    0
Name: 21, dtype: object

>  <pication:HIS:21>  (22) 
pication:HIS:21    0
pication:HIS:21    0
Name: 21, dtype: object

>  <halogenbond:HIS:21>  (22) 
halogenbond:HIS:21    0
halogenbond:HIS:21    0
Name: 21, dtype: object

>  <hydroph_interaction:LEU:22>  (22) 
hydroph_interaction:LEU:22    0
hydroph_interaction:LEU:22    0
Name: 21, dtype: object

>  <hbond:LEU:22>  (22) 
hbond:LEU:22    0
hbond:LEU:22    0
Name: 21, dtype: object

>  <hydroph_interaction:TRP:28>  (22) 
hydroph_interaction:TRP:28    0
hydroph_interaction:TRP:28    0
Name: 21, dtype: object

>  <hbond:SER:36>  (22) 
hbond:SER:36    0
hbond:SER:36    0
Name: 21, dtype: object

>  <halogenbond:SER:36>  (22) 
halogenbond:SER:36    0
halogenbond:SER:36    0
Name: 21, dtype: object

>  <hbond:ARG:38>  (22) 
hbond:ARG:38    0
hbond:ARG:38    0
Name: 21, dtype: object

>  <halogenbond:ARG:38>  (22) 
halogenbond:ARG:38    0
halogenbond:ARG:38    0
Name: 21, dtype: object

>  <hbond:ASP:39>  (22) 
hbond:ASP:39    1
hbond:ASP:39    1
Name: 21, dtype: object

>  <saltbridge:ASP:39>  (22) 
saltbridge:ASP:39    0
saltbridge:ASP:39    0
Name: 21, dtype: object

>  <hydroph_interaction:ASP:39>  (22) 
hydroph_interaction:ASP:39    0
hydroph_interaction:ASP:39    0
Name: 21, dtype: object

>  <halogenbond:ASP:39>  (22) 
halogenbond:ASP:39    0
halogenbond:ASP:39    0
Name: 21, dtype: object

>  <hydroph_interaction:LEU:40>  (22) 
hydroph_interaction:LEU:40    0
hydroph_interaction:LEU:40    0
Name: 21, dtype: object

>  <hydroph_interaction:TYR:63>  (22) 
hydroph_interaction:TYR:63    0
hydroph_interaction:TYR:63    0
Name: 21, dtype: object

>  <pistack:TYR:63>  (22) 
pistack:TYR:63    0
pistack:TYR:63    0
Name: 21, dtype: object

>  <hbond:TYR:63>  (22) 
hbond:TYR:63    0
hbond:TYR:63    0
Name: 21, dtype: object

>  <hbond:TYR:64>  (22) 
hbond:TYR:64    0
hbond:TYR:64    0
Name: 21, dtype: object

>  <halogenbond:TYR:64>  (22) 
halogenbond:TYR:64    0
halogenbond:TYR:64    0
Name: 21, dtype: object

>  <hydroph_interaction:TYR:64>  (22) 
hydroph_interaction:TYR:64    0
hydroph_interaction:TYR:64    0
Name: 21, dtype: object

>  <hbond:CYS:65>  (22) 
hbond:CYS:65    0
hbond:CYS:65    0
Name: 21, dtype: object

>  <halogenbond:CYS:65>  (22) 
halogenbond:CYS:65    0
halogenbond:CYS:65    0
Name: 21, dtype: object

>  <hbond:SER:66>  (22) 
hbond:SER:66    0
hbond:SER:66    0
Name: 21, dtype: object

>  <hbond:SER:67>  (22) 
hbond:SER:67    0
hbond:SER:67    0
Name: 21, dtype: object

>  <halogenbond:SER:67>  (22) 
halogenbond:SER:67    0
halogenbond:SER:67    0
Name: 21, dtype: object

>  <hydroph_interaction:ARG:68>  (22) 
hydroph_interaction:ARG:68    0
hydroph_interaction:ARG:68    0
Name: 21, dtype: object

>  <hbond:ARG:68>  (22) 
hbond:ARG:68    0
hbond:ARG:68    0
Name: 21, dtype: object

>  <saltbridge:ARG:68>  (22) 
saltbridge:ARG:68    0
saltbridge:ARG:68    0
Name: 21, dtype: object

>  <pication:ARG:68>  (22) 
pication:ARG:68    0
pication:ARG:68    0
Name: 21, dtype: object

>  <hydroph_interaction:TYR:72>  (22) 
hydroph_interaction:TYR:72    0
hydroph_interaction:TYR:72    0
Name: 21, dtype: object

>  <hydroph_interaction:VAL:74>  (22) 
hydroph_interaction:VAL:74    0
hydroph_interaction:VAL:74    0
Name: 21, dtype: object

>  <hydroph_interaction:PHE:76>  (22) 
hydroph_interaction:PHE:76    0
hydroph_interaction:PHE:76    0
Name: 21, dtype: object

>  <hbond:SER:77>  (22) 
hbond:SER:77    0
hbond:SER:77    0
Name: 21, dtype: object

>  <hbond:SER:80>  (22) 
hbond:SER:80    0
hbond:SER:80    0
Name: 21, dtype: object

>  <hbond:LEU:81>  (22) 
hbond:LEU:81    0
hbond:LEU:81    0
Name: 21, dtype: object

>  <halogenbond:LEU:81>  (22) 
halogenbond:LEU:81    0
halogenbond:LEU:81    0
Name: 21, dtype: object

>  <hydroph_interaction:LEU:81>  (22) 
hydroph_interaction:LEU:81    0
hydroph_interaction:LEU:81    0
Name: 21, dtype: object

>  <hydroph_interaction:ILE:82>  (22) 
hydroph_interaction:ILE:82    0
hydroph_interaction:ILE:82    0
Name: 21, dtype: object

>  <hbond:ILE:82>  (22) 
hbond:ILE:82    0
hbond:ILE:82    0
Name: 21, dtype: object

>  <hydroph_interaction:PHE:83>  (22) 
hydroph_interaction:PHE:83    0
hydroph_interaction:PHE:83    0
Name: 21, dtype: object

>  <hbond:PHE:83>  (22) 
hbond:PHE:83    0
hbond:PHE:83    0
Name: 21, dtype: object

>  <halogenbond:PHE:83>  (22) 
halogenbond:PHE:83    0
halogenbond:PHE:83    0
Name: 21, dtype: object

>  <pistack:PHE:83>  (22) 
pistack:PHE:83    0
pistack:PHE:83    0
Name: 21, dtype: object

>  <hydroph_interaction:VAL:84>  (22) 
hydroph_interaction:VAL:84    1
hydroph_interaction:VAL:84    1
Name: 21, dtype: object

>  <hbond:VAL:84>  (22) 
hbond:VAL:84    0
hbond:VAL:84    0
Name: 21, dtype: object

>  <halogenbond:VAL:84>  (22) 
halogenbond:VAL:84    0
halogenbond:VAL:84    0
Name: 21, dtype: object

>  <hydroph_interaction:GLU:85>  (22) 
hydroph_interaction:GLU:85    0
hydroph_interaction:GLU:85    0
Name: 21, dtype: object

>  <hbond:GLU:85>  (22) 
hbond:GLU:85    0
hbond:GLU:85    0
Name: 21, dtype: object

>  <saltbridge:GLU:85>  (22) 
saltbridge:GLU:85    0
saltbridge:GLU:85    0
Name: 21, dtype: object

>  <halogenbond:GLU:85>  (22) 
halogenbond:GLU:85    0
halogenbond:GLU:85    0
Name: 21, dtype: object

>  <hbond:ALA:86>  (22) 
hbond:ALA:86    0
hbond:ALA:86    0
Name: 21, dtype: object

>  <halogenbond:ALA:86>  (22) 
halogenbond:ALA:86    0
halogenbond:ALA:86    0
Name: 21, dtype: object

>  <hydroph_interaction:ALA:86>  (22) 
hydroph_interaction:ALA:86    0
hydroph_interaction:ALA:86    0
Name: 21, dtype: object

>  <hbond:SER:87>  (22) 
hbond:SER:87    0
hbond:SER:87    0
Name: 21, dtype: object

>  <halogenbond:SER:87>  (22) 
halogenbond:SER:87    0
halogenbond:SER:87    0
Name: 21, dtype: object

>  <hbond:GLU:88>  (22) 
hbond:GLU:88    0
hbond:GLU:88    0
Name: 21, dtype: object

>  <hydroph_interaction:GLU:88>  (22) 
hydroph_interaction:GLU:88    0
hydroph_interaction:GLU:88    0
Name: 21, dtype: object

>  <halogenbond:GLU:88>  (22) 
halogenbond:GLU:88    0
halogenbond:GLU:88    0
Name: 21, dtype: object

>  <saltbridge:GLU:88>  (22) 
saltbridge:GLU:88    0
saltbridge:GLU:88    0
Name: 21, dtype: object

>  <hydroph_interaction:TYR:89>  (22) 
hydroph_interaction:TYR:89    0
hydroph_interaction:TYR:89    0
Name: 21, dtype: object

>  <pistack:TYR:89>  (22) 
pistack:TYR:89    0
pistack:TYR:89    0
Name: 21, dtype: object

>  <hbond:TYR:89>  (22) 
hbond:TYR:89    0
hbond:TYR:89    0
Name: 21, dtype: object

>  <halogenbond:TYR:89>  (22) 
halogenbond:TYR:89    0
halogenbond:TYR:89    0
Name: 21, dtype: object

>  <hbond:TYR:90>  (22) 
hbond:TYR:90    0
hbond:TYR:90    0
Name: 21, dtype: object

>  <hydroph_interaction:TYR:90>  (22) 
hydroph_interaction:TYR:90    1
hydroph_interaction:TYR:90    1
Name: 21, dtype: object

>  <pistack:TYR:90>  (22) 
pistack:TYR:90    0
pistack:TYR:90    0
Name: 21, dtype: object

>  <halogenbond:TYR:90>  (22) 
halogenbond:TYR:90    0
halogenbond:TYR:90    0
Name: 21, dtype: object

>  <pication:TYR:90>  (22) 
pication:TYR:90    0
pication:TYR:90    0
Name: 21, dtype: object

>  <hydroph_interaction:PRO:91>  (22) 
hydroph_interaction:PRO:91    0
hydroph_interaction:PRO:91    0
Name: 21, dtype: object

>  <halogenbond:PRO:91>  (22) 
halogenbond:PRO:91    0
halogenbond:PRO:91    0
Name: 21, dtype: object

>  <hbond:PRO:91>  (22) 
hbond:PRO:91    0
hbond:PRO:91    0
Name: 21, dtype: object

>  <hydroph_interaction:ALA:92>  (22) 
hydroph_interaction:ALA:92    0
hydroph_interaction:ALA:92    0
Name: 21, dtype: object

>  <hbond:ARG:93>  (22) 
hbond:ARG:93    0
hbond:ARG:93    0
Name: 21, dtype: object

>  <pication:ARG:93>  (22) 
pication:ARG:93    0
pication:ARG:93    0
Name: 21, dtype: object

>  <saltbridge:ARG:93>  (22) 
saltbridge:ARG:93    1
saltbridge:ARG:93    1
Name: 21, dtype: object

>  <hydroph_interaction:ARG:93>  (22) 
hydroph_interaction:ARG:93    0
hydroph_interaction:ARG:93    0
Name: 21, dtype: object

>  <halogenbond:ARG:93>  (22) 
halogenbond:ARG:93    0
halogenbond:ARG:93    0
Name: 21, dtype: object

>  <hydroph_interaction:TYR:94>  (22) 
hydroph_interaction:TYR:94    0
hydroph_interaction:TYR:94    0
Name: 21, dtype: object

>  <hbond:TYR:94>  (22) 
hbond:TYR:94    0
hbond:TYR:94    0
Name: 21, dtype: object

>  <halogenbond:GLN:95>  (22) 
halogenbond:GLN:95    0
halogenbond:GLN:95    0
Name: 21, dtype: object

>  <hbond:GLN:95>  (22) 
hbond:GLN:95    0
hbond:GLN:95    0
Name: 21, dtype: object

>  <hydroph_interaction:GLN:95>  (22) 
hydroph_interaction:GLN:95    0
hydroph_interaction:GLN:95    0
Name: 21, dtype: object

>  <hbond:SER:96>  (22) 
hbond:SER:96    0
hbond:SER:96    0
Name: 21, dtype: object

>  <hydroph_interaction:LEU:98>  (22) 
hydroph_interaction:LEU:98    0
hydroph_interaction:LEU:98    0
Name: 21, dtype: object

>  <hbond:LEU:98>  (22) 
hbond:LEU:98    0
hbond:LEU:98    0
Name: 21, dtype: object

>  <hbond:MET:99>  (22) 
hbond:MET:99    0
hbond:MET:99    0
Name: 21, dtype: object

>  <hydroph_interaction:MET:99>  (22) 
hydroph_interaction:MET:99    0
hydroph_interaction:MET:99    0
Name: 21, dtype: object

>  <halogenbond:MET:99>  (22) 
halogenbond:MET:99    0
halogenbond:MET:99    0
Name: 21, dtype: object

>  <hydroph_interaction:LEU:100>  (22) 
hydroph_interaction:LEU:100    0
hydroph_interaction:LEU:100    0
Name: 21, dtype: object

>  <hbond:LEU:100>  (22) 
hbond:LEU:100    0
hbond:LEU:100    0
Name: 21, dtype: object

>  <hbond:ALA:101>  (22) 
hbond:ALA:101    0
hbond:ALA:101    0
Name: 21, dtype: object

>  <hydroph_interaction:ALA:101>  (22) 
hydroph_interaction:ALA:101    0
hydroph_interaction:ALA:101    0
Name: 21, dtype: object

>  <hydroph_interaction:VAL:102>  (22) 
hydroph_interaction:VAL:102    0
hydroph_interaction:VAL:102    0
Name: 21, dtype: object

>  <hbond:VAL:102>  (22) 
hbond:VAL:102    0
hbond:VAL:102    0
Name: 21, dtype: object

>  <hbond:GLY:103>  (22) 
hbond:GLY:103    0
hbond:GLY:103    0
Name: 21, dtype: object

>  <halogenbond:GLY:103>  (22) 
halogenbond:GLY:103    0
halogenbond:GLY:103    0
Name: 21, dtype: object

>  <hydroph_interaction:HIS:104>  (22) 
hydroph_interaction:HIS:104    0
hydroph_interaction:HIS:104    0
Name: 21, dtype: object

>  <hbond:HIS:104>  (22) 
hbond:HIS:104    0
hbond:HIS:104    0
Name: 21, dtype: object

>  <saltbridge:HIS:104>  (22) 
saltbridge:HIS:104    0
saltbridge:HIS:104    0
Name: 21, dtype: object

>  <pication:HIS:104>  (22) 
pication:HIS:104    0
pication:HIS:104    0
Name: 21, dtype: object

>  <pistack:HIS:104>  (22) 
pistack:HIS:104    0
pistack:HIS:104    0
Name: 21, dtype: object

>  <halogenbond:HIS:104>  (22) 
halogenbond:HIS:104    0
halogenbond:HIS:104    0
Name: 21, dtype: object

>  <hbond:SER:105>  (22) 
hbond:SER:105    0
hbond:SER:105    0
Name: 21, dtype: object

>  <halogenbond:SER:105>  (22) 
halogenbond:SER:105    0
halogenbond:SER:105    0
Name: 21, dtype: object

>  <hbond:GLU:106>  (22) 
hbond:GLU:106    0
hbond:GLU:106    0
Name: 21, dtype: object

>  <hydroph_interaction:GLU:106>  (22) 
hydroph_interaction:GLU:106    0
hydroph_interaction:GLU:106    0
Name: 21, dtype: object

>  <saltbridge:GLU:106>  (22) 
saltbridge:GLU:106    0
saltbridge:GLU:106    0
Name: 21, dtype: object

>  <halogenbond:GLU:106>  (22) 
halogenbond:GLU:106    0
halogenbond:GLU:106    0
Name: 21, dtype: object

>  <hydroph_interaction:PRO:107>  (22) 
hydroph_interaction:PRO:107    0
hydroph_interaction:PRO:107    0
Name: 21, dtype: object

>  <hbond:PRO:107>  (22) 
hbond:PRO:107    0
hbond:PRO:107    0
Name: 21, dtype: object

>  <halogenbond:PRO:107>  (22) 
halogenbond:PRO:107    0
halogenbond:PRO:107    0
Name: 21, dtype: object

>  <hbond:GLY:108>  (22) 
hbond:GLY:108    0
hbond:GLY:108    0
Name: 21, dtype: object

>  <halogenbond:GLY:108>  (22) 
halogenbond:GLY:108    0
halogenbond:GLY:108    0
Name: 21, dtype: object

>  <hbond:ASP:109>  (22) 
hbond:ASP:109    0
hbond:ASP:109    0
Name: 21, dtype: object

>  <hydroph_interaction:ASP:109>  (22) 
hydroph_interaction:ASP:109    0
hydroph_interaction:ASP:109    0
Name: 21, dtype: object

>  <saltbridge:ASP:109>  (22) 
saltbridge:ASP:109    0
saltbridge:ASP:109    0
Name: 21, dtype: object

>  <hbond:CYS:110>  (22) 
hbond:CYS:110    0
hbond:CYS:110    0
Name: 21, dtype: object

>  <halogenbond:CYS:110>  (22) 
halogenbond:CYS:110    0
halogenbond:CYS:110    0
Name: 21, dtype: object

>  <hbond:GLY:111>  (22) 
hbond:GLY:111    0
hbond:GLY:111    0
Name: 21, dtype: object

>  <hbond:GLY:112>  (22) 
hbond:GLY:112    0
hbond:GLY:112    0
Name: 21, dtype: object

>  <hbond:ILE:113>  (22) 
hbond:ILE:113    0
hbond:ILE:113    0
Name: 21, dtype: object

>  <hydroph_interaction:LEU:114>  (22) 
hydroph_interaction:LEU:114    0
hydroph_interaction:LEU:114    0
Name: 21, dtype: object

>  <hbond:LEU:114>  (22) 
hbond:LEU:114    0
hbond:LEU:114    0
Name: 21, dtype: object

>  <hydroph_interaction:ILE:123>  (22) 
hydroph_interaction:ILE:123    0
hydroph_interaction:ILE:123    0
Name: 21, dtype: object

>  <hbond:ILE:123>  (22) 
hbond:ILE:123    0
hbond:ILE:123    0
Name: 21, dtype: object

>  <hydroph_interaction:VAL:124>  (22) 
hydroph_interaction:VAL:124    1
hydroph_interaction:VAL:124    1
Name: 21, dtype: object

>  <hbond:VAL:124>  (22) 
hbond:VAL:124    0
hbond:VAL:124    0
Name: 21, dtype: object

>  <halogenbond:VAL:124>  (22) 
halogenbond:VAL:124    0
halogenbond:VAL:124    0
Name: 21, dtype: object

>  <hbond:SER:125>  (22) 
hbond:SER:125    0
hbond:SER:125    0
Name: 21, dtype: object

>  <halogenbond:SER:125>  (22) 
halogenbond:SER:125    0
halogenbond:SER:125    0
Name: 21, dtype: object

>  <hydroph_interaction:THR:126>  (22) 
hydroph_interaction:THR:126    1
hydroph_interaction:THR:126    1
Name: 21, dtype: object

>  <hbond:THR:126>  (22) 
hbond:THR:126    0
hbond:THR:126    0
Name: 21, dtype: object

>  <halogenbond:THR:126>  (22) 
halogenbond:THR:126    0
halogenbond:THR:126    0
Name: 21, dtype: object

>  <hbond:GLY:127>  (22) 
hbond:GLY:127    0
hbond:GLY:127    0
Name: 21, dtype: object

>  <halogenbond:GLY:127>  (22) 
halogenbond:GLY:127    0
halogenbond:GLY:127    0
Name: 21, dtype: object

>  <hydroph_interaction:GLY:127>  (22) 
hydroph_interaction:GLY:127    0
hydroph_interaction:GLY:127    0
Name: 21, dtype: object

>  <hbond:GLY:128>  (22) 
hbond:GLY:128    0
hbond:GLY:128    0
Name: 21, dtype: object

>  <halogenbond:GLY:128>  (22) 
halogenbond:GLY:128    0
halogenbond:GLY:128    0
Name: 21, dtype: object

>  <hydroph_interaction:GLY:128>  (22) 
hydroph_interaction:GLY:128    0
hydroph_interaction:GLY:128    0
Name: 21, dtype: object

>  <hbond:ASN:129>  (22) 
hbond:ASN:129    0
hbond:ASN:129    0
Name: 21, dtype: object

>  <hydroph_interaction:ASN:129>  (22) 
hydroph_interaction:ASN:129    0
hydroph_interaction:ASN:129    0
Name: 21, dtype: object

>  <halogenbond:ASN:129>  (22) 
halogenbond:ASN:129    0
halogenbond:ASN:129    0
Name: 21, dtype: object

>  <hbond:GLY:130>  (22) 
hbond:GLY:130    0
hbond:GLY:130    0
Name: 21, dtype: object

>  <hydroph_interaction:LEU:131>  (22) 
hydroph_interaction:LEU:131    0
hydroph_interaction:LEU:131    0
Name: 21, dtype: object

>  <hbond:LEU:131>  (22) 
hbond:LEU:131    0
hbond:LEU:131    0
Name: 21, dtype: object

>  <halogenbond:LEU:131>  (22) 
halogenbond:LEU:131    0
halogenbond:LEU:131    0
Name: 21, dtype: object

>  <hydroph_interaction:VAL:132>  (22) 
hydroph_interaction:VAL:132    0
hydroph_interaction:VAL:132    0
Name: 21, dtype: object

>  <hbond:VAL:132>  (22) 
hbond:VAL:132    0
hbond:VAL:132    0
Name: 21, dtype: object

>  <hbond:GLY:133>  (22) 
hbond:GLY:133    0
hbond:GLY:133    0
Name: 21, dtype: object

>  <halogenbond:GLY:133>  (22) 
halogenbond:GLY:133    0
halogenbond:GLY:133    0
Name: 21, dtype: object

>  <hydroph_interaction:PHE:134>  (22) 
hydroph_interaction:PHE:134    0
hydroph_interaction:PHE:134    0
Name: 21, dtype: object

>  <hbond:PHE:134>  (22) 
hbond:PHE:134    0
hbond:PHE:134    0
Name: 21, dtype: object

>  <pistack:PHE:134>  (22) 
pistack:PHE:134    0
pistack:PHE:134    0
Name: 21, dtype: object

>  <pication:PHE:134>  (22) 
pication:PHE:134    0
pication:PHE:134    0
Name: 21, dtype: object

>  <hydroph_interaction:ALA:135>  (22) 
hydroph_interaction:ALA:135    0
hydroph_interaction:ALA:135    0
Name: 21, dtype: object

>  <hbond:ALA:135>  (22) 
hbond:ALA:135    0
hbond:ALA:135    0
Name: 21, dtype: object

$$$$
Z1332892882
     RDKit          3D

 32 33  0  0  0  0  0  0  0  0999 V2000
    9.9230    9.0760   22.7240 C   0  0  0  0  0  0  0  0  0  0  0  0
    9.5840   10.3690   23.2480 N   0  0  0  0  0  0  0  0  0  0  0  0
    8.6580   10.6730   24.2080 C   0  0  0  0  0  0  0  0  0  0  0  0
    8.6790   12.0450   24.3710 C   0  0  0  0  0  0  0  0  0  0  0  0
    9.6510   12.5650   23.4780 C   0  0  0  0  0  0  0  0  0  0  0  0
   10.1430   13.8200   23.1490 C   0  0  0  0  0  0  0  0  0  0  0  0
   11.0910   13.8880   22.1760 N   0  0  0  0  0  0  0  0  0  0  0  0
   12.2900   14.4850   22.4790 C   0  0  0  0  0  0  0  0  0  0  0  0
   12.5630   15.9340   21.6940 S   0  0  0  0  0  0  0  0  0  0  0  0
   13.1000   13.8360   23.4220 N   0  0  0  0  0  0  0  0  0  0  0  0
   14.4240   13.9170   23.8820 C   0  0  0  0  0  0  0  0  0  0  0  0
   15.0660   12.8630   24.5180 C   0  0  0  0  0  0  0  0  0  0  0  0
   16.3770   12.9360   24.9770 C   0  0  0  0  0  0  0  0  0  0  0  0
   17.0930   14.1030   24.8030 C   0  0  0  0  0  0  0  0  0  0  0  0
   16.4900   15.1710   24.1730 C   0  0  0  0  0  0  0  0  0  0  0  0
   15.1670   15.0820   23.7160 C   0  0  0  0  0  0  0  0  0  0  0  0
   10.1890   11.5020   22.8100 C   0  0  0  0  0  0  0  0  0  0  0  0
   10.5340    9.2300   21.8330 H   0  0  0  0  0  0  0  0  0  0  0  0
    9.0140    8.5510   22.4510 H   0  0  0  0  0  0  0  0  0  0  0  0
   10.4750    8.5120   23.4680 H   0  0  0  0  0  0  0  0  0  0  0  0
    8.0640    9.9070   24.6910 H   0  0  0  0  0  0  0  0  0  0  0  0
    8.0580   12.6050   25.0580 H   0  0  0  0  0  0  0  0  0  0  0  0
    9.3980   14.5740   22.9750 H   0  0  0  0  0  0  0  0  0  0  0  0
   10.6670   14.1810   24.0410 H   0  0  0  0  0  0  0  0  0  0  0  0
   11.1180   13.1520   21.4530 H   0  0  0  0  0  0  0  0  0  0  0  0
   12.5910   13.0870   23.8620 H   0  0  0  0  0  0  0  0  0  0  0  0
   14.5420   11.9500   24.6680 H   0  0  0  0  0  0  0  0  0  0  0  0
   16.8310   12.0800   25.4680 H   0  0  0  0  0  0  0  0  0  0  0  0
   18.1170   14.1840   25.1530 H   0  0  0  0  0  0  0  0  0  0  0  0
   17.0470   16.0740   24.0350 H   0  0  0  0  0  0  0  0  0  0  0  0
   14.7410   15.9370   23.2310 H   0  0  0  0  0  0  0  0  0  0  0  0
   10.9480   11.4670   22.0590 H   0  0  0  0  0  0  0  0  0  0  0  0
  1  2  1  0
  2  3  1  0
  3  4  2  0
  4  5  1  0
  5  6  1  0
  6  7  1  0
  7  8  1  0
  8  9  2  0
  8 10  1  0
 10 11  1  0
 11 12  2  0
 12 13  1  0
 13 14  2  0
 14 15  1  0
 15 16  2  0
  5 17  2  0
 17  2  1  0
 16 11  1  0
  1 18  1  0
  1 19  1  0
  1 20  1  0
  3 21  1  0
  4 22  1  0
  6 23  1  0
  6 24  1  0
  7 25  1  0
 10 26  1  0
 12 27  1  0
 13 28  1  0
 14 29  1  0
 15 30  1  0
 16 31  1  0
 17 32  1  0
A    1
 C1 
A    2
 N1 
A    3
 C2 
A    4
 C3 
A    5
 C4 
A    6
 C5 
A    7
 N2 
A    8
 C6 
A    9
 S1 
A   10
 N3 
A   11
 C7 
A   12
 C8 
A   13
 C9 
A   14
 C10
A   15
 C11
A   16
 C12
A   17
 C13
A   18
 H1 
A   19
 H2 
A   20
 H3 
A   21
 H4 
A   22
 H5 
A   23
 H6 
A   24
 H7 
A   25
 H8 
A   26
 H9 
A   27
 H10
A   28
 H11
A   29
 H12
A   30
 H13
A   31
 H14
A   32
 H15
M  END
>  <ref_pdb>  (23) 
x0310_0A

>  <ref_mols>  (23) 
x0451_0A,x0416_0A

>  <original SMILES>  (23) 
Cn1ccc(CNC(=S)Nc2ccccc2)c1

>  <rationale>  (23) 
info hbond:S125; hydroph_interaction:P107+Y89+H21+L22; pistack:H21; 

>  <intxn_cluster>  (23) 
206

>  <intxn_cluster_rank>  (23) 
5

>  <N_interactions>  (23) 
7

>  <∆∆G>  (23) 
-12.294432

>  <$/mg>  (23) 
163.0

>  <comRMSD>  (23) 
0.675825

>  <N_rotatable_bonds>  (23) 
4

>  <N_analogues_07>  (23) 
0

>  <deep_P1_sidechain>  (23) 
False

>  <farthest_distance_to_substrate>  (23) 
2.269807

>  <hbond:SER:7>  (23) 
hbond:SER:7    0
hbond:SER:7    0
Name: 22, dtype: object

>  <halogenbond:SER:7>  (23) 
halogenbond:SER:7    0
halogenbond:SER:7    0
Name: 22, dtype: object

>  <hbond:GLY:8>  (23) 
hbond:GLY:8    0
hbond:GLY:8    0
Name: 22, dtype: object

>  <hydroph_interaction:ASN:19>  (23) 
hydroph_interaction:ASN:19    0
hydroph_interaction:ASN:19    0
Name: 22, dtype: object

>  <hbond:ASN:19>  (23) 
hbond:ASN:19    0
hbond:ASN:19    0
Name: 22, dtype: object

>  <halogenbond:ASN:19>  (23) 
halogenbond:ASN:19    0
halogenbond:ASN:19    0
Name: 22, dtype: object

>  <hbond:ARG:20>  (23) 
hbond:ARG:20    0
hbond:ARG:20    0
Name: 22, dtype: object

>  <hydroph_interaction:ARG:20>  (23) 
hydroph_interaction:ARG:20    0
hydroph_interaction:ARG:20    0
Name: 22, dtype: object

>  <saltbridge:ARG:20>  (23) 
saltbridge:ARG:20    0
saltbridge:ARG:20    0
Name: 22, dtype: object

>  <halogenbond:ARG:20>  (23) 
halogenbond:ARG:20    0
halogenbond:ARG:20    0
Name: 22, dtype: object

>  <pication:ARG:20>  (23) 
pication:ARG:20    0
pication:ARG:20    0
Name: 22, dtype: object

>  <hbond:HIS:21>  (23) 
hbond:HIS:21    0
hbond:HIS:21    0
Name: 22, dtype: object

>  <hydroph_interaction:HIS:21>  (23) 
hydroph_interaction:HIS:21    1
hydroph_interaction:HIS:21    1
Name: 22, dtype: object

>  <saltbridge:HIS:21>  (23) 
saltbridge:HIS:21    0
saltbridge:HIS:21    0
Name: 22, dtype: object

>  <pistack:HIS:21>  (23) 
pistack:HIS:21    1
pistack:HIS:21    1
Name: 22, dtype: object

>  <pication:HIS:21>  (23) 
pication:HIS:21    0
pication:HIS:21    0
Name: 22, dtype: object

>  <halogenbond:HIS:21>  (23) 
halogenbond:HIS:21    0
halogenbond:HIS:21    0
Name: 22, dtype: object

>  <hydroph_interaction:LEU:22>  (23) 
hydroph_interaction:LEU:22    1
hydroph_interaction:LEU:22    1
Name: 22, dtype: object

>  <hbond:LEU:22>  (23) 
hbond:LEU:22    0
hbond:LEU:22    0
Name: 22, dtype: object

>  <hydroph_interaction:TRP:28>  (23) 
hydroph_interaction:TRP:28    0
hydroph_interaction:TRP:28    0
Name: 22, dtype: object

>  <hbond:SER:36>  (23) 
hbond:SER:36    0
hbond:SER:36    0
Name: 22, dtype: object

>  <halogenbond:SER:36>  (23) 
halogenbond:SER:36    0
halogenbond:SER:36    0
Name: 22, dtype: object

>  <hbond:ARG:38>  (23) 
hbond:ARG:38    0
hbond:ARG:38    0
Name: 22, dtype: object

>  <halogenbond:ARG:38>  (23) 
halogenbond:ARG:38    0
halogenbond:ARG:38    0
Name: 22, dtype: object

>  <hbond:ASP:39>  (23) 
hbond:ASP:39    0
hbond:ASP:39    0
Name: 22, dtype: object

>  <saltbridge:ASP:39>  (23) 
saltbridge:ASP:39    0
saltbridge:ASP:39    0
Name: 22, dtype: object

>  <hydroph_interaction:ASP:39>  (23) 
hydroph_interaction:ASP:39    0
hydroph_interaction:ASP:39    0
Name: 22, dtype: object

>  <halogenbond:ASP:39>  (23) 
halogenbond:ASP:39    0
halogenbond:ASP:39    0
Name: 22, dtype: object

>  <hydroph_interaction:LEU:40>  (23) 
hydroph_interaction:LEU:40    0
hydroph_interaction:LEU:40    0
Name: 22, dtype: object

>  <hydroph_interaction:TYR:63>  (23) 
hydroph_interaction:TYR:63    0
hydroph_interaction:TYR:63    0
Name: 22, dtype: object

>  <pistack:TYR:63>  (23) 
pistack:TYR:63    0
pistack:TYR:63    0
Name: 22, dtype: object

>  <hbond:TYR:63>  (23) 
hbond:TYR:63    0
hbond:TYR:63    0
Name: 22, dtype: object

>  <hbond:TYR:64>  (23) 
hbond:TYR:64    0
hbond:TYR:64    0
Name: 22, dtype: object

>  <halogenbond:TYR:64>  (23) 
halogenbond:TYR:64    0
halogenbond:TYR:64    0
Name: 22, dtype: object

>  <hydroph_interaction:TYR:64>  (23) 
hydroph_interaction:TYR:64    0
hydroph_interaction:TYR:64    0
Name: 22, dtype: object

>  <hbond:CYS:65>  (23) 
hbond:CYS:65    0
hbond:CYS:65    0
Name: 22, dtype: object

>  <halogenbond:CYS:65>  (23) 
halogenbond:CYS:65    0
halogenbond:CYS:65    0
Name: 22, dtype: object

>  <hbond:SER:66>  (23) 
hbond:SER:66    0
hbond:SER:66    0
Name: 22, dtype: object

>  <hbond:SER:67>  (23) 
hbond:SER:67    0
hbond:SER:67    0
Name: 22, dtype: object

>  <halogenbond:SER:67>  (23) 
halogenbond:SER:67    0
halogenbond:SER:67    0
Name: 22, dtype: object

>  <hydroph_interaction:ARG:68>  (23) 
hydroph_interaction:ARG:68    0
hydroph_interaction:ARG:68    0
Name: 22, dtype: object

>  <hbond:ARG:68>  (23) 
hbond:ARG:68    0
hbond:ARG:68    0
Name: 22, dtype: object

>  <saltbridge:ARG:68>  (23) 
saltbridge:ARG:68    0
saltbridge:ARG:68    0
Name: 22, dtype: object

>  <pication:ARG:68>  (23) 
pication:ARG:68    0
pication:ARG:68    0
Name: 22, dtype: object

>  <hydroph_interaction:TYR:72>  (23) 
hydroph_interaction:TYR:72    0
hydroph_interaction:TYR:72    0
Name: 22, dtype: object

>  <hydroph_interaction:VAL:74>  (23) 
hydroph_interaction:VAL:74    0
hydroph_interaction:VAL:74    0
Name: 22, dtype: object

>  <hydroph_interaction:PHE:76>  (23) 
hydroph_interaction:PHE:76    0
hydroph_interaction:PHE:76    0
Name: 22, dtype: object

>  <hbond:SER:77>  (23) 
hbond:SER:77    0
hbond:SER:77    0
Name: 22, dtype: object

>  <hbond:SER:80>  (23) 
hbond:SER:80    0
hbond:SER:80    0
Name: 22, dtype: object

>  <hbond:LEU:81>  (23) 
hbond:LEU:81    0
hbond:LEU:81    0
Name: 22, dtype: object

>  <halogenbond:LEU:81>  (23) 
halogenbond:LEU:81    0
halogenbond:LEU:81    0
Name: 22, dtype: object

>  <hydroph_interaction:LEU:81>  (23) 
hydroph_interaction:LEU:81    0
hydroph_interaction:LEU:81    0
Name: 22, dtype: object

>  <hydroph_interaction:ILE:82>  (23) 
hydroph_interaction:ILE:82    0
hydroph_interaction:ILE:82    0
Name: 22, dtype: object

>  <hbond:ILE:82>  (23) 
hbond:ILE:82    0
hbond:ILE:82    0
Name: 22, dtype: object

>  <hydroph_interaction:PHE:83>  (23) 
hydroph_interaction:PHE:83    0
hydroph_interaction:PHE:83    0
Name: 22, dtype: object

>  <hbond:PHE:83>  (23) 
hbond:PHE:83    0
hbond:PHE:83    0
Name: 22, dtype: object

>  <halogenbond:PHE:83>  (23) 
halogenbond:PHE:83    0
halogenbond:PHE:83    0
Name: 22, dtype: object

>  <pistack:PHE:83>  (23) 
pistack:PHE:83    0
pistack:PHE:83    0
Name: 22, dtype: object

>  <hydroph_interaction:VAL:84>  (23) 
hydroph_interaction:VAL:84    0
hydroph_interaction:VAL:84    0
Name: 22, dtype: object

>  <hbond:VAL:84>  (23) 
hbond:VAL:84    0
hbond:VAL:84    0
Name: 22, dtype: object

>  <halogenbond:VAL:84>  (23) 
halogenbond:VAL:84    0
halogenbond:VAL:84    0
Name: 22, dtype: object

>  <hydroph_interaction:GLU:85>  (23) 
hydroph_interaction:GLU:85    0
hydroph_interaction:GLU:85    0
Name: 22, dtype: object

>  <hbond:GLU:85>  (23) 
hbond:GLU:85    0
hbond:GLU:85    0
Name: 22, dtype: object

>  <saltbridge:GLU:85>  (23) 
saltbridge:GLU:85    0
saltbridge:GLU:85    0
Name: 22, dtype: object

>  <halogenbond:GLU:85>  (23) 
halogenbond:GLU:85    0
halogenbond:GLU:85    0
Name: 22, dtype: object

>  <hbond:ALA:86>  (23) 
hbond:ALA:86    0
hbond:ALA:86    0
Name: 22, dtype: object

>  <halogenbond:ALA:86>  (23) 
halogenbond:ALA:86    0
halogenbond:ALA:86    0
Name: 22, dtype: object

>  <hydroph_interaction:ALA:86>  (23) 
hydroph_interaction:ALA:86    0
hydroph_interaction:ALA:86    0
Name: 22, dtype: object

>  <hbond:SER:87>  (23) 
hbond:SER:87    0
hbond:SER:87    0
Name: 22, dtype: object

>  <halogenbond:SER:87>  (23) 
halogenbond:SER:87    0
halogenbond:SER:87    0
Name: 22, dtype: object

>  <hbond:GLU:88>  (23) 
hbond:GLU:88    0
hbond:GLU:88    0
Name: 22, dtype: object

>  <hydroph_interaction:GLU:88>  (23) 
hydroph_interaction:GLU:88    0
hydroph_interaction:GLU:88    0
Name: 22, dtype: object

>  <halogenbond:GLU:88>  (23) 
halogenbond:GLU:88    0
halogenbond:GLU:88    0
Name: 22, dtype: object

>  <saltbridge:GLU:88>  (23) 
saltbridge:GLU:88    0
saltbridge:GLU:88    0
Name: 22, dtype: object

>  <hydroph_interaction:TYR:89>  (23) 
hydroph_interaction:TYR:89    2
hydroph_interaction:TYR:89    2
Name: 22, dtype: object

>  <pistack:TYR:89>  (23) 
pistack:TYR:89    0
pistack:TYR:89    0
Name: 22, dtype: object

>  <hbond:TYR:89>  (23) 
hbond:TYR:89    0
hbond:TYR:89    0
Name: 22, dtype: object

>  <halogenbond:TYR:89>  (23) 
halogenbond:TYR:89    0
halogenbond:TYR:89    0
Name: 22, dtype: object

>  <hbond:TYR:90>  (23) 
hbond:TYR:90    0
hbond:TYR:90    0
Name: 22, dtype: object

>  <hydroph_interaction:TYR:90>  (23) 
hydroph_interaction:TYR:90    0
hydroph_interaction:TYR:90    0
Name: 22, dtype: object

>  <pistack:TYR:90>  (23) 
pistack:TYR:90    0
pistack:TYR:90    0
Name: 22, dtype: object

>  <halogenbond:TYR:90>  (23) 
halogenbond:TYR:90    0
halogenbond:TYR:90    0
Name: 22, dtype: object

>  <pication:TYR:90>  (23) 
pication:TYR:90    0
pication:TYR:90    0
Name: 22, dtype: object

>  <hydroph_interaction:PRO:91>  (23) 
hydroph_interaction:PRO:91    0
hydroph_interaction:PRO:91    0
Name: 22, dtype: object

>  <halogenbond:PRO:91>  (23) 
halogenbond:PRO:91    0
halogenbond:PRO:91    0
Name: 22, dtype: object

>  <hbond:PRO:91>  (23) 
hbond:PRO:91    0
hbond:PRO:91    0
Name: 22, dtype: object

>  <hydroph_interaction:ALA:92>  (23) 
hydroph_interaction:ALA:92    0
hydroph_interaction:ALA:92    0
Name: 22, dtype: object

>  <hbond:ARG:93>  (23) 
hbond:ARG:93    0
hbond:ARG:93    0
Name: 22, dtype: object

>  <pication:ARG:93>  (23) 
pication:ARG:93    0
pication:ARG:93    0
Name: 22, dtype: object

>  <saltbridge:ARG:93>  (23) 
saltbridge:ARG:93    0
saltbridge:ARG:93    0
Name: 22, dtype: object

>  <hydroph_interaction:ARG:93>  (23) 
hydroph_interaction:ARG:93    0
hydroph_interaction:ARG:93    0
Name: 22, dtype: object

>  <halogenbond:ARG:93>  (23) 
halogenbond:ARG:93    0
halogenbond:ARG:93    0
Name: 22, dtype: object

>  <hydroph_interaction:TYR:94>  (23) 
hydroph_interaction:TYR:94    0
hydroph_interaction:TYR:94    0
Name: 22, dtype: object

>  <hbond:TYR:94>  (23) 
hbond:TYR:94    0
hbond:TYR:94    0
Name: 22, dtype: object

>  <halogenbond:GLN:95>  (23) 
halogenbond:GLN:95    0
halogenbond:GLN:95    0
Name: 22, dtype: object

>  <hbond:GLN:95>  (23) 
hbond:GLN:95    0
hbond:GLN:95    0
Name: 22, dtype: object

>  <hydroph_interaction:GLN:95>  (23) 
hydroph_interaction:GLN:95    0
hydroph_interaction:GLN:95    0
Name: 22, dtype: object

>  <hbond:SER:96>  (23) 
hbond:SER:96    0
hbond:SER:96    0
Name: 22, dtype: object

>  <hydroph_interaction:LEU:98>  (23) 
hydroph_interaction:LEU:98    0
hydroph_interaction:LEU:98    0
Name: 22, dtype: object

>  <hbond:LEU:98>  (23) 
hbond:LEU:98    0
hbond:LEU:98    0
Name: 22, dtype: object

>  <hbond:MET:99>  (23) 
hbond:MET:99    0
hbond:MET:99    0
Name: 22, dtype: object

>  <hydroph_interaction:MET:99>  (23) 
hydroph_interaction:MET:99    0
hydroph_interaction:MET:99    0
Name: 22, dtype: object

>  <halogenbond:MET:99>  (23) 
halogenbond:MET:99    0
halogenbond:MET:99    0
Name: 22, dtype: object

>  <hydroph_interaction:LEU:100>  (23) 
hydroph_interaction:LEU:100    0
hydroph_interaction:LEU:100    0
Name: 22, dtype: object

>  <hbond:LEU:100>  (23) 
hbond:LEU:100    0
hbond:LEU:100    0
Name: 22, dtype: object

>  <hbond:ALA:101>  (23) 
hbond:ALA:101    0
hbond:ALA:101    0
Name: 22, dtype: object

>  <hydroph_interaction:ALA:101>  (23) 
hydroph_interaction:ALA:101    0
hydroph_interaction:ALA:101    0
Name: 22, dtype: object

>  <hydroph_interaction:VAL:102>  (23) 
hydroph_interaction:VAL:102    0
hydroph_interaction:VAL:102    0
Name: 22, dtype: object

>  <hbond:VAL:102>  (23) 
hbond:VAL:102    0
hbond:VAL:102    0
Name: 22, dtype: object

>  <hbond:GLY:103>  (23) 
hbond:GLY:103    0
hbond:GLY:103    0
Name: 22, dtype: object

>  <halogenbond:GLY:103>  (23) 
halogenbond:GLY:103    0
halogenbond:GLY:103    0
Name: 22, dtype: object

>  <hydroph_interaction:HIS:104>  (23) 
hydroph_interaction:HIS:104    0
hydroph_interaction:HIS:104    0
Name: 22, dtype: object

>  <hbond:HIS:104>  (23) 
hbond:HIS:104    0
hbond:HIS:104    0
Name: 22, dtype: object

>  <saltbridge:HIS:104>  (23) 
saltbridge:HIS:104    0
saltbridge:HIS:104    0
Name: 22, dtype: object

>  <pication:HIS:104>  (23) 
pication:HIS:104    0
pication:HIS:104    0
Name: 22, dtype: object

>  <pistack:HIS:104>  (23) 
pistack:HIS:104    0
pistack:HIS:104    0
Name: 22, dtype: object

>  <halogenbond:HIS:104>  (23) 
halogenbond:HIS:104    0
halogenbond:HIS:104    0
Name: 22, dtype: object

>  <hbond:SER:105>  (23) 
hbond:SER:105    0
hbond:SER:105    0
Name: 22, dtype: object

>  <halogenbond:SER:105>  (23) 
halogenbond:SER:105    0
halogenbond:SER:105    0
Name: 22, dtype: object

>  <hbond:GLU:106>  (23) 
hbond:GLU:106    0
hbond:GLU:106    0
Name: 22, dtype: object

>  <hydroph_interaction:GLU:106>  (23) 
hydroph_interaction:GLU:106    0
hydroph_interaction:GLU:106    0
Name: 22, dtype: object

>  <saltbridge:GLU:106>  (23) 
saltbridge:GLU:106    0
saltbridge:GLU:106    0
Name: 22, dtype: object

>  <halogenbond:GLU:106>  (23) 
halogenbond:GLU:106    0
halogenbond:GLU:106    0
Name: 22, dtype: object

>  <hydroph_interaction:PRO:107>  (23) 
hydroph_interaction:PRO:107    1
hydroph_interaction:PRO:107    1
Name: 22, dtype: object

>  <hbond:PRO:107>  (23) 
hbond:PRO:107    0
hbond:PRO:107    0
Name: 22, dtype: object

>  <halogenbond:PRO:107>  (23) 
halogenbond:PRO:107    0
halogenbond:PRO:107    0
Name: 22, dtype: object

>  <hbond:GLY:108>  (23) 
hbond:GLY:108    0
hbond:GLY:108    0
Name: 22, dtype: object

>  <halogenbond:GLY:108>  (23) 
halogenbond:GLY:108    0
halogenbond:GLY:108    0
Name: 22, dtype: object

>  <hbond:ASP:109>  (23) 
hbond:ASP:109    0
hbond:ASP:109    0
Name: 22, dtype: object

>  <hydroph_interaction:ASP:109>  (23) 
hydroph_interaction:ASP:109    0
hydroph_interaction:ASP:109    0
Name: 22, dtype: object

>  <saltbridge:ASP:109>  (23) 
saltbridge:ASP:109    0
saltbridge:ASP:109    0
Name: 22, dtype: object

>  <hbond:CYS:110>  (23) 
hbond:CYS:110    0
hbond:CYS:110    0
Name: 22, dtype: object

>  <halogenbond:CYS:110>  (23) 
halogenbond:CYS:110    0
halogenbond:CYS:110    0
Name: 22, dtype: object

>  <hbond:GLY:111>  (23) 
hbond:GLY:111    0
hbond:GLY:111    0
Name: 22, dtype: object

>  <hbond:GLY:112>  (23) 
hbond:GLY:112    0
hbond:GLY:112    0
Name: 22, dtype: object

>  <hbond:ILE:113>  (23) 
hbond:ILE:113    0
hbond:ILE:113    0
Name: 22, dtype: object

>  <hydroph_interaction:LEU:114>  (23) 
hydroph_interaction:LEU:114    0
hydroph_interaction:LEU:114    0
Name: 22, dtype: object

>  <hbond:LEU:114>  (23) 
hbond:LEU:114    0
hbond:LEU:114    0
Name: 22, dtype: object

>  <hydroph_interaction:ILE:123>  (23) 
hydroph_interaction:ILE:123    0
hydroph_interaction:ILE:123    0
Name: 22, dtype: object

>  <hbond:ILE:123>  (23) 
hbond:ILE:123    0
hbond:ILE:123    0
Name: 22, dtype: object

>  <hydroph_interaction:VAL:124>  (23) 
hydroph_interaction:VAL:124    0
hydroph_interaction:VAL:124    0
Name: 22, dtype: object

>  <hbond:VAL:124>  (23) 
hbond:VAL:124    0
hbond:VAL:124    0
Name: 22, dtype: object

>  <halogenbond:VAL:124>  (23) 
halogenbond:VAL:124    0
halogenbond:VAL:124    0
Name: 22, dtype: object

>  <hbond:SER:125>  (23) 
hbond:SER:125    1
hbond:SER:125    1
Name: 22, dtype: object

>  <halogenbond:SER:125>  (23) 
halogenbond:SER:125    0
halogenbond:SER:125    0
Name: 22, dtype: object

>  <hydroph_interaction:THR:126>  (23) 
hydroph_interaction:THR:126    0
hydroph_interaction:THR:126    0
Name: 22, dtype: object

>  <hbond:THR:126>  (23) 
hbond:THR:126    0
hbond:THR:126    0
Name: 22, dtype: object

>  <halogenbond:THR:126>  (23) 
halogenbond:THR:126    0
halogenbond:THR:126    0
Name: 22, dtype: object

>  <hbond:GLY:127>  (23) 
hbond:GLY:127    0
hbond:GLY:127    0
Name: 22, dtype: object

>  <halogenbond:GLY:127>  (23) 
halogenbond:GLY:127    0
halogenbond:GLY:127    0
Name: 22, dtype: object

>  <hydroph_interaction:GLY:127>  (23) 
hydroph_interaction:GLY:127    0
hydroph_interaction:GLY:127    0
Name: 22, dtype: object

>  <hbond:GLY:128>  (23) 
hbond:GLY:128    0
hbond:GLY:128    0
Name: 22, dtype: object

>  <halogenbond:GLY:128>  (23) 
halogenbond:GLY:128    0
halogenbond:GLY:128    0
Name: 22, dtype: object

>  <hydroph_interaction:GLY:128>  (23) 
hydroph_interaction:GLY:128    0
hydroph_interaction:GLY:128    0
Name: 22, dtype: object

>  <hbond:ASN:129>  (23) 
hbond:ASN:129    0
hbond:ASN:129    0
Name: 22, dtype: object

>  <hydroph_interaction:ASN:129>  (23) 
hydroph_interaction:ASN:129    0
hydroph_interaction:ASN:129    0
Name: 22, dtype: object

>  <halogenbond:ASN:129>  (23) 
halogenbond:ASN:129    0
halogenbond:ASN:129    0
Name: 22, dtype: object

>  <hbond:GLY:130>  (23) 
hbond:GLY:130    0
hbond:GLY:130    0
Name: 22, dtype: object

>  <hydroph_interaction:LEU:131>  (23) 
hydroph_interaction:LEU:131    0
hydroph_interaction:LEU:131    0
Name: 22, dtype: object

>  <hbond:LEU:131>  (23) 
hbond:LEU:131    0
hbond:LEU:131    0
Name: 22, dtype: object

>  <halogenbond:LEU:131>  (23) 
halogenbond:LEU:131    0
halogenbond:LEU:131    0
Name: 22, dtype: object

>  <hydroph_interaction:VAL:132>  (23) 
hydroph_interaction:VAL:132    0
hydroph_interaction:VAL:132    0
Name: 22, dtype: object

>  <hbond:VAL:132>  (23) 
hbond:VAL:132    0
hbond:VAL:132    0
Name: 22, dtype: object

>  <hbond:GLY:133>  (23) 
hbond:GLY:133    0
hbond:GLY:133    0
Name: 22, dtype: object

>  <halogenbond:GLY:133>  (23) 
halogenbond:GLY:133    0
halogenbond:GLY:133    0
Name: 22, dtype: object

>  <hydroph_interaction:PHE:134>  (23) 
hydroph_interaction:PHE:134    0
hydroph_interaction:PHE:134    0
Name: 22, dtype: object

>  <hbond:PHE:134>  (23) 
hbond:PHE:134    0
hbond:PHE:134    0
Name: 22, dtype: object

>  <pistack:PHE:134>  (23) 
pistack:PHE:134    0
pistack:PHE:134    0
Name: 22, dtype: object

>  <pication:PHE:134>  (23) 
pication:PHE:134    0
pication:PHE:134    0
Name: 22, dtype: object

>  <hydroph_interaction:ALA:135>  (23) 
hydroph_interaction:ALA:135    0
hydroph_interaction:ALA:135    0
Name: 22, dtype: object

>  <hbond:ALA:135>  (23) 
hbond:ALA:135    0
hbond:ALA:135    0
Name: 22, dtype: object

$$$$
PV_003568212715
     RDKit          3D

 46 47  0  0  0  0  0  0  0  0999 V2000
   10.6130    8.1850   21.3030 C   0  0  0  0  0  0  0  0  0  0  0  0
    9.7020    8.7980   22.1410 N   0  0  0  0  0  0  0  0  0  0  0  0
   10.2560    9.5050   23.1000 C   0  0  0  0  0  0  0  0  0  0  0  0
   11.3900    9.2980   23.4410 O   0  0  0  0  0  0  0  0  0  0  0  0
    9.3820   10.4760   23.7050 C   0  0  0  0  0  0  0  0  0  0  0  0
    8.3800   10.0660   24.4920 N   0  0  0  0  0  0  0  0  0  0  0  0
    7.8000   11.2030   24.8780 N   0  0  0  0  0  0  0  0  0  0  0  0
    6.6660   11.1340   25.7610 C   0  0  0  0  0  0  0  0  0  0  0  0
    8.3860   12.3200   24.3650 C   0  0  0  0  0  0  0  0  0  0  0  0
    9.4350   11.8880   23.5900 C   0  0  0  0  0  0  0  0  0  0  0  0
   10.3450   12.6510   22.8680 N   0  0  0  0  0  0  0  0  0  0  0  0
   11.2630   13.4860   23.4680 C   0  0  0  0  0  0  0  0  0  0  0  0
   11.2410   13.8800   24.6240 O   0  0  0  0  0  0  0  0  0  0  0  0
   12.2400   13.8660   22.6060 N   0  0  0  0  0  0  0  0  0  0  0  0
   12.0430   15.0690   21.8370 C   0  0  0  0  0  0  0  0  0  0  0  0
   13.3480   15.3190   21.1510 C   0  0  0  0  0  0  0  0  0  0  0  0
   10.8610   14.9090   20.8590 C   0  0  0  0  0  0  0  0  0  0  0  0
   11.2730   15.2170   19.4990 N   0  0  0  0  0  0  0  0  0  0  0  0
   10.4650   16.0920   18.7940 C   0  0  0  0  0  0  0  0  0  0  0  0
   10.8270   16.4420   17.4980 C   0  0  0  0  0  0  0  0  0  0  0  0
   10.0510   17.3100   16.7440 C   0  0  0  0  0  0  0  0  0  0  0  0
    8.8980   17.8350   17.2930 C   0  0  0  0  0  0  0  0  0  0  0  0
    8.5280   17.5110   18.5800 C   0  0  0  0  0  0  0  0  0  0  0  0
    9.3070   16.6420   19.3220 C   0  0  0  0  0  0  0  0  0  0  0  0
   11.4110    8.8810   21.0800 H   0  0  0  0  0  0  0  0  0  0  0  0
   11.0110    7.3190   21.8210 H   0  0  0  0  0  0  0  0  0  0  0  0
   10.0880    7.8970   20.3960 H   0  0  0  0  0  0  0  0  0  0  0  0
    8.9230    8.2460   22.4590 H   0  0  0  0  0  0  0  0  0  0  0  0
    7.0080   11.3140   26.7800 H   0  0  0  0  0  0  0  0  0  0  0  0
    6.2130   10.1430   25.6950 H   0  0  0  0  0  0  0  0  0  0  0  0
    5.9470   11.8990   25.4620 H   0  0  0  0  0  0  0  0  0  0  0  0
    8.0200   13.3100   24.5930 H   0  0  0  0  0  0  0  0  0  0  0  0
   10.5420   12.3410   21.9010 H   0  0  0  0  0  0  0  0  0  0  0  0
   12.7230   13.1110   22.1350 H   0  0  0  0  0  0  0  0  0  0  0  0
   11.8470   15.8950   22.5330 H   0  0  0  0  0  0  0  0  0  0  0  0
   13.5620   16.3650   21.0310 H   0  0  0  0  0  0  0  0  0  0  0  0
   14.1280   14.9140   21.7810 H   0  0  0  0  0  0  0  0  0  0  0  0
   13.4040   14.8270   20.1730 H   0  0  0  0  0  0  0  0  0  0  0  0
   10.4880   13.8860   20.9330 H   0  0  0  0  0  0  0  0  0  0  0  0
   10.0470   15.5750   21.1430 H   0  0  0  0  0  0  0  0  0  0  0  0
   12.2420   15.5230   19.4570 H   0  0  0  0  0  0  0  0  0  0  0  0
   11.7280   16.0320   17.0580 H   0  0  0  0  0  0  0  0  0  0  0  0
   10.3500   17.5680   15.7320 H   0  0  0  0  0  0  0  0  0  0  0  0
    8.2860   18.4940   16.7230 H   0  0  0  0  0  0  0  0  0  0  0  0
    7.6220   17.9340   19.0130 H   0  0  0  0  0  0  0  0  0  0  0  0
    8.9790   16.4090   20.3220 H   0  0  0  0  0  0  0  0  0  0  0  0
  1  2  1  0
  2  3  1  0
  3  4  2  0
  3  5  1  0
  5  6  2  0
  6  7  1  0
  7  8  1  0
  7  9  1  0
  9 10  2  0
 10 11  1  0
 11 12  1  0
 12 13  2  0
 12 14  1  0
 14 15  1  0
 15 16  1  0
 15 17  1  0
 17 18  1  0
 18 19  1  0
 19 20  2  0
 20 21  1  0
 21 22  2  0
 22 23  1  0
 23 24  2  0
 10  5  1  0
 24 19  1  0
  1 25  1  0
  1 26  1  0
  1 27  1  0
  2 28  1  0
  8 29  1  0
  8 30  1  0
  8 31  1  0
  9 32  1  0
 11 33  1  0
 14 34  1  0
 15 35  1  0
 16 36  1  0
 16 37  1  0
 16 38  1  0
 17 39  1  0
 17 40  1  0
 18 41  1  0
 20 42  1  0
 21 43  1  0
 22 44  1  0
 23 45  1  0
 24 46  1  0
A    1
 C1 
A    2
 N1 
A    3
 C2 
A    4
 O1 
A    5
 C3 
A    6
 N2 
A    7
 N3 
A    8
 C4 
A    9
 C5 
A   10
 C6 
A   11
 N4 
A   12
 C7 
A   13
 O2 
A   14
 N5 
A   15
 C8 
A   16
 C9 
A   17
 C10
A   18
 N6 
A   19
 C11
A   20
 C12
A   21
 C13
A   22
 C14
A   23
 C15
A   24
 C16
A   25
 H1 
A   26
 H2 
A   27
 H3 
A   28
 H4 
A   29
 H5 
A   30
 H6 
A   31
 H7 
A   32
 H8 
A   33
 H9 
A   34
 H10
A   35
 H11
A   36
 H12
A   37
 H13
A   38
 H14
A   39
 H15
A   40
 H16
A   41
 H17
A   42
 H18
A   43
 H19
A   44
 H20
A   45
 H21
A   46
 H22
M  END
>  <ref_pdb>  (24) 
x0310_0A

>  <ref_mols>  (24) 
x0310_0A,x0375_0A

>  <original SMILES>  (24) 
CNC(=O)c1nn(C)cc1NC(=O)NC(C)CNc1ccccc1

>  <rationale>  (24) 
info hbond:S125+S105+H21+T126+C110; hydroph_interaction:Y89+Y90+V84+Q95+R93; 

>  <intxn_cluster>  (24) 
103

>  <intxn_cluster_rank>  (24) 
5

>  <N_interactions>  (24) 
12

>  <∆∆G>  (24) 
-11.742339

>  <$/mg>  (24) 
163.0

>  <comRMSD>  (24) 
0.514617

>  <N_rotatable_bonds>  (24) 
9

>  <N_analogues_07>  (24) 
0

>  <deep_P1_sidechain>  (24) 
True

>  <farthest_distance_to_substrate>  (24) 
3.774164

>  <hbond:SER:7>  (24) 
hbond:SER:7    0
hbond:SER:7    0
Name: 23, dtype: object

>  <halogenbond:SER:7>  (24) 
halogenbond:SER:7    0
halogenbond:SER:7    0
Name: 23, dtype: object

>  <hbond:GLY:8>  (24) 
hbond:GLY:8    0
hbond:GLY:8    0
Name: 23, dtype: object

>  <hydroph_interaction:ASN:19>  (24) 
hydroph_interaction:ASN:19    0
hydroph_interaction:ASN:19    0
Name: 23, dtype: object

>  <hbond:ASN:19>  (24) 
hbond:ASN:19    0
hbond:ASN:19    0
Name: 23, dtype: object

>  <halogenbond:ASN:19>  (24) 
halogenbond:ASN:19    0
halogenbond:ASN:19    0
Name: 23, dtype: object

>  <hbond:ARG:20>  (24) 
hbond:ARG:20    0
hbond:ARG:20    0
Name: 23, dtype: object

>  <hydroph_interaction:ARG:20>  (24) 
hydroph_interaction:ARG:20    0
hydroph_interaction:ARG:20    0
Name: 23, dtype: object

>  <saltbridge:ARG:20>  (24) 
saltbridge:ARG:20    0
saltbridge:ARG:20    0
Name: 23, dtype: object

>  <halogenbond:ARG:20>  (24) 
halogenbond:ARG:20    0
halogenbond:ARG:20    0
Name: 23, dtype: object

>  <pication:ARG:20>  (24) 
pication:ARG:20    0
pication:ARG:20    0
Name: 23, dtype: object

>  <hbond:HIS:21>  (24) 
hbond:HIS:21    1
hbond:HIS:21    1
Name: 23, dtype: object

>  <hydroph_interaction:HIS:21>  (24) 
hydroph_interaction:HIS:21    0
hydroph_interaction:HIS:21    0
Name: 23, dtype: object

>  <saltbridge:HIS:21>  (24) 
saltbridge:HIS:21    0
saltbridge:HIS:21    0
Name: 23, dtype: object

>  <pistack:HIS:21>  (24) 
pistack:HIS:21    0
pistack:HIS:21    0
Name: 23, dtype: object

>  <pication:HIS:21>  (24) 
pication:HIS:21    0
pication:HIS:21    0
Name: 23, dtype: object

>  <halogenbond:HIS:21>  (24) 
halogenbond:HIS:21    0
halogenbond:HIS:21    0
Name: 23, dtype: object

>  <hydroph_interaction:LEU:22>  (24) 
hydroph_interaction:LEU:22    0
hydroph_interaction:LEU:22    0
Name: 23, dtype: object

>  <hbond:LEU:22>  (24) 
hbond:LEU:22    0
hbond:LEU:22    0
Name: 23, dtype: object

>  <hydroph_interaction:TRP:28>  (24) 
hydroph_interaction:TRP:28    0
hydroph_interaction:TRP:28    0
Name: 23, dtype: object

>  <hbond:SER:36>  (24) 
hbond:SER:36    0
hbond:SER:36    0
Name: 23, dtype: object

>  <halogenbond:SER:36>  (24) 
halogenbond:SER:36    0
halogenbond:SER:36    0
Name: 23, dtype: object

>  <hbond:ARG:38>  (24) 
hbond:ARG:38    0
hbond:ARG:38    0
Name: 23, dtype: object

>  <halogenbond:ARG:38>  (24) 
halogenbond:ARG:38    0
halogenbond:ARG:38    0
Name: 23, dtype: object

>  <hbond:ASP:39>  (24) 
hbond:ASP:39    0
hbond:ASP:39    0
Name: 23, dtype: object

>  <saltbridge:ASP:39>  (24) 
saltbridge:ASP:39    0
saltbridge:ASP:39    0
Name: 23, dtype: object

>  <hydroph_interaction:ASP:39>  (24) 
hydroph_interaction:ASP:39    0
hydroph_interaction:ASP:39    0
Name: 23, dtype: object

>  <halogenbond:ASP:39>  (24) 
halogenbond:ASP:39    0
halogenbond:ASP:39    0
Name: 23, dtype: object

>  <hydroph_interaction:LEU:40>  (24) 
hydroph_interaction:LEU:40    0
hydroph_interaction:LEU:40    0
Name: 23, dtype: object

>  <hydroph_interaction:TYR:63>  (24) 
hydroph_interaction:TYR:63    0
hydroph_interaction:TYR:63    0
Name: 23, dtype: object

>  <pistack:TYR:63>  (24) 
pistack:TYR:63    0
pistack:TYR:63    0
Name: 23, dtype: object

>  <hbond:TYR:63>  (24) 
hbond:TYR:63    0
hbond:TYR:63    0
Name: 23, dtype: object

>  <hbond:TYR:64>  (24) 
hbond:TYR:64    0
hbond:TYR:64    0
Name: 23, dtype: object

>  <halogenbond:TYR:64>  (24) 
halogenbond:TYR:64    0
halogenbond:TYR:64    0
Name: 23, dtype: object

>  <hydroph_interaction:TYR:64>  (24) 
hydroph_interaction:TYR:64    0
hydroph_interaction:TYR:64    0
Name: 23, dtype: object

>  <hbond:CYS:65>  (24) 
hbond:CYS:65    0
hbond:CYS:65    0
Name: 23, dtype: object

>  <halogenbond:CYS:65>  (24) 
halogenbond:CYS:65    0
halogenbond:CYS:65    0
Name: 23, dtype: object

>  <hbond:SER:66>  (24) 
hbond:SER:66    0
hbond:SER:66    0
Name: 23, dtype: object

>  <hbond:SER:67>  (24) 
hbond:SER:67    0
hbond:SER:67    0
Name: 23, dtype: object

>  <halogenbond:SER:67>  (24) 
halogenbond:SER:67    0
halogenbond:SER:67    0
Name: 23, dtype: object

>  <hydroph_interaction:ARG:68>  (24) 
hydroph_interaction:ARG:68    0
hydroph_interaction:ARG:68    0
Name: 23, dtype: object

>  <hbond:ARG:68>  (24) 
hbond:ARG:68    0
hbond:ARG:68    0
Name: 23, dtype: object

>  <saltbridge:ARG:68>  (24) 
saltbridge:ARG:68    0
saltbridge:ARG:68    0
Name: 23, dtype: object

>  <pication:ARG:68>  (24) 
pication:ARG:68    0
pication:ARG:68    0
Name: 23, dtype: object

>  <hydroph_interaction:TYR:72>  (24) 
hydroph_interaction:TYR:72    0
hydroph_interaction:TYR:72    0
Name: 23, dtype: object

>  <hydroph_interaction:VAL:74>  (24) 
hydroph_interaction:VAL:74    0
hydroph_interaction:VAL:74    0
Name: 23, dtype: object

>  <hydroph_interaction:PHE:76>  (24) 
hydroph_interaction:PHE:76    0
hydroph_interaction:PHE:76    0
Name: 23, dtype: object

>  <hbond:SER:77>  (24) 
hbond:SER:77    0
hbond:SER:77    0
Name: 23, dtype: object

>  <hbond:SER:80>  (24) 
hbond:SER:80    0
hbond:SER:80    0
Name: 23, dtype: object

>  <hbond:LEU:81>  (24) 
hbond:LEU:81    0
hbond:LEU:81    0
Name: 23, dtype: object

>  <halogenbond:LEU:81>  (24) 
halogenbond:LEU:81    0
halogenbond:LEU:81    0
Name: 23, dtype: object

>  <hydroph_interaction:LEU:81>  (24) 
hydroph_interaction:LEU:81    0
hydroph_interaction:LEU:81    0
Name: 23, dtype: object

>  <hydroph_interaction:ILE:82>  (24) 
hydroph_interaction:ILE:82    0
hydroph_interaction:ILE:82    0
Name: 23, dtype: object

>  <hbond:ILE:82>  (24) 
hbond:ILE:82    0
hbond:ILE:82    0
Name: 23, dtype: object

>  <hydroph_interaction:PHE:83>  (24) 
hydroph_interaction:PHE:83    0
hydroph_interaction:PHE:83    0
Name: 23, dtype: object

>  <hbond:PHE:83>  (24) 
hbond:PHE:83    0
hbond:PHE:83    0
Name: 23, dtype: object

>  <halogenbond:PHE:83>  (24) 
halogenbond:PHE:83    0
halogenbond:PHE:83    0
Name: 23, dtype: object

>  <pistack:PHE:83>  (24) 
pistack:PHE:83    0
pistack:PHE:83    0
Name: 23, dtype: object

>  <hydroph_interaction:VAL:84>  (24) 
hydroph_interaction:VAL:84    2
hydroph_interaction:VAL:84    2
Name: 23, dtype: object

>  <hbond:VAL:84>  (24) 
hbond:VAL:84    0
hbond:VAL:84    0
Name: 23, dtype: object

>  <halogenbond:VAL:84>  (24) 
halogenbond:VAL:84    0
halogenbond:VAL:84    0
Name: 23, dtype: object

>  <hydroph_interaction:GLU:85>  (24) 
hydroph_interaction:GLU:85    0
hydroph_interaction:GLU:85    0
Name: 23, dtype: object

>  <hbond:GLU:85>  (24) 
hbond:GLU:85    0
hbond:GLU:85    0
Name: 23, dtype: object

>  <saltbridge:GLU:85>  (24) 
saltbridge:GLU:85    0
saltbridge:GLU:85    0
Name: 23, dtype: object

>  <halogenbond:GLU:85>  (24) 
halogenbond:GLU:85    0
halogenbond:GLU:85    0
Name: 23, dtype: object

>  <hbond:ALA:86>  (24) 
hbond:ALA:86    0
hbond:ALA:86    0
Name: 23, dtype: object

>  <halogenbond:ALA:86>  (24) 
halogenbond:ALA:86    0
halogenbond:ALA:86    0
Name: 23, dtype: object

>  <hydroph_interaction:ALA:86>  (24) 
hydroph_interaction:ALA:86    0
hydroph_interaction:ALA:86    0
Name: 23, dtype: object

>  <hbond:SER:87>  (24) 
hbond:SER:87    0
hbond:SER:87    0
Name: 23, dtype: object

>  <halogenbond:SER:87>  (24) 
halogenbond:SER:87    0
halogenbond:SER:87    0
Name: 23, dtype: object

>  <hbond:GLU:88>  (24) 
hbond:GLU:88    0
hbond:GLU:88    0
Name: 23, dtype: object

>  <hydroph_interaction:GLU:88>  (24) 
hydroph_interaction:GLU:88    0
hydroph_interaction:GLU:88    0
Name: 23, dtype: object

>  <halogenbond:GLU:88>  (24) 
halogenbond:GLU:88    0
halogenbond:GLU:88    0
Name: 23, dtype: object

>  <saltbridge:GLU:88>  (24) 
saltbridge:GLU:88    0
saltbridge:GLU:88    0
Name: 23, dtype: object

>  <hydroph_interaction:TYR:89>  (24) 
hydroph_interaction:TYR:89    1
hydroph_interaction:TYR:89    1
Name: 23, dtype: object

>  <pistack:TYR:89>  (24) 
pistack:TYR:89    0
pistack:TYR:89    0
Name: 23, dtype: object

>  <hbond:TYR:89>  (24) 
hbond:TYR:89    0
hbond:TYR:89    0
Name: 23, dtype: object

>  <halogenbond:TYR:89>  (24) 
halogenbond:TYR:89    0
halogenbond:TYR:89    0
Name: 23, dtype: object

>  <hbond:TYR:90>  (24) 
hbond:TYR:90    0
hbond:TYR:90    0
Name: 23, dtype: object

>  <hydroph_interaction:TYR:90>  (24) 
hydroph_interaction:TYR:90    2
hydroph_interaction:TYR:90    2
Name: 23, dtype: object

>  <pistack:TYR:90>  (24) 
pistack:TYR:90    0
pistack:TYR:90    0
Name: 23, dtype: object

>  <halogenbond:TYR:90>  (24) 
halogenbond:TYR:90    0
halogenbond:TYR:90    0
Name: 23, dtype: object

>  <pication:TYR:90>  (24) 
pication:TYR:90    0
pication:TYR:90    0
Name: 23, dtype: object

>  <hydroph_interaction:PRO:91>  (24) 
hydroph_interaction:PRO:91    0
hydroph_interaction:PRO:91    0
Name: 23, dtype: object

>  <halogenbond:PRO:91>  (24) 
halogenbond:PRO:91    0
halogenbond:PRO:91    0
Name: 23, dtype: object

>  <hbond:PRO:91>  (24) 
hbond:PRO:91    0
hbond:PRO:91    0
Name: 23, dtype: object

>  <hydroph_interaction:ALA:92>  (24) 
hydroph_interaction:ALA:92    0
hydroph_interaction:ALA:92    0
Name: 23, dtype: object

>  <hbond:ARG:93>  (24) 
hbond:ARG:93    0
hbond:ARG:93    0
Name: 23, dtype: object

>  <pication:ARG:93>  (24) 
pication:ARG:93    0
pication:ARG:93    0
Name: 23, dtype: object

>  <saltbridge:ARG:93>  (24) 
saltbridge:ARG:93    0
saltbridge:ARG:93    0
Name: 23, dtype: object

>  <hydroph_interaction:ARG:93>  (24) 
hydroph_interaction:ARG:93    1
hydroph_interaction:ARG:93    1
Name: 23, dtype: object

>  <halogenbond:ARG:93>  (24) 
halogenbond:ARG:93    0
halogenbond:ARG:93    0
Name: 23, dtype: object

>  <hydroph_interaction:TYR:94>  (24) 
hydroph_interaction:TYR:94    0
hydroph_interaction:TYR:94    0
Name: 23, dtype: object

>  <hbond:TYR:94>  (24) 
hbond:TYR:94    0
hbond:TYR:94    0
Name: 23, dtype: object

>  <halogenbond:GLN:95>  (24) 
halogenbond:GLN:95    0
halogenbond:GLN:95    0
Name: 23, dtype: object

>  <hbond:GLN:95>  (24) 
hbond:GLN:95    0
hbond:GLN:95    0
Name: 23, dtype: object

>  <hydroph_interaction:GLN:95>  (24) 
hydroph_interaction:GLN:95    1
hydroph_interaction:GLN:95    1
Name: 23, dtype: object

>  <hbond:SER:96>  (24) 
hbond:SER:96    0
hbond:SER:96    0
Name: 23, dtype: object

>  <hydroph_interaction:LEU:98>  (24) 
hydroph_interaction:LEU:98    0
hydroph_interaction:LEU:98    0
Name: 23, dtype: object

>  <hbond:LEU:98>  (24) 
hbond:LEU:98    0
hbond:LEU:98    0
Name: 23, dtype: object

>  <hbond:MET:99>  (24) 
hbond:MET:99    0
hbond:MET:99    0
Name: 23, dtype: object

>  <hydroph_interaction:MET:99>  (24) 
hydroph_interaction:MET:99    0
hydroph_interaction:MET:99    0
Name: 23, dtype: object

>  <halogenbond:MET:99>  (24) 
halogenbond:MET:99    0
halogenbond:MET:99    0
Name: 23, dtype: object

>  <hydroph_interaction:LEU:100>  (24) 
hydroph_interaction:LEU:100    0
hydroph_interaction:LEU:100    0
Name: 23, dtype: object

>  <hbond:LEU:100>  (24) 
hbond:LEU:100    0
hbond:LEU:100    0
Name: 23, dtype: object

>  <hbond:ALA:101>  (24) 
hbond:ALA:101    0
hbond:ALA:101    0
Name: 23, dtype: object

>  <hydroph_interaction:ALA:101>  (24) 
hydroph_interaction:ALA:101    0
hydroph_interaction:ALA:101    0
Name: 23, dtype: object

>  <hydroph_interaction:VAL:102>  (24) 
hydroph_interaction:VAL:102    0
hydroph_interaction:VAL:102    0
Name: 23, dtype: object

>  <hbond:VAL:102>  (24) 
hbond:VAL:102    0
hbond:VAL:102    0
Name: 23, dtype: object

>  <hbond:GLY:103>  (24) 
hbond:GLY:103    0
hbond:GLY:103    0
Name: 23, dtype: object

>  <halogenbond:GLY:103>  (24) 
halogenbond:GLY:103    0
halogenbond:GLY:103    0
Name: 23, dtype: object

>  <hydroph_interaction:HIS:104>  (24) 
hydroph_interaction:HIS:104    0
hydroph_interaction:HIS:104    0
Name: 23, dtype: object

>  <hbond:HIS:104>  (24) 
hbond:HIS:104    0
hbond:HIS:104    0
Name: 23, dtype: object

>  <saltbridge:HIS:104>  (24) 
saltbridge:HIS:104    0
saltbridge:HIS:104    0
Name: 23, dtype: object

>  <pication:HIS:104>  (24) 
pication:HIS:104    0
pication:HIS:104    0
Name: 23, dtype: object

>  <pistack:HIS:104>  (24) 
pistack:HIS:104    0
pistack:HIS:104    0
Name: 23, dtype: object

>  <halogenbond:HIS:104>  (24) 
halogenbond:HIS:104    0
halogenbond:HIS:104    0
Name: 23, dtype: object

>  <hbond:SER:105>  (24) 
hbond:SER:105    1
hbond:SER:105    1
Name: 23, dtype: object

>  <halogenbond:SER:105>  (24) 
halogenbond:SER:105    0
halogenbond:SER:105    0
Name: 23, dtype: object

>  <hbond:GLU:106>  (24) 
hbond:GLU:106    0
hbond:GLU:106    0
Name: 23, dtype: object

>  <hydroph_interaction:GLU:106>  (24) 
hydroph_interaction:GLU:106    0
hydroph_interaction:GLU:106    0
Name: 23, dtype: object

>  <saltbridge:GLU:106>  (24) 
saltbridge:GLU:106    0
saltbridge:GLU:106    0
Name: 23, dtype: object

>  <halogenbond:GLU:106>  (24) 
halogenbond:GLU:106    0
halogenbond:GLU:106    0
Name: 23, dtype: object

>  <hydroph_interaction:PRO:107>  (24) 
hydroph_interaction:PRO:107    0
hydroph_interaction:PRO:107    0
Name: 23, dtype: object

>  <hbond:PRO:107>  (24) 
hbond:PRO:107    0
hbond:PRO:107    0
Name: 23, dtype: object

>  <halogenbond:PRO:107>  (24) 
halogenbond:PRO:107    0
halogenbond:PRO:107    0
Name: 23, dtype: object

>  <hbond:GLY:108>  (24) 
hbond:GLY:108    0
hbond:GLY:108    0
Name: 23, dtype: object

>  <halogenbond:GLY:108>  (24) 
halogenbond:GLY:108    0
halogenbond:GLY:108    0
Name: 23, dtype: object

>  <hbond:ASP:109>  (24) 
hbond:ASP:109    0
hbond:ASP:109    0
Name: 23, dtype: object

>  <hydroph_interaction:ASP:109>  (24) 
hydroph_interaction:ASP:109    0
hydroph_interaction:ASP:109    0
Name: 23, dtype: object

>  <saltbridge:ASP:109>  (24) 
saltbridge:ASP:109    0
saltbridge:ASP:109    0
Name: 23, dtype: object

>  <hbond:CYS:110>  (24) 
hbond:CYS:110    1
hbond:CYS:110    1
Name: 23, dtype: object

>  <halogenbond:CYS:110>  (24) 
halogenbond:CYS:110    0
halogenbond:CYS:110    0
Name: 23, dtype: object

>  <hbond:GLY:111>  (24) 
hbond:GLY:111    0
hbond:GLY:111    0
Name: 23, dtype: object

>  <hbond:GLY:112>  (24) 
hbond:GLY:112    0
hbond:GLY:112    0
Name: 23, dtype: object

>  <hbond:ILE:113>  (24) 
hbond:ILE:113    0
hbond:ILE:113    0
Name: 23, dtype: object

>  <hydroph_interaction:LEU:114>  (24) 
hydroph_interaction:LEU:114    0
hydroph_interaction:LEU:114    0
Name: 23, dtype: object

>  <hbond:LEU:114>  (24) 
hbond:LEU:114    0
hbond:LEU:114    0
Name: 23, dtype: object

>  <hydroph_interaction:ILE:123>  (24) 
hydroph_interaction:ILE:123    0
hydroph_interaction:ILE:123    0
Name: 23, dtype: object

>  <hbond:ILE:123>  (24) 
hbond:ILE:123    0
hbond:ILE:123    0
Name: 23, dtype: object

>  <hydroph_interaction:VAL:124>  (24) 
hydroph_interaction:VAL:124    0
hydroph_interaction:VAL:124    0
Name: 23, dtype: object

>  <hbond:VAL:124>  (24) 
hbond:VAL:124    0
hbond:VAL:124    0
Name: 23, dtype: object

>  <halogenbond:VAL:124>  (24) 
halogenbond:VAL:124    0
halogenbond:VAL:124    0
Name: 23, dtype: object

>  <hbond:SER:125>  (24) 
hbond:SER:125    1
hbond:SER:125    1
Name: 23, dtype: object

>  <halogenbond:SER:125>  (24) 
halogenbond:SER:125    0
halogenbond:SER:125    0
Name: 23, dtype: object

>  <hydroph_interaction:THR:126>  (24) 
hydroph_interaction:THR:126    0
hydroph_interaction:THR:126    0
Name: 23, dtype: object

>  <hbond:THR:126>  (24) 
hbond:THR:126    1
hbond:THR:126    1
Name: 23, dtype: object

>  <halogenbond:THR:126>  (24) 
halogenbond:THR:126    0
halogenbond:THR:126    0
Name: 23, dtype: object

>  <hbond:GLY:127>  (24) 
hbond:GLY:127    0
hbond:GLY:127    0
Name: 23, dtype: object

>  <halogenbond:GLY:127>  (24) 
halogenbond:GLY:127    0
halogenbond:GLY:127    0
Name: 23, dtype: object

>  <hydroph_interaction:GLY:127>  (24) 
hydroph_interaction:GLY:127    0
hydroph_interaction:GLY:127    0
Name: 23, dtype: object

>  <hbond:GLY:128>  (24) 
hbond:GLY:128    0
hbond:GLY:128    0
Name: 23, dtype: object

>  <halogenbond:GLY:128>  (24) 
halogenbond:GLY:128    0
halogenbond:GLY:128    0
Name: 23, dtype: object

>  <hydroph_interaction:GLY:128>  (24) 
hydroph_interaction:GLY:128    0
hydroph_interaction:GLY:128    0
Name: 23, dtype: object

>  <hbond:ASN:129>  (24) 
hbond:ASN:129    0
hbond:ASN:129    0
Name: 23, dtype: object

>  <hydroph_interaction:ASN:129>  (24) 
hydroph_interaction:ASN:129    0
hydroph_interaction:ASN:129    0
Name: 23, dtype: object

>  <halogenbond:ASN:129>  (24) 
halogenbond:ASN:129    0
halogenbond:ASN:129    0
Name: 23, dtype: object

>  <hbond:GLY:130>  (24) 
hbond:GLY:130    0
hbond:GLY:130    0
Name: 23, dtype: object

>  <hydroph_interaction:LEU:131>  (24) 
hydroph_interaction:LEU:131    0
hydroph_interaction:LEU:131    0
Name: 23, dtype: object

>  <hbond:LEU:131>  (24) 
hbond:LEU:131    0
hbond:LEU:131    0
Name: 23, dtype: object

>  <halogenbond:LEU:131>  (24) 
halogenbond:LEU:131    0
halogenbond:LEU:131    0
Name: 23, dtype: object

>  <hydroph_interaction:VAL:132>  (24) 
hydroph_interaction:VAL:132    0
hydroph_interaction:VAL:132    0
Name: 23, dtype: object

>  <hbond:VAL:132>  (24) 
hbond:VAL:132    0
hbond:VAL:132    0
Name: 23, dtype: object

>  <hbond:GLY:133>  (24) 
hbond:GLY:133    0
hbond:GLY:133    0
Name: 23, dtype: object

>  <halogenbond:GLY:133>  (24) 
halogenbond:GLY:133    0
halogenbond:GLY:133    0
Name: 23, dtype: object

>  <hydroph_interaction:PHE:134>  (24) 
hydroph_interaction:PHE:134    0
hydroph_interaction:PHE:134    0
Name: 23, dtype: object

>  <hbond:PHE:134>  (24) 
hbond:PHE:134    0
hbond:PHE:134    0
Name: 23, dtype: object

>  <pistack:PHE:134>  (24) 
pistack:PHE:134    0
pistack:PHE:134    0
Name: 23, dtype: object

>  <pication:PHE:134>  (24) 
pication:PHE:134    0
pication:PHE:134    0
Name: 23, dtype: object

>  <hydroph_interaction:ALA:135>  (24) 
hydroph_interaction:ALA:135    0
hydroph_interaction:ALA:135    0
Name: 23, dtype: object

>  <hbond:ALA:135>  (24) 
hbond:ALA:135    0
hbond:ALA:135    0
Name: 23, dtype: object

$$$$
Z3055894854
     RDKit          3D

 25 25  0  0  0  0  0  0  0  0999 V2000
   -1.7820   12.6440   17.3210 C   0  0  0  0  0  0  0  0  0  0  0  0
   -0.3800   13.1380   17.5130 C   0  0  0  0  0  0  0  0  0  0  0  0
    0.5170   12.7680   16.7680 O   0  0  0  0  0  0  0  0  0  0  0  0
   -0.2610   14.0100   18.5800 N   0  0  0  0  0  0  0  0  0  0  0  0
    0.6800   13.8640   19.6160 C   0  0  0  0  0  0  0  0  0  0  0  0
    1.6680   12.8930   19.5000 C   0  0  0  0  0  0  0  0  0  0  0  0
    2.4430   12.8610   18.3600 C   0  0  0  0  0  0  0  0  0  0  0  0
    3.4160   11.9040   18.2210 C   0  0  0  0  0  0  0  0  0  0  0  0
    4.1280   11.9190   17.1110 C   0  0  0  0  0  0  0  0  0  0  0  0
    3.6470   10.9570   19.2030 C   0  0  0  0  0  0  0  0  0  0  0  0
    2.8760   11.0030   20.3240 C   0  0  0  0  0  0  0  0  0  0  0  0
    1.8890   11.9560   20.4950 C   0  0  0  0  0  0  0  0  0  0  0  0
    1.1370   12.0040   21.5940 F   0  0  0  0  0  0  0  0  0  0  0  0
   -2.4210   13.4020   16.8590 H   0  0  0  0  0  0  0  0  0  0  0  0
   -2.2100   12.4090   18.3000 H   0  0  0  0  0  0  0  0  0  0  0  0
   -1.7690   11.7400   16.7060 H   0  0  0  0  0  0  0  0  0  0  0  0
   -0.5500   14.9670   18.4020 H   0  0  0  0  0  0  0  0  0  0  0  0
    1.1860   14.8190   19.7920 H   0  0  0  0  0  0  0  0  0  0  0  0
    0.1070   13.6280   20.5250 H   0  0  0  0  0  0  0  0  0  0  0  0
    2.2820   13.5980   17.5670 H   0  0  0  0  0  0  0  0  0  0  0  0
    4.3570   10.8820   16.8530 H   0  0  0  0  0  0  0  0  0  0  0  0
    3.5490   12.3440   16.2860 H   0  0  0  0  0  0  0  0  0  0  0  0
    5.0440   12.4940   17.1560 H   0  0  0  0  0  0  0  0  0  0  0  0
    4.3940   10.1580   19.1820 H   0  0  0  0  0  0  0  0  0  0  0  0
    3.0290   10.2690   21.1200 H   0  0  0  0  0  0  0  0  0  0  0  0
  1  2  1  0
  2  3  2  0
  2  4  1  0
  4  5  1  0
  5  6  1  0
  6  7  2  0
  7  8  1  0
  8  9  1  0
  8 10  2  0
 10 11  1  0
 11 12  2  0
 12 13  1  0
 12  6  1  0
  1 14  1  0
  1 15  1  0
  1 16  1  0
  4 17  1  0
  5 18  1  0
  5 19  1  0
  7 20  1  0
  9 21  1  0
  9 22  1  0
  9 23  1  0
 10 24  1  0
 11 25  1  0
A    1
 C1 
A    2
 C2 
A    3
 O1 
A    4
 N1 
A    5
 C3 
A    6
 C4 
A    7
 C5 
A    8
 C6 
A    9
 C7 
A   10
 C8 
A   11
 C9 
A   12
 C10
A   13
 F1 
A   14
 H1 
A   15
 H2 
A   16
 H3 
A   17
 H4 
A   18
 H5 
A   19
 H6 
A   20
 H7 
A   21
 H8 
A   22
 H9 
A   23
 H10
A   24
 H11
A   25
 H12
M  END
>  <ref_pdb>  (25) 
x0310_0A

>  <ref_mols>  (25) 
x0473_0A,x0416_0A

>  <original SMILES>  (25) 
CC(=O)NCc1cc(C)ccc1F

>  <rationale>  (25) 
info halogenbond:N129; hydroph_interaction:V84+L100+L131+L98; 

>  <intxn_cluster>  (25) 
205

>  <intxn_cluster_rank>  (25) 
5

>  <N_interactions>  (25) 
7

>  <∆∆G>  (25) 
-6.693634

>  <$/mg>  (25) 
163.0

>  <comRMSD>  (25) 
0.805285

>  <N_rotatable_bonds>  (25) 
4

>  <N_analogues_07>  (25) 
1

>  <deep_P1_sidechain>  (25) 
False

>  <farthest_distance_to_substrate>  (25) 
4.76188

>  <hbond:SER:7>  (25) 
hbond:SER:7    0
hbond:SER:7    0
Name: 24, dtype: object

>  <halogenbond:SER:7>  (25) 
halogenbond:SER:7    0
halogenbond:SER:7    0
Name: 24, dtype: object

>  <hbond:GLY:8>  (25) 
hbond:GLY:8    0
hbond:GLY:8    0
Name: 24, dtype: object

>  <hydroph_interaction:ASN:19>  (25) 
hydroph_interaction:ASN:19    0
hydroph_interaction:ASN:19    0
Name: 24, dtype: object

>  <hbond:ASN:19>  (25) 
hbond:ASN:19    0
hbond:ASN:19    0
Name: 24, dtype: object

>  <halogenbond:ASN:19>  (25) 
halogenbond:ASN:19    0
halogenbond:ASN:19    0
Name: 24, dtype: object

>  <hbond:ARG:20>  (25) 
hbond:ARG:20    0
hbond:ARG:20    0
Name: 24, dtype: object

>  <hydroph_interaction:ARG:20>  (25) 
hydroph_interaction:ARG:20    0
hydroph_interaction:ARG:20    0
Name: 24, dtype: object

>  <saltbridge:ARG:20>  (25) 
saltbridge:ARG:20    0
saltbridge:ARG:20    0
Name: 24, dtype: object

>  <halogenbond:ARG:20>  (25) 
halogenbond:ARG:20    0
halogenbond:ARG:20    0
Name: 24, dtype: object

>  <pication:ARG:20>  (25) 
pication:ARG:20    0
pication:ARG:20    0
Name: 24, dtype: object

>  <hbond:HIS:21>  (25) 
hbond:HIS:21    0
hbond:HIS:21    0
Name: 24, dtype: object

>  <hydroph_interaction:HIS:21>  (25) 
hydroph_interaction:HIS:21    0
hydroph_interaction:HIS:21    0
Name: 24, dtype: object

>  <saltbridge:HIS:21>  (25) 
saltbridge:HIS:21    0
saltbridge:HIS:21    0
Name: 24, dtype: object

>  <pistack:HIS:21>  (25) 
pistack:HIS:21    0
pistack:HIS:21    0
Name: 24, dtype: object

>  <pication:HIS:21>  (25) 
pication:HIS:21    0
pication:HIS:21    0
Name: 24, dtype: object

>  <halogenbond:HIS:21>  (25) 
halogenbond:HIS:21    0
halogenbond:HIS:21    0
Name: 24, dtype: object

>  <hydroph_interaction:LEU:22>  (25) 
hydroph_interaction:LEU:22    0
hydroph_interaction:LEU:22    0
Name: 24, dtype: object

>  <hbond:LEU:22>  (25) 
hbond:LEU:22    0
hbond:LEU:22    0
Name: 24, dtype: object

>  <hydroph_interaction:TRP:28>  (25) 
hydroph_interaction:TRP:28    0
hydroph_interaction:TRP:28    0
Name: 24, dtype: object

>  <hbond:SER:36>  (25) 
hbond:SER:36    0
hbond:SER:36    0
Name: 24, dtype: object

>  <halogenbond:SER:36>  (25) 
halogenbond:SER:36    0
halogenbond:SER:36    0
Name: 24, dtype: object

>  <hbond:ARG:38>  (25) 
hbond:ARG:38    0
hbond:ARG:38    0
Name: 24, dtype: object

>  <halogenbond:ARG:38>  (25) 
halogenbond:ARG:38    0
halogenbond:ARG:38    0
Name: 24, dtype: object

>  <hbond:ASP:39>  (25) 
hbond:ASP:39    0
hbond:ASP:39    0
Name: 24, dtype: object

>  <saltbridge:ASP:39>  (25) 
saltbridge:ASP:39    0
saltbridge:ASP:39    0
Name: 24, dtype: object

>  <hydroph_interaction:ASP:39>  (25) 
hydroph_interaction:ASP:39    0
hydroph_interaction:ASP:39    0
Name: 24, dtype: object

>  <halogenbond:ASP:39>  (25) 
halogenbond:ASP:39    0
halogenbond:ASP:39    0
Name: 24, dtype: object

>  <hydroph_interaction:LEU:40>  (25) 
hydroph_interaction:LEU:40    0
hydroph_interaction:LEU:40    0
Name: 24, dtype: object

>  <hydroph_interaction:TYR:63>  (25) 
hydroph_interaction:TYR:63    0
hydroph_interaction:TYR:63    0
Name: 24, dtype: object

>  <pistack:TYR:63>  (25) 
pistack:TYR:63    0
pistack:TYR:63    0
Name: 24, dtype: object

>  <hbond:TYR:63>  (25) 
hbond:TYR:63    0
hbond:TYR:63    0
Name: 24, dtype: object

>  <hbond:TYR:64>  (25) 
hbond:TYR:64    0
hbond:TYR:64    0
Name: 24, dtype: object

>  <halogenbond:TYR:64>  (25) 
halogenbond:TYR:64    0
halogenbond:TYR:64    0
Name: 24, dtype: object

>  <hydroph_interaction:TYR:64>  (25) 
hydroph_interaction:TYR:64    0
hydroph_interaction:TYR:64    0
Name: 24, dtype: object

>  <hbond:CYS:65>  (25) 
hbond:CYS:65    0
hbond:CYS:65    0
Name: 24, dtype: object

>  <halogenbond:CYS:65>  (25) 
halogenbond:CYS:65    0
halogenbond:CYS:65    0
Name: 24, dtype: object

>  <hbond:SER:66>  (25) 
hbond:SER:66    0
hbond:SER:66    0
Name: 24, dtype: object

>  <hbond:SER:67>  (25) 
hbond:SER:67    0
hbond:SER:67    0
Name: 24, dtype: object

>  <halogenbond:SER:67>  (25) 
halogenbond:SER:67    0
halogenbond:SER:67    0
Name: 24, dtype: object

>  <hydroph_interaction:ARG:68>  (25) 
hydroph_interaction:ARG:68    0
hydroph_interaction:ARG:68    0
Name: 24, dtype: object

>  <hbond:ARG:68>  (25) 
hbond:ARG:68    0
hbond:ARG:68    0
Name: 24, dtype: object

>  <saltbridge:ARG:68>  (25) 
saltbridge:ARG:68    0
saltbridge:ARG:68    0
Name: 24, dtype: object

>  <pication:ARG:68>  (25) 
pication:ARG:68    0
pication:ARG:68    0
Name: 24, dtype: object

>  <hydroph_interaction:TYR:72>  (25) 
hydroph_interaction:TYR:72    0
hydroph_interaction:TYR:72    0
Name: 24, dtype: object

>  <hydroph_interaction:VAL:74>  (25) 
hydroph_interaction:VAL:74    0
hydroph_interaction:VAL:74    0
Name: 24, dtype: object

>  <hydroph_interaction:PHE:76>  (25) 
hydroph_interaction:PHE:76    0
hydroph_interaction:PHE:76    0
Name: 24, dtype: object

>  <hbond:SER:77>  (25) 
hbond:SER:77    0
hbond:SER:77    0
Name: 24, dtype: object

>  <hbond:SER:80>  (25) 
hbond:SER:80    0
hbond:SER:80    0
Name: 24, dtype: object

>  <hbond:LEU:81>  (25) 
hbond:LEU:81    0
hbond:LEU:81    0
Name: 24, dtype: object

>  <halogenbond:LEU:81>  (25) 
halogenbond:LEU:81    0
halogenbond:LEU:81    0
Name: 24, dtype: object

>  <hydroph_interaction:LEU:81>  (25) 
hydroph_interaction:LEU:81    0
hydroph_interaction:LEU:81    0
Name: 24, dtype: object

>  <hydroph_interaction:ILE:82>  (25) 
hydroph_interaction:ILE:82    0
hydroph_interaction:ILE:82    0
Name: 24, dtype: object

>  <hbond:ILE:82>  (25) 
hbond:ILE:82    0
hbond:ILE:82    0
Name: 24, dtype: object

>  <hydroph_interaction:PHE:83>  (25) 
hydroph_interaction:PHE:83    0
hydroph_interaction:PHE:83    0
Name: 24, dtype: object

>  <hbond:PHE:83>  (25) 
hbond:PHE:83    0
hbond:PHE:83    0
Name: 24, dtype: object

>  <halogenbond:PHE:83>  (25) 
halogenbond:PHE:83    0
halogenbond:PHE:83    0
Name: 24, dtype: object

>  <pistack:PHE:83>  (25) 
pistack:PHE:83    0
pistack:PHE:83    0
Name: 24, dtype: object

>  <hydroph_interaction:VAL:84>  (25) 
hydroph_interaction:VAL:84    1
hydroph_interaction:VAL:84    1
Name: 24, dtype: object

>  <hbond:VAL:84>  (25) 
hbond:VAL:84    0
hbond:VAL:84    0
Name: 24, dtype: object

>  <halogenbond:VAL:84>  (25) 
halogenbond:VAL:84    0
halogenbond:VAL:84    0
Name: 24, dtype: object

>  <hydroph_interaction:GLU:85>  (25) 
hydroph_interaction:GLU:85    0
hydroph_interaction:GLU:85    0
Name: 24, dtype: object

>  <hbond:GLU:85>  (25) 
hbond:GLU:85    0
hbond:GLU:85    0
Name: 24, dtype: object

>  <saltbridge:GLU:85>  (25) 
saltbridge:GLU:85    0
saltbridge:GLU:85    0
Name: 24, dtype: object

>  <halogenbond:GLU:85>  (25) 
halogenbond:GLU:85    0
halogenbond:GLU:85    0
Name: 24, dtype: object

>  <hbond:ALA:86>  (25) 
hbond:ALA:86    0
hbond:ALA:86    0
Name: 24, dtype: object

>  <halogenbond:ALA:86>  (25) 
halogenbond:ALA:86    0
halogenbond:ALA:86    0
Name: 24, dtype: object

>  <hydroph_interaction:ALA:86>  (25) 
hydroph_interaction:ALA:86    0
hydroph_interaction:ALA:86    0
Name: 24, dtype: object

>  <hbond:SER:87>  (25) 
hbond:SER:87    0
hbond:SER:87    0
Name: 24, dtype: object

>  <halogenbond:SER:87>  (25) 
halogenbond:SER:87    0
halogenbond:SER:87    0
Name: 24, dtype: object

>  <hbond:GLU:88>  (25) 
hbond:GLU:88    0
hbond:GLU:88    0
Name: 24, dtype: object

>  <hydroph_interaction:GLU:88>  (25) 
hydroph_interaction:GLU:88    0
hydroph_interaction:GLU:88    0
Name: 24, dtype: object

>  <halogenbond:GLU:88>  (25) 
halogenbond:GLU:88    0
halogenbond:GLU:88    0
Name: 24, dtype: object

>  <saltbridge:GLU:88>  (25) 
saltbridge:GLU:88    0
saltbridge:GLU:88    0
Name: 24, dtype: object

>  <hydroph_interaction:TYR:89>  (25) 
hydroph_interaction:TYR:89    0
hydroph_interaction:TYR:89    0
Name: 24, dtype: object

>  <pistack:TYR:89>  (25) 
pistack:TYR:89    0
pistack:TYR:89    0
Name: 24, dtype: object

>  <hbond:TYR:89>  (25) 
hbond:TYR:89    0
hbond:TYR:89    0
Name: 24, dtype: object

>  <halogenbond:TYR:89>  (25) 
halogenbond:TYR:89    0
halogenbond:TYR:89    0
Name: 24, dtype: object

>  <hbond:TYR:90>  (25) 
hbond:TYR:90    0
hbond:TYR:90    0
Name: 24, dtype: object

>  <hydroph_interaction:TYR:90>  (25) 
hydroph_interaction:TYR:90    0
hydroph_interaction:TYR:90    0
Name: 24, dtype: object

>  <pistack:TYR:90>  (25) 
pistack:TYR:90    0
pistack:TYR:90    0
Name: 24, dtype: object

>  <halogenbond:TYR:90>  (25) 
halogenbond:TYR:90    0
halogenbond:TYR:90    0
Name: 24, dtype: object

>  <pication:TYR:90>  (25) 
pication:TYR:90    0
pication:TYR:90    0
Name: 24, dtype: object

>  <hydroph_interaction:PRO:91>  (25) 
hydroph_interaction:PRO:91    0
hydroph_interaction:PRO:91    0
Name: 24, dtype: object

>  <halogenbond:PRO:91>  (25) 
halogenbond:PRO:91    0
halogenbond:PRO:91    0
Name: 24, dtype: object

>  <hbond:PRO:91>  (25) 
hbond:PRO:91    0
hbond:PRO:91    0
Name: 24, dtype: object

>  <hydroph_interaction:ALA:92>  (25) 
hydroph_interaction:ALA:92    0
hydroph_interaction:ALA:92    0
Name: 24, dtype: object

>  <hbond:ARG:93>  (25) 
hbond:ARG:93    0
hbond:ARG:93    0
Name: 24, dtype: object

>  <pication:ARG:93>  (25) 
pication:ARG:93    0
pication:ARG:93    0
Name: 24, dtype: object

>  <saltbridge:ARG:93>  (25) 
saltbridge:ARG:93    0
saltbridge:ARG:93    0
Name: 24, dtype: object

>  <hydroph_interaction:ARG:93>  (25) 
hydroph_interaction:ARG:93    0
hydroph_interaction:ARG:93    0
Name: 24, dtype: object

>  <halogenbond:ARG:93>  (25) 
halogenbond:ARG:93    0
halogenbond:ARG:93    0
Name: 24, dtype: object

>  <hydroph_interaction:TYR:94>  (25) 
hydroph_interaction:TYR:94    0
hydroph_interaction:TYR:94    0
Name: 24, dtype: object

>  <hbond:TYR:94>  (25) 
hbond:TYR:94    0
hbond:TYR:94    0
Name: 24, dtype: object

>  <halogenbond:GLN:95>  (25) 
halogenbond:GLN:95    0
halogenbond:GLN:95    0
Name: 24, dtype: object

>  <hbond:GLN:95>  (25) 
hbond:GLN:95    0
hbond:GLN:95    0
Name: 24, dtype: object

>  <hydroph_interaction:GLN:95>  (25) 
hydroph_interaction:GLN:95    0
hydroph_interaction:GLN:95    0
Name: 24, dtype: object

>  <hbond:SER:96>  (25) 
hbond:SER:96    0
hbond:SER:96    0
Name: 24, dtype: object

>  <hydroph_interaction:LEU:98>  (25) 
hydroph_interaction:LEU:98    1
hydroph_interaction:LEU:98    1
Name: 24, dtype: object

>  <hbond:LEU:98>  (25) 
hbond:LEU:98    0
hbond:LEU:98    0
Name: 24, dtype: object

>  <hbond:MET:99>  (25) 
hbond:MET:99    0
hbond:MET:99    0
Name: 24, dtype: object

>  <hydroph_interaction:MET:99>  (25) 
hydroph_interaction:MET:99    0
hydroph_interaction:MET:99    0
Name: 24, dtype: object

>  <halogenbond:MET:99>  (25) 
halogenbond:MET:99    0
halogenbond:MET:99    0
Name: 24, dtype: object

>  <hydroph_interaction:LEU:100>  (25) 
hydroph_interaction:LEU:100    2
hydroph_interaction:LEU:100    2
Name: 24, dtype: object

>  <hbond:LEU:100>  (25) 
hbond:LEU:100    0
hbond:LEU:100    0
Name: 24, dtype: object

>  <hbond:ALA:101>  (25) 
hbond:ALA:101    0
hbond:ALA:101    0
Name: 24, dtype: object

>  <hydroph_interaction:ALA:101>  (25) 
hydroph_interaction:ALA:101    0
hydroph_interaction:ALA:101    0
Name: 24, dtype: object

>  <hydroph_interaction:VAL:102>  (25) 
hydroph_interaction:VAL:102    0
hydroph_interaction:VAL:102    0
Name: 24, dtype: object

>  <hbond:VAL:102>  (25) 
hbond:VAL:102    0
hbond:VAL:102    0
Name: 24, dtype: object

>  <hbond:GLY:103>  (25) 
hbond:GLY:103    0
hbond:GLY:103    0
Name: 24, dtype: object

>  <halogenbond:GLY:103>  (25) 
halogenbond:GLY:103    0
halogenbond:GLY:103    0
Name: 24, dtype: object

>  <hydroph_interaction:HIS:104>  (25) 
hydroph_interaction:HIS:104    0
hydroph_interaction:HIS:104    0
Name: 24, dtype: object

>  <hbond:HIS:104>  (25) 
hbond:HIS:104    0
hbond:HIS:104    0
Name: 24, dtype: object

>  <saltbridge:HIS:104>  (25) 
saltbridge:HIS:104    0
saltbridge:HIS:104    0
Name: 24, dtype: object

>  <pication:HIS:104>  (25) 
pication:HIS:104    0
pication:HIS:104    0
Name: 24, dtype: object

>  <pistack:HIS:104>  (25) 
pistack:HIS:104    0
pistack:HIS:104    0
Name: 24, dtype: object

>  <halogenbond:HIS:104>  (25) 
halogenbond:HIS:104    0
halogenbond:HIS:104    0
Name: 24, dtype: object

>  <hbond:SER:105>  (25) 
hbond:SER:105    0
hbond:SER:105    0
Name: 24, dtype: object

>  <halogenbond:SER:105>  (25) 
halogenbond:SER:105    0
halogenbond:SER:105    0
Name: 24, dtype: object

>  <hbond:GLU:106>  (25) 
hbond:GLU:106    0
hbond:GLU:106    0
Name: 24, dtype: object

>  <hydroph_interaction:GLU:106>  (25) 
hydroph_interaction:GLU:106    0
hydroph_interaction:GLU:106    0
Name: 24, dtype: object

>  <saltbridge:GLU:106>  (25) 
saltbridge:GLU:106    0
saltbridge:GLU:106    0
Name: 24, dtype: object

>  <halogenbond:GLU:106>  (25) 
halogenbond:GLU:106    0
halogenbond:GLU:106    0
Name: 24, dtype: object

>  <hydroph_interaction:PRO:107>  (25) 
hydroph_interaction:PRO:107    0
hydroph_interaction:PRO:107    0
Name: 24, dtype: object

>  <hbond:PRO:107>  (25) 
hbond:PRO:107    0
hbond:PRO:107    0
Name: 24, dtype: object

>  <halogenbond:PRO:107>  (25) 
halogenbond:PRO:107    0
halogenbond:PRO:107    0
Name: 24, dtype: object

>  <hbond:GLY:108>  (25) 
hbond:GLY:108    0
hbond:GLY:108    0
Name: 24, dtype: object

>  <halogenbond:GLY:108>  (25) 
halogenbond:GLY:108    0
halogenbond:GLY:108    0
Name: 24, dtype: object

>  <hbond:ASP:109>  (25) 
hbond:ASP:109    0
hbond:ASP:109    0
Name: 24, dtype: object

>  <hydroph_interaction:ASP:109>  (25) 
hydroph_interaction:ASP:109    0
hydroph_interaction:ASP:109    0
Name: 24, dtype: object

>  <saltbridge:ASP:109>  (25) 
saltbridge:ASP:109    0
saltbridge:ASP:109    0
Name: 24, dtype: object

>  <hbond:CYS:110>  (25) 
hbond:CYS:110    0
hbond:CYS:110    0
Name: 24, dtype: object

>  <halogenbond:CYS:110>  (25) 
halogenbond:CYS:110    0
halogenbond:CYS:110    0
Name: 24, dtype: object

>  <hbond:GLY:111>  (25) 
hbond:GLY:111    0
hbond:GLY:111    0
Name: 24, dtype: object

>  <hbond:GLY:112>  (25) 
hbond:GLY:112    0
hbond:GLY:112    0
Name: 24, dtype: object

>  <hbond:ILE:113>  (25) 
hbond:ILE:113    0
hbond:ILE:113    0
Name: 24, dtype: object

>  <hydroph_interaction:LEU:114>  (25) 
hydroph_interaction:LEU:114    0
hydroph_interaction:LEU:114    0
Name: 24, dtype: object

>  <hbond:LEU:114>  (25) 
hbond:LEU:114    0
hbond:LEU:114    0
Name: 24, dtype: object

>  <hydroph_interaction:ILE:123>  (25) 
hydroph_interaction:ILE:123    0
hydroph_interaction:ILE:123    0
Name: 24, dtype: object

>  <hbond:ILE:123>  (25) 
hbond:ILE:123    0
hbond:ILE:123    0
Name: 24, dtype: object

>  <hydroph_interaction:VAL:124>  (25) 
hydroph_interaction:VAL:124    0
hydroph_interaction:VAL:124    0
Name: 24, dtype: object

>  <hbond:VAL:124>  (25) 
hbond:VAL:124    0
hbond:VAL:124    0
Name: 24, dtype: object

>  <halogenbond:VAL:124>  (25) 
halogenbond:VAL:124    0
halogenbond:VAL:124    0
Name: 24, dtype: object

>  <hbond:SER:125>  (25) 
hbond:SER:125    0
hbond:SER:125    0
Name: 24, dtype: object

>  <halogenbond:SER:125>  (25) 
halogenbond:SER:125    0
halogenbond:SER:125    0
Name: 24, dtype: object

>  <hydroph_interaction:THR:126>  (25) 
hydroph_interaction:THR:126    0
hydroph_interaction:THR:126    0
Name: 24, dtype: object

>  <hbond:THR:126>  (25) 
hbond:THR:126    0
hbond:THR:126    0
Name: 24, dtype: object

>  <halogenbond:THR:126>  (25) 
halogenbond:THR:126    0
halogenbond:THR:126    0
Name: 24, dtype: object

>  <hbond:GLY:127>  (25) 
hbond:GLY:127    0
hbond:GLY:127    0
Name: 24, dtype: object

>  <halogenbond:GLY:127>  (25) 
halogenbond:GLY:127    0
halogenbond:GLY:127    0
Name: 24, dtype: object

>  <hydroph_interaction:GLY:127>  (25) 
hydroph_interaction:GLY:127    0
hydroph_interaction:GLY:127    0
Name: 24, dtype: object

>  <hbond:GLY:128>  (25) 
hbond:GLY:128    0
hbond:GLY:128    0
Name: 24, dtype: object

>  <halogenbond:GLY:128>  (25) 
halogenbond:GLY:128    0
halogenbond:GLY:128    0
Name: 24, dtype: object

>  <hydroph_interaction:GLY:128>  (25) 
hydroph_interaction:GLY:128    0
hydroph_interaction:GLY:128    0
Name: 24, dtype: object

>  <hbond:ASN:129>  (25) 
hbond:ASN:129    0
hbond:ASN:129    0
Name: 24, dtype: object

>  <hydroph_interaction:ASN:129>  (25) 
hydroph_interaction:ASN:129    0
hydroph_interaction:ASN:129    0
Name: 24, dtype: object

>  <halogenbond:ASN:129>  (25) 
halogenbond:ASN:129    1
halogenbond:ASN:129    1
Name: 24, dtype: object

>  <hbond:GLY:130>  (25) 
hbond:GLY:130    0
hbond:GLY:130    0
Name: 24, dtype: object

>  <hydroph_interaction:LEU:131>  (25) 
hydroph_interaction:LEU:131    2
hydroph_interaction:LEU:131    2
Name: 24, dtype: object

>  <hbond:LEU:131>  (25) 
hbond:LEU:131    0
hbond:LEU:131    0
Name: 24, dtype: object

>  <halogenbond:LEU:131>  (25) 
halogenbond:LEU:131    0
halogenbond:LEU:131    0
Name: 24, dtype: object

>  <hydroph_interaction:VAL:132>  (25) 
hydroph_interaction:VAL:132    0
hydroph_interaction:VAL:132    0
Name: 24, dtype: object

>  <hbond:VAL:132>  (25) 
hbond:VAL:132    0
hbond:VAL:132    0
Name: 24, dtype: object

>  <hbond:GLY:133>  (25) 
hbond:GLY:133    0
hbond:GLY:133    0
Name: 24, dtype: object

>  <halogenbond:GLY:133>  (25) 
halogenbond:GLY:133    0
halogenbond:GLY:133    0
Name: 24, dtype: object

>  <hydroph_interaction:PHE:134>  (25) 
hydroph_interaction:PHE:134    0
hydroph_interaction:PHE:134    0
Name: 24, dtype: object

>  <hbond:PHE:134>  (25) 
hbond:PHE:134    0
hbond:PHE:134    0
Name: 24, dtype: object

>  <pistack:PHE:134>  (25) 
pistack:PHE:134    0
pistack:PHE:134    0
Name: 24, dtype: object

>  <pication:PHE:134>  (25) 
pication:PHE:134    0
pication:PHE:134    0
Name: 24, dtype: object

>  <hydroph_interaction:ALA:135>  (25) 
hydroph_interaction:ALA:135    0
hydroph_interaction:ALA:135    0
Name: 24, dtype: object

>  <hbond:ALA:135>  (25) 
hbond:ALA:135    0
hbond:ALA:135    0
Name: 24, dtype: object

$$$$
Z3934776425
     RDKit          3D

 33 33  0  0  0  0  0  0  0  0999 V2000
   12.2260   16.2210   21.5750 C   0  0  0  0  0  0  0  0  0  0  0  0
   12.4160   14.8050   22.0630 C   0  0  0  0  0  0  0  0  0  0  0  0
   12.4240   14.7000   23.5870 C   0  0  2  0  0  0  0  0  0  0  0  0
   13.3450   13.5720   23.9900 C   0  0  0  0  0  0  0  0  0  0  0  0
   11.0260   14.4620   24.1510 C   0  0  0  0  0  0  0  0  0  0  0  0
   10.7120   14.8720   25.2640 O   0  0  0  0  0  0  0  0  0  0  0  0
   10.2040   13.7630   23.2790 N   0  0  0  0  0  0  0  0  0  0  0  0
    9.6190   12.5170   23.5480 C   0  0  0  0  0  0  0  0  0  0  0  0
    8.5610   12.3330   24.4170 C   0  0  0  0  0  0  0  0  0  0  0  0
    8.0740   11.0520   24.6190 C   0  0  0  0  0  0  0  0  0  0  0  0
    6.9250   10.8500   25.5580 C   0  0  0  0  0  0  0  0  0  0  0  0
    8.5900    9.9630   23.9990 N   0  0  0  0  0  0  0  0  0  0  0  0
    9.6170   10.1630   23.1540 C   0  0  0  0  0  0  0  0  0  0  0  0
   10.1910    8.9820   22.4670 C   0  0  0  0  0  0  0  0  0  0  0  0
   10.1490   11.4120   22.9040 C   0  0  0  0  0  0  0  0  0  0  0  0
   13.0620   16.5220   20.9420 H   0  0  0  0  0  0  0  0  0  0  0  0
   12.1370   16.9260   22.4050 H   0  0  0  0  0  0  0  0  0  0  0  0
   11.3050   16.2890   20.9910 H   0  0  0  0  0  0  0  0  0  0  0  0
   11.6350   14.1650   21.6330 H   0  0  0  0  0  0  0  0  0  0  0  0
   13.3740   14.4440   21.6710 H   0  0  0  0  0  0  0  0  0  0  0  0
   12.8280   15.6180   24.0220 H   0  0  0  0  0  0  0  0  0  0  0  0
   12.7740   12.6860   24.2500 H   0  0  0  0  0  0  0  0  0  0  0  0
   13.9890   13.3020   23.1680 H   0  0  0  0  0  0  0  0  0  0  0  0
   13.9770   13.8480   24.8390 H   0  0  0  0  0  0  0  0  0  0  0  0
   10.2490   14.0290   22.3020 H   0  0  0  0  0  0  0  0  0  0  0  0
    8.1000   13.1550   24.9500 H   0  0  0  0  0  0  0  0  0  0  0  0
    6.2040   11.6670   25.4690 H   0  0  0  0  0  0  0  0  0  0  0  0
    6.4100    9.9170   25.3260 H   0  0  0  0  0  0  0  0  0  0  0  0
    7.2610   10.8150   26.5900 H   0  0  0  0  0  0  0  0  0  0  0  0
    9.3960    8.3120   22.1350 H   0  0  0  0  0  0  0  0  0  0  0  0
   10.8730    8.4440   23.1330 H   0  0  0  0  0  0  0  0  0  0  0  0
   10.7510    9.3010   21.5880 H   0  0  0  0  0  0  0  0  0  0  0  0
   10.9720   11.5130   22.2170 H   0  0  0  0  0  0  0  0  0  0  0  0
  1  2  1  0
  2  3  1  0
  3  4  1  0
  3  5  1  0
  5  6  2  0
  5  7  1  0
  7  8  1  0
  8  9  2  0
  9 10  1  0
 10 11  1  0
 10 12  2  0
 12 13  1  0
 13 14  1  0
 13 15  2  0
 15  8  1  0
  1 16  1  0
  1 17  1  0
  1 18  1  0
  2 19  1  0
  2 20  1  0
  3 21  1  1
  4 22  1  0
  4 23  1  0
  4 24  1  0
  7 25  1  0
  9 26  1  0
 11 27  1  0
 11 28  1  0
 11 29  1  0
 14 30  1  0
 14 31  1  0
 14 32  1  0
 15 33  1  0
A    1
 C1 
A    2
 C2 
A    3
 C3 
A    4
 C4 
A    5
 C5 
A    6
 O1 
A    7
 N1 
A    8
 C6 
A    9
 C7 
A   10
 C8 
A   11
 C9 
A   12
 N2 
A   13
 C10
A   14
 C11
A   15
 C12
A   16
 H1 
A   17
 H2 
A   18
 H3 
A   19
 H4 
A   20
 H5 
A   21
 H6 
A   22
 H7 
A   23
 H8 
A   24
 H9 
A   25
 H10
A   26
 H11
A   27
 H12
A   28
 H13
A   29
 H14
A   30
 H15
A   31
 H16
A   32
 H17
A   33
 H18
M  END
>  <ref_pdb>  (26) 
x0310_0A

>  <ref_mols>  (26) 
x0451_0A,x0739_0A

>  <original SMILES>  (26) 
CC[C@H](C)C(=O)Nc1cc(C)nc(C)c1

>  <rationale>  (26) 
info hbond:E88+S87; hydroph_interaction:P107+V124+Y89+Y90; 

>  <intxn_cluster>  (26) 
107

>  <intxn_cluster_rank>  (26) 
5

>  <N_interactions>  (26) 
8

>  <∆∆G>  (26) 
-13.382108

>  <$/mg>  (26) 
163.0

>  <comRMSD>  (26) 
0.742455

>  <N_rotatable_bonds>  (26) 
7

>  <N_analogues_07>  (26) 
0

>  <deep_P1_sidechain>  (26) 
True

>  <farthest_distance_to_substrate>  (26) 
2.602945

>  <hbond:SER:7>  (26) 
hbond:SER:7    0
hbond:SER:7    0
Name: 25, dtype: object

>  <halogenbond:SER:7>  (26) 
halogenbond:SER:7    0
halogenbond:SER:7    0
Name: 25, dtype: object

>  <hbond:GLY:8>  (26) 
hbond:GLY:8    0
hbond:GLY:8    0
Name: 25, dtype: object

>  <hydroph_interaction:ASN:19>  (26) 
hydroph_interaction:ASN:19    0
hydroph_interaction:ASN:19    0
Name: 25, dtype: object

>  <hbond:ASN:19>  (26) 
hbond:ASN:19    0
hbond:ASN:19    0
Name: 25, dtype: object

>  <halogenbond:ASN:19>  (26) 
halogenbond:ASN:19    0
halogenbond:ASN:19    0
Name: 25, dtype: object

>  <hbond:ARG:20>  (26) 
hbond:ARG:20    0
hbond:ARG:20    0
Name: 25, dtype: object

>  <hydroph_interaction:ARG:20>  (26) 
hydroph_interaction:ARG:20    0
hydroph_interaction:ARG:20    0
Name: 25, dtype: object

>  <saltbridge:ARG:20>  (26) 
saltbridge:ARG:20    0
saltbridge:ARG:20    0
Name: 25, dtype: object

>  <halogenbond:ARG:20>  (26) 
halogenbond:ARG:20    0
halogenbond:ARG:20    0
Name: 25, dtype: object

>  <pication:ARG:20>  (26) 
pication:ARG:20    0
pication:ARG:20    0
Name: 25, dtype: object

>  <hbond:HIS:21>  (26) 
hbond:HIS:21    0
hbond:HIS:21    0
Name: 25, dtype: object

>  <hydroph_interaction:HIS:21>  (26) 
hydroph_interaction:HIS:21    0
hydroph_interaction:HIS:21    0
Name: 25, dtype: object

>  <saltbridge:HIS:21>  (26) 
saltbridge:HIS:21    0
saltbridge:HIS:21    0
Name: 25, dtype: object

>  <pistack:HIS:21>  (26) 
pistack:HIS:21    0
pistack:HIS:21    0
Name: 25, dtype: object

>  <pication:HIS:21>  (26) 
pication:HIS:21    0
pication:HIS:21    0
Name: 25, dtype: object

>  <halogenbond:HIS:21>  (26) 
halogenbond:HIS:21    0
halogenbond:HIS:21    0
Name: 25, dtype: object

>  <hydroph_interaction:LEU:22>  (26) 
hydroph_interaction:LEU:22    0
hydroph_interaction:LEU:22    0
Name: 25, dtype: object

>  <hbond:LEU:22>  (26) 
hbond:LEU:22    0
hbond:LEU:22    0
Name: 25, dtype: object

>  <hydroph_interaction:TRP:28>  (26) 
hydroph_interaction:TRP:28    0
hydroph_interaction:TRP:28    0
Name: 25, dtype: object

>  <hbond:SER:36>  (26) 
hbond:SER:36    0
hbond:SER:36    0
Name: 25, dtype: object

>  <halogenbond:SER:36>  (26) 
halogenbond:SER:36    0
halogenbond:SER:36    0
Name: 25, dtype: object

>  <hbond:ARG:38>  (26) 
hbond:ARG:38    0
hbond:ARG:38    0
Name: 25, dtype: object

>  <halogenbond:ARG:38>  (26) 
halogenbond:ARG:38    0
halogenbond:ARG:38    0
Name: 25, dtype: object

>  <hbond:ASP:39>  (26) 
hbond:ASP:39    0
hbond:ASP:39    0
Name: 25, dtype: object

>  <saltbridge:ASP:39>  (26) 
saltbridge:ASP:39    0
saltbridge:ASP:39    0
Name: 25, dtype: object

>  <hydroph_interaction:ASP:39>  (26) 
hydroph_interaction:ASP:39    0
hydroph_interaction:ASP:39    0
Name: 25, dtype: object

>  <halogenbond:ASP:39>  (26) 
halogenbond:ASP:39    0
halogenbond:ASP:39    0
Name: 25, dtype: object

>  <hydroph_interaction:LEU:40>  (26) 
hydroph_interaction:LEU:40    0
hydroph_interaction:LEU:40    0
Name: 25, dtype: object

>  <hydroph_interaction:TYR:63>  (26) 
hydroph_interaction:TYR:63    0
hydroph_interaction:TYR:63    0
Name: 25, dtype: object

>  <pistack:TYR:63>  (26) 
pistack:TYR:63    0
pistack:TYR:63    0
Name: 25, dtype: object

>  <hbond:TYR:63>  (26) 
hbond:TYR:63    0
hbond:TYR:63    0
Name: 25, dtype: object

>  <hbond:TYR:64>  (26) 
hbond:TYR:64    0
hbond:TYR:64    0
Name: 25, dtype: object

>  <halogenbond:TYR:64>  (26) 
halogenbond:TYR:64    0
halogenbond:TYR:64    0
Name: 25, dtype: object

>  <hydroph_interaction:TYR:64>  (26) 
hydroph_interaction:TYR:64    0
hydroph_interaction:TYR:64    0
Name: 25, dtype: object

>  <hbond:CYS:65>  (26) 
hbond:CYS:65    0
hbond:CYS:65    0
Name: 25, dtype: object

>  <halogenbond:CYS:65>  (26) 
halogenbond:CYS:65    0
halogenbond:CYS:65    0
Name: 25, dtype: object

>  <hbond:SER:66>  (26) 
hbond:SER:66    0
hbond:SER:66    0
Name: 25, dtype: object

>  <hbond:SER:67>  (26) 
hbond:SER:67    0
hbond:SER:67    0
Name: 25, dtype: object

>  <halogenbond:SER:67>  (26) 
halogenbond:SER:67    0
halogenbond:SER:67    0
Name: 25, dtype: object

>  <hydroph_interaction:ARG:68>  (26) 
hydroph_interaction:ARG:68    0
hydroph_interaction:ARG:68    0
Name: 25, dtype: object

>  <hbond:ARG:68>  (26) 
hbond:ARG:68    0
hbond:ARG:68    0
Name: 25, dtype: object

>  <saltbridge:ARG:68>  (26) 
saltbridge:ARG:68    0
saltbridge:ARG:68    0
Name: 25, dtype: object

>  <pication:ARG:68>  (26) 
pication:ARG:68    0
pication:ARG:68    0
Name: 25, dtype: object

>  <hydroph_interaction:TYR:72>  (26) 
hydroph_interaction:TYR:72    0
hydroph_interaction:TYR:72    0
Name: 25, dtype: object

>  <hydroph_interaction:VAL:74>  (26) 
hydroph_interaction:VAL:74    0
hydroph_interaction:VAL:74    0
Name: 25, dtype: object

>  <hydroph_interaction:PHE:76>  (26) 
hydroph_interaction:PHE:76    0
hydroph_interaction:PHE:76    0
Name: 25, dtype: object

>  <hbond:SER:77>  (26) 
hbond:SER:77    0
hbond:SER:77    0
Name: 25, dtype: object

>  <hbond:SER:80>  (26) 
hbond:SER:80    0
hbond:SER:80    0
Name: 25, dtype: object

>  <hbond:LEU:81>  (26) 
hbond:LEU:81    0
hbond:LEU:81    0
Name: 25, dtype: object

>  <halogenbond:LEU:81>  (26) 
halogenbond:LEU:81    0
halogenbond:LEU:81    0
Name: 25, dtype: object

>  <hydroph_interaction:LEU:81>  (26) 
hydroph_interaction:LEU:81    0
hydroph_interaction:LEU:81    0
Name: 25, dtype: object

>  <hydroph_interaction:ILE:82>  (26) 
hydroph_interaction:ILE:82    0
hydroph_interaction:ILE:82    0
Name: 25, dtype: object

>  <hbond:ILE:82>  (26) 
hbond:ILE:82    0
hbond:ILE:82    0
Name: 25, dtype: object

>  <hydroph_interaction:PHE:83>  (26) 
hydroph_interaction:PHE:83    0
hydroph_interaction:PHE:83    0
Name: 25, dtype: object

>  <hbond:PHE:83>  (26) 
hbond:PHE:83    0
hbond:PHE:83    0
Name: 25, dtype: object

>  <halogenbond:PHE:83>  (26) 
halogenbond:PHE:83    0
halogenbond:PHE:83    0
Name: 25, dtype: object

>  <pistack:PHE:83>  (26) 
pistack:PHE:83    0
pistack:PHE:83    0
Name: 25, dtype: object

>  <hydroph_interaction:VAL:84>  (26) 
hydroph_interaction:VAL:84    0
hydroph_interaction:VAL:84    0
Name: 25, dtype: object

>  <hbond:VAL:84>  (26) 
hbond:VAL:84    0
hbond:VAL:84    0
Name: 25, dtype: object

>  <halogenbond:VAL:84>  (26) 
halogenbond:VAL:84    0
halogenbond:VAL:84    0
Name: 25, dtype: object

>  <hydroph_interaction:GLU:85>  (26) 
hydroph_interaction:GLU:85    0
hydroph_interaction:GLU:85    0
Name: 25, dtype: object

>  <hbond:GLU:85>  (26) 
hbond:GLU:85    0
hbond:GLU:85    0
Name: 25, dtype: object

>  <saltbridge:GLU:85>  (26) 
saltbridge:GLU:85    0
saltbridge:GLU:85    0
Name: 25, dtype: object

>  <halogenbond:GLU:85>  (26) 
halogenbond:GLU:85    0
halogenbond:GLU:85    0
Name: 25, dtype: object

>  <hbond:ALA:86>  (26) 
hbond:ALA:86    0
hbond:ALA:86    0
Name: 25, dtype: object

>  <halogenbond:ALA:86>  (26) 
halogenbond:ALA:86    0
halogenbond:ALA:86    0
Name: 25, dtype: object

>  <hydroph_interaction:ALA:86>  (26) 
hydroph_interaction:ALA:86    0
hydroph_interaction:ALA:86    0
Name: 25, dtype: object

>  <hbond:SER:87>  (26) 
hbond:SER:87    2
hbond:SER:87    2
Name: 25, dtype: object

>  <halogenbond:SER:87>  (26) 
halogenbond:SER:87    0
halogenbond:SER:87    0
Name: 25, dtype: object

>  <hbond:GLU:88>  (26) 
hbond:GLU:88    1
hbond:GLU:88    1
Name: 25, dtype: object

>  <hydroph_interaction:GLU:88>  (26) 
hydroph_interaction:GLU:88    0
hydroph_interaction:GLU:88    0
Name: 25, dtype: object

>  <halogenbond:GLU:88>  (26) 
halogenbond:GLU:88    0
halogenbond:GLU:88    0
Name: 25, dtype: object

>  <saltbridge:GLU:88>  (26) 
saltbridge:GLU:88    0
saltbridge:GLU:88    0
Name: 25, dtype: object

>  <hydroph_interaction:TYR:89>  (26) 
hydroph_interaction:TYR:89    1
hydroph_interaction:TYR:89    1
Name: 25, dtype: object

>  <pistack:TYR:89>  (26) 
pistack:TYR:89    0
pistack:TYR:89    0
Name: 25, dtype: object

>  <hbond:TYR:89>  (26) 
hbond:TYR:89    0
hbond:TYR:89    0
Name: 25, dtype: object

>  <halogenbond:TYR:89>  (26) 
halogenbond:TYR:89    0
halogenbond:TYR:89    0
Name: 25, dtype: object

>  <hbond:TYR:90>  (26) 
hbond:TYR:90    0
hbond:TYR:90    0
Name: 25, dtype: object

>  <hydroph_interaction:TYR:90>  (26) 
hydroph_interaction:TYR:90    1
hydroph_interaction:TYR:90    1
Name: 25, dtype: object

>  <pistack:TYR:90>  (26) 
pistack:TYR:90    0
pistack:TYR:90    0
Name: 25, dtype: object

>  <halogenbond:TYR:90>  (26) 
halogenbond:TYR:90    0
halogenbond:TYR:90    0
Name: 25, dtype: object

>  <pication:TYR:90>  (26) 
pication:TYR:90    0
pication:TYR:90    0
Name: 25, dtype: object

>  <hydroph_interaction:PRO:91>  (26) 
hydroph_interaction:PRO:91    0
hydroph_interaction:PRO:91    0
Name: 25, dtype: object

>  <halogenbond:PRO:91>  (26) 
halogenbond:PRO:91    0
halogenbond:PRO:91    0
Name: 25, dtype: object

>  <hbond:PRO:91>  (26) 
hbond:PRO:91    0
hbond:PRO:91    0
Name: 25, dtype: object

>  <hydroph_interaction:ALA:92>  (26) 
hydroph_interaction:ALA:92    0
hydroph_interaction:ALA:92    0
Name: 25, dtype: object

>  <hbond:ARG:93>  (26) 
hbond:ARG:93    0
hbond:ARG:93    0
Name: 25, dtype: object

>  <pication:ARG:93>  (26) 
pication:ARG:93    0
pication:ARG:93    0
Name: 25, dtype: object

>  <saltbridge:ARG:93>  (26) 
saltbridge:ARG:93    0
saltbridge:ARG:93    0
Name: 25, dtype: object

>  <hydroph_interaction:ARG:93>  (26) 
hydroph_interaction:ARG:93    0
hydroph_interaction:ARG:93    0
Name: 25, dtype: object

>  <halogenbond:ARG:93>  (26) 
halogenbond:ARG:93    0
halogenbond:ARG:93    0
Name: 25, dtype: object

>  <hydroph_interaction:TYR:94>  (26) 
hydroph_interaction:TYR:94    0
hydroph_interaction:TYR:94    0
Name: 25, dtype: object

>  <hbond:TYR:94>  (26) 
hbond:TYR:94    0
hbond:TYR:94    0
Name: 25, dtype: object

>  <halogenbond:GLN:95>  (26) 
halogenbond:GLN:95    0
halogenbond:GLN:95    0
Name: 25, dtype: object

>  <hbond:GLN:95>  (26) 
hbond:GLN:95    0
hbond:GLN:95    0
Name: 25, dtype: object

>  <hydroph_interaction:GLN:95>  (26) 
hydroph_interaction:GLN:95    0
hydroph_interaction:GLN:95    0
Name: 25, dtype: object

>  <hbond:SER:96>  (26) 
hbond:SER:96    0
hbond:SER:96    0
Name: 25, dtype: object

>  <hydroph_interaction:LEU:98>  (26) 
hydroph_interaction:LEU:98    0
hydroph_interaction:LEU:98    0
Name: 25, dtype: object

>  <hbond:LEU:98>  (26) 
hbond:LEU:98    0
hbond:LEU:98    0
Name: 25, dtype: object

>  <hbond:MET:99>  (26) 
hbond:MET:99    0
hbond:MET:99    0
Name: 25, dtype: object

>  <hydroph_interaction:MET:99>  (26) 
hydroph_interaction:MET:99    0
hydroph_interaction:MET:99    0
Name: 25, dtype: object

>  <halogenbond:MET:99>  (26) 
halogenbond:MET:99    0
halogenbond:MET:99    0
Name: 25, dtype: object

>  <hydroph_interaction:LEU:100>  (26) 
hydroph_interaction:LEU:100    0
hydroph_interaction:LEU:100    0
Name: 25, dtype: object

>  <hbond:LEU:100>  (26) 
hbond:LEU:100    0
hbond:LEU:100    0
Name: 25, dtype: object

>  <hbond:ALA:101>  (26) 
hbond:ALA:101    0
hbond:ALA:101    0
Name: 25, dtype: object

>  <hydroph_interaction:ALA:101>  (26) 
hydroph_interaction:ALA:101    0
hydroph_interaction:ALA:101    0
Name: 25, dtype: object

>  <hydroph_interaction:VAL:102>  (26) 
hydroph_interaction:VAL:102    0
hydroph_interaction:VAL:102    0
Name: 25, dtype: object

>  <hbond:VAL:102>  (26) 
hbond:VAL:102    0
hbond:VAL:102    0
Name: 25, dtype: object

>  <hbond:GLY:103>  (26) 
hbond:GLY:103    0
hbond:GLY:103    0
Name: 25, dtype: object

>  <halogenbond:GLY:103>  (26) 
halogenbond:GLY:103    0
halogenbond:GLY:103    0
Name: 25, dtype: object

>  <hydroph_interaction:HIS:104>  (26) 
hydroph_interaction:HIS:104    0
hydroph_interaction:HIS:104    0
Name: 25, dtype: object

>  <hbond:HIS:104>  (26) 
hbond:HIS:104    0
hbond:HIS:104    0
Name: 25, dtype: object

>  <saltbridge:HIS:104>  (26) 
saltbridge:HIS:104    0
saltbridge:HIS:104    0
Name: 25, dtype: object

>  <pication:HIS:104>  (26) 
pication:HIS:104    0
pication:HIS:104    0
Name: 25, dtype: object

>  <pistack:HIS:104>  (26) 
pistack:HIS:104    0
pistack:HIS:104    0
Name: 25, dtype: object

>  <halogenbond:HIS:104>  (26) 
halogenbond:HIS:104    0
halogenbond:HIS:104    0
Name: 25, dtype: object

>  <hbond:SER:105>  (26) 
hbond:SER:105    0
hbond:SER:105    0
Name: 25, dtype: object

>  <halogenbond:SER:105>  (26) 
halogenbond:SER:105    0
halogenbond:SER:105    0
Name: 25, dtype: object

>  <hbond:GLU:106>  (26) 
hbond:GLU:106    0
hbond:GLU:106    0
Name: 25, dtype: object

>  <hydroph_interaction:GLU:106>  (26) 
hydroph_interaction:GLU:106    0
hydroph_interaction:GLU:106    0
Name: 25, dtype: object

>  <saltbridge:GLU:106>  (26) 
saltbridge:GLU:106    0
saltbridge:GLU:106    0
Name: 25, dtype: object

>  <halogenbond:GLU:106>  (26) 
halogenbond:GLU:106    0
halogenbond:GLU:106    0
Name: 25, dtype: object

>  <hydroph_interaction:PRO:107>  (26) 
hydroph_interaction:PRO:107    2
hydroph_interaction:PRO:107    2
Name: 25, dtype: object

>  <hbond:PRO:107>  (26) 
hbond:PRO:107    0
hbond:PRO:107    0
Name: 25, dtype: object

>  <halogenbond:PRO:107>  (26) 
halogenbond:PRO:107    0
halogenbond:PRO:107    0
Name: 25, dtype: object

>  <hbond:GLY:108>  (26) 
hbond:GLY:108    0
hbond:GLY:108    0
Name: 25, dtype: object

>  <halogenbond:GLY:108>  (26) 
halogenbond:GLY:108    0
halogenbond:GLY:108    0
Name: 25, dtype: object

>  <hbond:ASP:109>  (26) 
hbond:ASP:109    0
hbond:ASP:109    0
Name: 25, dtype: object

>  <hydroph_interaction:ASP:109>  (26) 
hydroph_interaction:ASP:109    0
hydroph_interaction:ASP:109    0
Name: 25, dtype: object

>  <saltbridge:ASP:109>  (26) 
saltbridge:ASP:109    0
saltbridge:ASP:109    0
Name: 25, dtype: object

>  <hbond:CYS:110>  (26) 
hbond:CYS:110    0
hbond:CYS:110    0
Name: 25, dtype: object

>  <halogenbond:CYS:110>  (26) 
halogenbond:CYS:110    0
halogenbond:CYS:110    0
Name: 25, dtype: object

>  <hbond:GLY:111>  (26) 
hbond:GLY:111    0
hbond:GLY:111    0
Name: 25, dtype: object

>  <hbond:GLY:112>  (26) 
hbond:GLY:112    0
hbond:GLY:112    0
Name: 25, dtype: object

>  <hbond:ILE:113>  (26) 
hbond:ILE:113    0
hbond:ILE:113    0
Name: 25, dtype: object

>  <hydroph_interaction:LEU:114>  (26) 
hydroph_interaction:LEU:114    0
hydroph_interaction:LEU:114    0
Name: 25, dtype: object

>  <hbond:LEU:114>  (26) 
hbond:LEU:114    0
hbond:LEU:114    0
Name: 25, dtype: object

>  <hydroph_interaction:ILE:123>  (26) 
hydroph_interaction:ILE:123    0
hydroph_interaction:ILE:123    0
Name: 25, dtype: object

>  <hbond:ILE:123>  (26) 
hbond:ILE:123    0
hbond:ILE:123    0
Name: 25, dtype: object

>  <hydroph_interaction:VAL:124>  (26) 
hydroph_interaction:VAL:124    1
hydroph_interaction:VAL:124    1
Name: 25, dtype: object

>  <hbond:VAL:124>  (26) 
hbond:VAL:124    0
hbond:VAL:124    0
Name: 25, dtype: object

>  <halogenbond:VAL:124>  (26) 
halogenbond:VAL:124    0
halogenbond:VAL:124    0
Name: 25, dtype: object

>  <hbond:SER:125>  (26) 
hbond:SER:125    0
hbond:SER:125    0
Name: 25, dtype: object

>  <halogenbond:SER:125>  (26) 
halogenbond:SER:125    0
halogenbond:SER:125    0
Name: 25, dtype: object

>  <hydroph_interaction:THR:126>  (26) 
hydroph_interaction:THR:126    0
hydroph_interaction:THR:126    0
Name: 25, dtype: object

>  <hbond:THR:126>  (26) 
hbond:THR:126    0
hbond:THR:126    0
Name: 25, dtype: object

>  <halogenbond:THR:126>  (26) 
halogenbond:THR:126    0
halogenbond:THR:126    0
Name: 25, dtype: object

>  <hbond:GLY:127>  (26) 
hbond:GLY:127    0
hbond:GLY:127    0
Name: 25, dtype: object

>  <halogenbond:GLY:127>  (26) 
halogenbond:GLY:127    0
halogenbond:GLY:127    0
Name: 25, dtype: object

>  <hydroph_interaction:GLY:127>  (26) 
hydroph_interaction:GLY:127    0
hydroph_interaction:GLY:127    0
Name: 25, dtype: object

>  <hbond:GLY:128>  (26) 
hbond:GLY:128    0
hbond:GLY:128    0
Name: 25, dtype: object

>  <halogenbond:GLY:128>  (26) 
halogenbond:GLY:128    0
halogenbond:GLY:128    0
Name: 25, dtype: object

>  <hydroph_interaction:GLY:128>  (26) 
hydroph_interaction:GLY:128    0
hydroph_interaction:GLY:128    0
Name: 25, dtype: object

>  <hbond:ASN:129>  (26) 
hbond:ASN:129    0
hbond:ASN:129    0
Name: 25, dtype: object

>  <hydroph_interaction:ASN:129>  (26) 
hydroph_interaction:ASN:129    0
hydroph_interaction:ASN:129    0
Name: 25, dtype: object

>  <halogenbond:ASN:129>  (26) 
halogenbond:ASN:129    0
halogenbond:ASN:129    0
Name: 25, dtype: object

>  <hbond:GLY:130>  (26) 
hbond:GLY:130    0
hbond:GLY:130    0
Name: 25, dtype: object

>  <hydroph_interaction:LEU:131>  (26) 
hydroph_interaction:LEU:131    0
hydroph_interaction:LEU:131    0
Name: 25, dtype: object

>  <hbond:LEU:131>  (26) 
hbond:LEU:131    0
hbond:LEU:131    0
Name: 25, dtype: object

>  <halogenbond:LEU:131>  (26) 
halogenbond:LEU:131    0
halogenbond:LEU:131    0
Name: 25, dtype: object

>  <hydroph_interaction:VAL:132>  (26) 
hydroph_interaction:VAL:132    0
hydroph_interaction:VAL:132    0
Name: 25, dtype: object

>  <hbond:VAL:132>  (26) 
hbond:VAL:132    0
hbond:VAL:132    0
Name: 25, dtype: object

>  <hbond:GLY:133>  (26) 
hbond:GLY:133    0
hbond:GLY:133    0
Name: 25, dtype: object

>  <halogenbond:GLY:133>  (26) 
halogenbond:GLY:133    0
halogenbond:GLY:133    0
Name: 25, dtype: object

>  <hydroph_interaction:PHE:134>  (26) 
hydroph_interaction:PHE:134    0
hydroph_interaction:PHE:134    0
Name: 25, dtype: object

>  <hbond:PHE:134>  (26) 
hbond:PHE:134    0
hbond:PHE:134    0
Name: 25, dtype: object

>  <pistack:PHE:134>  (26) 
pistack:PHE:134    0
pistack:PHE:134    0
Name: 25, dtype: object

>  <pication:PHE:134>  (26) 
pication:PHE:134    0
pication:PHE:134    0
Name: 25, dtype: object

>  <hydroph_interaction:ALA:135>  (26) 
hydroph_interaction:ALA:135    0
hydroph_interaction:ALA:135    0
Name: 25, dtype: object

>  <hbond:ALA:135>  (26) 
hbond:ALA:135    0
hbond:ALA:135    0
Name: 25, dtype: object

$$$$
Z2450144222
     RDKit          3D

 37 37  0  0  0  0  0  0  0  0999 V2000
   12.6500   14.3760   20.2330 C   0  0  0  0  0  0  0  0  0  0  0  0
   11.9820   14.8430   21.5170 C   0  0  0  0  0  0  0  0  0  0  0  0
   10.6290   14.2840   21.7220 N   0  0  0  0  0  0  0  0  0  0  0  0
   10.3980   14.0000   23.1490 C   0  0  0  0  0  0  0  0  0  0  0  0
    9.7580   12.6480   23.4990 C   0  0  0  0  0  0  0  0  0  0  0  0
    8.6830   12.6030   24.3990 C   0  0  0  0  0  0  0  0  0  0  0  0
    8.1040   11.3970   24.7470 C   0  0  0  0  0  0  0  0  0  0  0  0
    8.5910   10.2250   24.2030 C   0  0  0  0  0  0  0  0  0  0  0  0
    9.6400   10.2570   23.3170 C   0  0  0  0  0  0  0  0  0  0  0  0
   10.1230    8.9770   22.7740 C   0  0  0  0  0  0  0  0  0  0  0  0
   11.3000    8.5340   23.2390 N   0  0  0  0  0  0  0  0  0  0  0  0
    9.5160    8.3360   21.9590 O   0  0  0  0  0  0  0  0  0  0  0  0
   10.2240   11.4700   22.9590 C   0  0  0  0  0  0  0  0  0  0  0  0
    9.5970   14.8030   20.9000 C   0  0  0  0  0  0  0  0  0  0  0  0
    8.5050   14.2570   20.8100 O   0  0  0  0  0  0  0  0  0  0  0  0
    9.8140   16.1000   20.1530 C   0  0  0  0  0  0  0  0  0  0  0  0
    9.8590   15.7670   18.7030 C   0  0  0  0  0  0  0  0  0  0  0  0
    9.6270   16.9530   17.8800 N   0  0  0  0  0  0  0  0  0  0  0  0
   13.0380   13.3660   20.3690 H   0  0  0  0  0  0  0  0  0  0  0  0
   13.4910   15.0210   19.9800 H   0  0  0  0  0  0  0  0  0  0  0  0
   11.9470   14.3850   19.3970 H   0  0  0  0  0  0  0  0  0  0  0  0
   11.9430   15.9380   21.5310 H   0  0  0  0  0  0  0  0  0  0  0  0
   12.6180   14.5320   22.3530 H   0  0  0  0  0  0  0  0  0  0  0  0
    9.7060   14.7400   23.5320 H   0  0  0  0  0  0  0  0  0  0  0  0
   11.3240   14.1240   23.7150 H   0  0  0  0  0  0  0  0  0  0  0  0
    8.2970   13.5200   24.8360 H   0  0  0  0  0  0  0  0  0  0  0  0
    7.2720   11.3290   25.4420 H   0  0  0  0  0  0  0  0  0  0  0  0
    8.1320    9.2860   24.4890 H   0  0  0  0  0  0  0  0  0  0  0  0
   11.4020    7.6010   23.5850 H   0  0  0  0  0  0  0  0  0  0  0  0
   11.8910    9.2430   23.6590 H   0  0  0  0  0  0  0  0  0  0  0  0
   11.0530   11.4820   22.2560 H   0  0  0  0  0  0  0  0  0  0  0  0
   10.7210   16.5750   20.5090 H   0  0  0  0  0  0  0  0  0  0  0  0
    8.9620   16.7650   20.3050 H   0  0  0  0  0  0  0  0  0  0  0  0
   10.8230   15.3300   18.4150 H   0  0  0  0  0  0  0  0  0  0  0  0
    9.1120   15.0780   18.3970 H   0  0  0  0  0  0  0  0  0  0  0  0
    9.6990   16.6150   16.9140 H   0  0  0  0  0  0  0  0  0  0  0  0
    8.6680   17.2610   17.9960 H   0  0  0  0  0  0  0  0  0  0  0  0
  1  2  1  0
  2  3  1  0
  3  4  1  0
  4  5  1  0
  5  6  2  0
  6  7  1  0
  7  8  2  0
  8  9  1  0
  9 10  1  0
 10 11  1  0
 10 12  2  0
  9 13  2  0
  3 14  1  0
 14 15  2  0
 14 16  1  0
 16 17  1  0
 17 18  1  0
 13  5  1  0
  1 19  1  0
  1 20  1  0
  1 21  1  0
  2 22  1  0
  2 23  1  0
  4 24  1  0
  4 25  1  0
  6 26  1  0
  7 27  1  0
  8 28  1  0
 11 29  1  0
 11 30  1  0
 13 31  1  0
 16 32  1  0
 16 33  1  0
 17 34  1  0
 17 35  1  0
 18 36  1  0
 18 37  1  0
A    1
 C1 
A    2
 C2 
A    3
 N1 
A    4
 C3 
A    5
 C4 
A    6
 C5 
A    7
 C6 
A    8
 C7 
A    9
 C8 
A   10
 C9 
A   11
 N2 
A   12
 O1 
A   13
 C10
A   14
 C11
A   15
 O2 
A   16
 C12
A   17
 C13
A   18
 N3 
A   19
 H1 
A   20
 H2 
A   21
 H3 
A   22
 H4 
A   23
 H5 
A   24
 H6 
A   25
 H7 
A   26
 H8 
A   27
 H9 
A   28
 H10
A   29
 H11
A   30
 H12
A   31
 H13
A   32
 H14
A   33
 H15
A   34
 H16
A   35
 H17
A   36
 H18
A   37
 H19
M  END
>  <ref_pdb>  (27) 
x0310_0A

>  <ref_mols>  (27) 
x0554_0A,x0451_0A

>  <original SMILES>  (27) 
CCN(Cc1cccc(C(N)=O)c1)C(=O)CCN

>  <rationale>  (27) 
info hbond:D109+G127+S105+S87+P107+R93+Q95; hydroph_interaction:P107+Y90; 

>  <intxn_cluster>  (27) 
103

>  <intxn_cluster_rank>  (27) 
6

>  <N_interactions>  (27) 
10

>  <∆∆G>  (27) 
-7.94617

>  <$/mg>  (27) 
163.0

>  <comRMSD>  (27) 
0.580932

>  <N_rotatable_bonds>  (27) 
8

>  <N_analogues_07>  (27) 
7

>  <deep_P1_sidechain>  (27) 
True

>  <farthest_distance_to_substrate>  (27) 
3.408869

>  <hbond:SER:7>  (27) 
hbond:SER:7    0
hbond:SER:7    0
Name: 26, dtype: object

>  <halogenbond:SER:7>  (27) 
halogenbond:SER:7    0
halogenbond:SER:7    0
Name: 26, dtype: object

>  <hbond:GLY:8>  (27) 
hbond:GLY:8    0
hbond:GLY:8    0
Name: 26, dtype: object

>  <hydroph_interaction:ASN:19>  (27) 
hydroph_interaction:ASN:19    0
hydroph_interaction:ASN:19    0
Name: 26, dtype: object

>  <hbond:ASN:19>  (27) 
hbond:ASN:19    0
hbond:ASN:19    0
Name: 26, dtype: object

>  <halogenbond:ASN:19>  (27) 
halogenbond:ASN:19    0
halogenbond:ASN:19    0
Name: 26, dtype: object

>  <hbond:ARG:20>  (27) 
hbond:ARG:20    0
hbond:ARG:20    0
Name: 26, dtype: object

>  <hydroph_interaction:ARG:20>  (27) 
hydroph_interaction:ARG:20    0
hydroph_interaction:ARG:20    0
Name: 26, dtype: object

>  <saltbridge:ARG:20>  (27) 
saltbridge:ARG:20    0
saltbridge:ARG:20    0
Name: 26, dtype: object

>  <halogenbond:ARG:20>  (27) 
halogenbond:ARG:20    0
halogenbond:ARG:20    0
Name: 26, dtype: object

>  <pication:ARG:20>  (27) 
pication:ARG:20    0
pication:ARG:20    0
Name: 26, dtype: object

>  <hbond:HIS:21>  (27) 
hbond:HIS:21    0
hbond:HIS:21    0
Name: 26, dtype: object

>  <hydroph_interaction:HIS:21>  (27) 
hydroph_interaction:HIS:21    0
hydroph_interaction:HIS:21    0
Name: 26, dtype: object

>  <saltbridge:HIS:21>  (27) 
saltbridge:HIS:21    0
saltbridge:HIS:21    0
Name: 26, dtype: object

>  <pistack:HIS:21>  (27) 
pistack:HIS:21    0
pistack:HIS:21    0
Name: 26, dtype: object

>  <pication:HIS:21>  (27) 
pication:HIS:21    0
pication:HIS:21    0
Name: 26, dtype: object

>  <halogenbond:HIS:21>  (27) 
halogenbond:HIS:21    0
halogenbond:HIS:21    0
Name: 26, dtype: object

>  <hydroph_interaction:LEU:22>  (27) 
hydroph_interaction:LEU:22    0
hydroph_interaction:LEU:22    0
Name: 26, dtype: object

>  <hbond:LEU:22>  (27) 
hbond:LEU:22    0
hbond:LEU:22    0
Name: 26, dtype: object

>  <hydroph_interaction:TRP:28>  (27) 
hydroph_interaction:TRP:28    0
hydroph_interaction:TRP:28    0
Name: 26, dtype: object

>  <hbond:SER:36>  (27) 
hbond:SER:36    0
hbond:SER:36    0
Name: 26, dtype: object

>  <halogenbond:SER:36>  (27) 
halogenbond:SER:36    0
halogenbond:SER:36    0
Name: 26, dtype: object

>  <hbond:ARG:38>  (27) 
hbond:ARG:38    0
hbond:ARG:38    0
Name: 26, dtype: object

>  <halogenbond:ARG:38>  (27) 
halogenbond:ARG:38    0
halogenbond:ARG:38    0
Name: 26, dtype: object

>  <hbond:ASP:39>  (27) 
hbond:ASP:39    0
hbond:ASP:39    0
Name: 26, dtype: object

>  <saltbridge:ASP:39>  (27) 
saltbridge:ASP:39    0
saltbridge:ASP:39    0
Name: 26, dtype: object

>  <hydroph_interaction:ASP:39>  (27) 
hydroph_interaction:ASP:39    0
hydroph_interaction:ASP:39    0
Name: 26, dtype: object

>  <halogenbond:ASP:39>  (27) 
halogenbond:ASP:39    0
halogenbond:ASP:39    0
Name: 26, dtype: object

>  <hydroph_interaction:LEU:40>  (27) 
hydroph_interaction:LEU:40    0
hydroph_interaction:LEU:40    0
Name: 26, dtype: object

>  <hydroph_interaction:TYR:63>  (27) 
hydroph_interaction:TYR:63    0
hydroph_interaction:TYR:63    0
Name: 26, dtype: object

>  <pistack:TYR:63>  (27) 
pistack:TYR:63    0
pistack:TYR:63    0
Name: 26, dtype: object

>  <hbond:TYR:63>  (27) 
hbond:TYR:63    0
hbond:TYR:63    0
Name: 26, dtype: object

>  <hbond:TYR:64>  (27) 
hbond:TYR:64    0
hbond:TYR:64    0
Name: 26, dtype: object

>  <halogenbond:TYR:64>  (27) 
halogenbond:TYR:64    0
halogenbond:TYR:64    0
Name: 26, dtype: object

>  <hydroph_interaction:TYR:64>  (27) 
hydroph_interaction:TYR:64    0
hydroph_interaction:TYR:64    0
Name: 26, dtype: object

>  <hbond:CYS:65>  (27) 
hbond:CYS:65    0
hbond:CYS:65    0
Name: 26, dtype: object

>  <halogenbond:CYS:65>  (27) 
halogenbond:CYS:65    0
halogenbond:CYS:65    0
Name: 26, dtype: object

>  <hbond:SER:66>  (27) 
hbond:SER:66    0
hbond:SER:66    0
Name: 26, dtype: object

>  <hbond:SER:67>  (27) 
hbond:SER:67    0
hbond:SER:67    0
Name: 26, dtype: object

>  <halogenbond:SER:67>  (27) 
halogenbond:SER:67    0
halogenbond:SER:67    0
Name: 26, dtype: object

>  <hydroph_interaction:ARG:68>  (27) 
hydroph_interaction:ARG:68    0
hydroph_interaction:ARG:68    0
Name: 26, dtype: object

>  <hbond:ARG:68>  (27) 
hbond:ARG:68    0
hbond:ARG:68    0
Name: 26, dtype: object

>  <saltbridge:ARG:68>  (27) 
saltbridge:ARG:68    0
saltbridge:ARG:68    0
Name: 26, dtype: object

>  <pication:ARG:68>  (27) 
pication:ARG:68    0
pication:ARG:68    0
Name: 26, dtype: object

>  <hydroph_interaction:TYR:72>  (27) 
hydroph_interaction:TYR:72    0
hydroph_interaction:TYR:72    0
Name: 26, dtype: object

>  <hydroph_interaction:VAL:74>  (27) 
hydroph_interaction:VAL:74    0
hydroph_interaction:VAL:74    0
Name: 26, dtype: object

>  <hydroph_interaction:PHE:76>  (27) 
hydroph_interaction:PHE:76    0
hydroph_interaction:PHE:76    0
Name: 26, dtype: object

>  <hbond:SER:77>  (27) 
hbond:SER:77    0
hbond:SER:77    0
Name: 26, dtype: object

>  <hbond:SER:80>  (27) 
hbond:SER:80    0
hbond:SER:80    0
Name: 26, dtype: object

>  <hbond:LEU:81>  (27) 
hbond:LEU:81    0
hbond:LEU:81    0
Name: 26, dtype: object

>  <halogenbond:LEU:81>  (27) 
halogenbond:LEU:81    0
halogenbond:LEU:81    0
Name: 26, dtype: object

>  <hydroph_interaction:LEU:81>  (27) 
hydroph_interaction:LEU:81    0
hydroph_interaction:LEU:81    0
Name: 26, dtype: object

>  <hydroph_interaction:ILE:82>  (27) 
hydroph_interaction:ILE:82    0
hydroph_interaction:ILE:82    0
Name: 26, dtype: object

>  <hbond:ILE:82>  (27) 
hbond:ILE:82    0
hbond:ILE:82    0
Name: 26, dtype: object

>  <hydroph_interaction:PHE:83>  (27) 
hydroph_interaction:PHE:83    0
hydroph_interaction:PHE:83    0
Name: 26, dtype: object

>  <hbond:PHE:83>  (27) 
hbond:PHE:83    0
hbond:PHE:83    0
Name: 26, dtype: object

>  <halogenbond:PHE:83>  (27) 
halogenbond:PHE:83    0
halogenbond:PHE:83    0
Name: 26, dtype: object

>  <pistack:PHE:83>  (27) 
pistack:PHE:83    0
pistack:PHE:83    0
Name: 26, dtype: object

>  <hydroph_interaction:VAL:84>  (27) 
hydroph_interaction:VAL:84    0
hydroph_interaction:VAL:84    0
Name: 26, dtype: object

>  <hbond:VAL:84>  (27) 
hbond:VAL:84    0
hbond:VAL:84    0
Name: 26, dtype: object

>  <halogenbond:VAL:84>  (27) 
halogenbond:VAL:84    0
halogenbond:VAL:84    0
Name: 26, dtype: object

>  <hydroph_interaction:GLU:85>  (27) 
hydroph_interaction:GLU:85    0
hydroph_interaction:GLU:85    0
Name: 26, dtype: object

>  <hbond:GLU:85>  (27) 
hbond:GLU:85    0
hbond:GLU:85    0
Name: 26, dtype: object

>  <saltbridge:GLU:85>  (27) 
saltbridge:GLU:85    0
saltbridge:GLU:85    0
Name: 26, dtype: object

>  <halogenbond:GLU:85>  (27) 
halogenbond:GLU:85    0
halogenbond:GLU:85    0
Name: 26, dtype: object

>  <hbond:ALA:86>  (27) 
hbond:ALA:86    0
hbond:ALA:86    0
Name: 26, dtype: object

>  <halogenbond:ALA:86>  (27) 
halogenbond:ALA:86    0
halogenbond:ALA:86    0
Name: 26, dtype: object

>  <hydroph_interaction:ALA:86>  (27) 
hydroph_interaction:ALA:86    0
hydroph_interaction:ALA:86    0
Name: 26, dtype: object

>  <hbond:SER:87>  (27) 
hbond:SER:87    1
hbond:SER:87    1
Name: 26, dtype: object

>  <halogenbond:SER:87>  (27) 
halogenbond:SER:87    0
halogenbond:SER:87    0
Name: 26, dtype: object

>  <hbond:GLU:88>  (27) 
hbond:GLU:88    0
hbond:GLU:88    0
Name: 26, dtype: object

>  <hydroph_interaction:GLU:88>  (27) 
hydroph_interaction:GLU:88    0
hydroph_interaction:GLU:88    0
Name: 26, dtype: object

>  <halogenbond:GLU:88>  (27) 
halogenbond:GLU:88    0
halogenbond:GLU:88    0
Name: 26, dtype: object

>  <saltbridge:GLU:88>  (27) 
saltbridge:GLU:88    0
saltbridge:GLU:88    0
Name: 26, dtype: object

>  <hydroph_interaction:TYR:89>  (27) 
hydroph_interaction:TYR:89    0
hydroph_interaction:TYR:89    0
Name: 26, dtype: object

>  <pistack:TYR:89>  (27) 
pistack:TYR:89    0
pistack:TYR:89    0
Name: 26, dtype: object

>  <hbond:TYR:89>  (27) 
hbond:TYR:89    0
hbond:TYR:89    0
Name: 26, dtype: object

>  <halogenbond:TYR:89>  (27) 
halogenbond:TYR:89    0
halogenbond:TYR:89    0
Name: 26, dtype: object

>  <hbond:TYR:90>  (27) 
hbond:TYR:90    0
hbond:TYR:90    0
Name: 26, dtype: object

>  <hydroph_interaction:TYR:90>  (27) 
hydroph_interaction:TYR:90    2
hydroph_interaction:TYR:90    2
Name: 26, dtype: object

>  <pistack:TYR:90>  (27) 
pistack:TYR:90    0
pistack:TYR:90    0
Name: 26, dtype: object

>  <halogenbond:TYR:90>  (27) 
halogenbond:TYR:90    0
halogenbond:TYR:90    0
Name: 26, dtype: object

>  <pication:TYR:90>  (27) 
pication:TYR:90    0
pication:TYR:90    0
Name: 26, dtype: object

>  <hydroph_interaction:PRO:91>  (27) 
hydroph_interaction:PRO:91    0
hydroph_interaction:PRO:91    0
Name: 26, dtype: object

>  <halogenbond:PRO:91>  (27) 
halogenbond:PRO:91    0
halogenbond:PRO:91    0
Name: 26, dtype: object

>  <hbond:PRO:91>  (27) 
hbond:PRO:91    0
hbond:PRO:91    0
Name: 26, dtype: object

>  <hydroph_interaction:ALA:92>  (27) 
hydroph_interaction:ALA:92    0
hydroph_interaction:ALA:92    0
Name: 26, dtype: object

>  <hbond:ARG:93>  (27) 
hbond:ARG:93    1
hbond:ARG:93    1
Name: 26, dtype: object

>  <pication:ARG:93>  (27) 
pication:ARG:93    0
pication:ARG:93    0
Name: 26, dtype: object

>  <saltbridge:ARG:93>  (27) 
saltbridge:ARG:93    0
saltbridge:ARG:93    0
Name: 26, dtype: object

>  <hydroph_interaction:ARG:93>  (27) 
hydroph_interaction:ARG:93    0
hydroph_interaction:ARG:93    0
Name: 26, dtype: object

>  <halogenbond:ARG:93>  (27) 
halogenbond:ARG:93    0
halogenbond:ARG:93    0
Name: 26, dtype: object

>  <hydroph_interaction:TYR:94>  (27) 
hydroph_interaction:TYR:94    0
hydroph_interaction:TYR:94    0
Name: 26, dtype: object

>  <hbond:TYR:94>  (27) 
hbond:TYR:94    0
hbond:TYR:94    0
Name: 26, dtype: object

>  <halogenbond:GLN:95>  (27) 
halogenbond:GLN:95    0
halogenbond:GLN:95    0
Name: 26, dtype: object

>  <hbond:GLN:95>  (27) 
hbond:GLN:95    1
hbond:GLN:95    1
Name: 26, dtype: object

>  <hydroph_interaction:GLN:95>  (27) 
hydroph_interaction:GLN:95    0
hydroph_interaction:GLN:95    0
Name: 26, dtype: object

>  <hbond:SER:96>  (27) 
hbond:SER:96    0
hbond:SER:96    0
Name: 26, dtype: object

>  <hydroph_interaction:LEU:98>  (27) 
hydroph_interaction:LEU:98    0
hydroph_interaction:LEU:98    0
Name: 26, dtype: object

>  <hbond:LEU:98>  (27) 
hbond:LEU:98    0
hbond:LEU:98    0
Name: 26, dtype: object

>  <hbond:MET:99>  (27) 
hbond:MET:99    0
hbond:MET:99    0
Name: 26, dtype: object

>  <hydroph_interaction:MET:99>  (27) 
hydroph_interaction:MET:99    0
hydroph_interaction:MET:99    0
Name: 26, dtype: object

>  <halogenbond:MET:99>  (27) 
halogenbond:MET:99    0
halogenbond:MET:99    0
Name: 26, dtype: object

>  <hydroph_interaction:LEU:100>  (27) 
hydroph_interaction:LEU:100    0
hydroph_interaction:LEU:100    0
Name: 26, dtype: object

>  <hbond:LEU:100>  (27) 
hbond:LEU:100    0
hbond:LEU:100    0
Name: 26, dtype: object

>  <hbond:ALA:101>  (27) 
hbond:ALA:101    0
hbond:ALA:101    0
Name: 26, dtype: object

>  <hydroph_interaction:ALA:101>  (27) 
hydroph_interaction:ALA:101    0
hydroph_interaction:ALA:101    0
Name: 26, dtype: object

>  <hydroph_interaction:VAL:102>  (27) 
hydroph_interaction:VAL:102    0
hydroph_interaction:VAL:102    0
Name: 26, dtype: object

>  <hbond:VAL:102>  (27) 
hbond:VAL:102    0
hbond:VAL:102    0
Name: 26, dtype: object

>  <hbond:GLY:103>  (27) 
hbond:GLY:103    0
hbond:GLY:103    0
Name: 26, dtype: object

>  <halogenbond:GLY:103>  (27) 
halogenbond:GLY:103    0
halogenbond:GLY:103    0
Name: 26, dtype: object

>  <hydroph_interaction:HIS:104>  (27) 
hydroph_interaction:HIS:104    0
hydroph_interaction:HIS:104    0
Name: 26, dtype: object

>  <hbond:HIS:104>  (27) 
hbond:HIS:104    0
hbond:HIS:104    0
Name: 26, dtype: object

>  <saltbridge:HIS:104>  (27) 
saltbridge:HIS:104    0
saltbridge:HIS:104    0
Name: 26, dtype: object

>  <pication:HIS:104>  (27) 
pication:HIS:104    0
pication:HIS:104    0
Name: 26, dtype: object

>  <pistack:HIS:104>  (27) 
pistack:HIS:104    0
pistack:HIS:104    0
Name: 26, dtype: object

>  <halogenbond:HIS:104>  (27) 
halogenbond:HIS:104    0
halogenbond:HIS:104    0
Name: 26, dtype: object

>  <hbond:SER:105>  (27) 
hbond:SER:105    1
hbond:SER:105    1
Name: 26, dtype: object

>  <halogenbond:SER:105>  (27) 
halogenbond:SER:105    0
halogenbond:SER:105    0
Name: 26, dtype: object

>  <hbond:GLU:106>  (27) 
hbond:GLU:106    0
hbond:GLU:106    0
Name: 26, dtype: object

>  <hydroph_interaction:GLU:106>  (27) 
hydroph_interaction:GLU:106    0
hydroph_interaction:GLU:106    0
Name: 26, dtype: object

>  <saltbridge:GLU:106>  (27) 
saltbridge:GLU:106    0
saltbridge:GLU:106    0
Name: 26, dtype: object

>  <halogenbond:GLU:106>  (27) 
halogenbond:GLU:106    0
halogenbond:GLU:106    0
Name: 26, dtype: object

>  <hydroph_interaction:PRO:107>  (27) 
hydroph_interaction:PRO:107    1
hydroph_interaction:PRO:107    1
Name: 26, dtype: object

>  <hbond:PRO:107>  (27) 
hbond:PRO:107    1
hbond:PRO:107    1
Name: 26, dtype: object

>  <halogenbond:PRO:107>  (27) 
halogenbond:PRO:107    0
halogenbond:PRO:107    0
Name: 26, dtype: object

>  <hbond:GLY:108>  (27) 
hbond:GLY:108    0
hbond:GLY:108    0
Name: 26, dtype: object

>  <halogenbond:GLY:108>  (27) 
halogenbond:GLY:108    0
halogenbond:GLY:108    0
Name: 26, dtype: object

>  <hbond:ASP:109>  (27) 
hbond:ASP:109    1
hbond:ASP:109    1
Name: 26, dtype: object

>  <hydroph_interaction:ASP:109>  (27) 
hydroph_interaction:ASP:109    0
hydroph_interaction:ASP:109    0
Name: 26, dtype: object

>  <saltbridge:ASP:109>  (27) 
saltbridge:ASP:109    0
saltbridge:ASP:109    0
Name: 26, dtype: object

>  <hbond:CYS:110>  (27) 
hbond:CYS:110    0
hbond:CYS:110    0
Name: 26, dtype: object

>  <halogenbond:CYS:110>  (27) 
halogenbond:CYS:110    0
halogenbond:CYS:110    0
Name: 26, dtype: object

>  <hbond:GLY:111>  (27) 
hbond:GLY:111    0
hbond:GLY:111    0
Name: 26, dtype: object

>  <hbond:GLY:112>  (27) 
hbond:GLY:112    0
hbond:GLY:112    0
Name: 26, dtype: object

>  <hbond:ILE:113>  (27) 
hbond:ILE:113    0
hbond:ILE:113    0
Name: 26, dtype: object

>  <hydroph_interaction:LEU:114>  (27) 
hydroph_interaction:LEU:114    0
hydroph_interaction:LEU:114    0
Name: 26, dtype: object

>  <hbond:LEU:114>  (27) 
hbond:LEU:114    0
hbond:LEU:114    0
Name: 26, dtype: object

>  <hydroph_interaction:ILE:123>  (27) 
hydroph_interaction:ILE:123    0
hydroph_interaction:ILE:123    0
Name: 26, dtype: object

>  <hbond:ILE:123>  (27) 
hbond:ILE:123    0
hbond:ILE:123    0
Name: 26, dtype: object

>  <hydroph_interaction:VAL:124>  (27) 
hydroph_interaction:VAL:124    0
hydroph_interaction:VAL:124    0
Name: 26, dtype: object

>  <hbond:VAL:124>  (27) 
hbond:VAL:124    0
hbond:VAL:124    0
Name: 26, dtype: object

>  <halogenbond:VAL:124>  (27) 
halogenbond:VAL:124    0
halogenbond:VAL:124    0
Name: 26, dtype: object

>  <hbond:SER:125>  (27) 
hbond:SER:125    0
hbond:SER:125    0
Name: 26, dtype: object

>  <halogenbond:SER:125>  (27) 
halogenbond:SER:125    0
halogenbond:SER:125    0
Name: 26, dtype: object

>  <hydroph_interaction:THR:126>  (27) 
hydroph_interaction:THR:126    0
hydroph_interaction:THR:126    0
Name: 26, dtype: object

>  <hbond:THR:126>  (27) 
hbond:THR:126    0
hbond:THR:126    0
Name: 26, dtype: object

>  <halogenbond:THR:126>  (27) 
halogenbond:THR:126    0
halogenbond:THR:126    0
Name: 26, dtype: object

>  <hbond:GLY:127>  (27) 
hbond:GLY:127    1
hbond:GLY:127    1
Name: 26, dtype: object

>  <halogenbond:GLY:127>  (27) 
halogenbond:GLY:127    0
halogenbond:GLY:127    0
Name: 26, dtype: object

>  <hydroph_interaction:GLY:127>  (27) 
hydroph_interaction:GLY:127    0
hydroph_interaction:GLY:127    0
Name: 26, dtype: object

>  <hbond:GLY:128>  (27) 
hbond:GLY:128    0
hbond:GLY:128    0
Name: 26, dtype: object

>  <halogenbond:GLY:128>  (27) 
halogenbond:GLY:128    0
halogenbond:GLY:128    0
Name: 26, dtype: object

>  <hydroph_interaction:GLY:128>  (27) 
hydroph_interaction:GLY:128    0
hydroph_interaction:GLY:128    0
Name: 26, dtype: object

>  <hbond:ASN:129>  (27) 
hbond:ASN:129    0
hbond:ASN:129    0
Name: 26, dtype: object

>  <hydroph_interaction:ASN:129>  (27) 
hydroph_interaction:ASN:129    0
hydroph_interaction:ASN:129    0
Name: 26, dtype: object

>  <halogenbond:ASN:129>  (27) 
halogenbond:ASN:129    0
halogenbond:ASN:129    0
Name: 26, dtype: object

>  <hbond:GLY:130>  (27) 
hbond:GLY:130    0
hbond:GLY:130    0
Name: 26, dtype: object

>  <hydroph_interaction:LEU:131>  (27) 
hydroph_interaction:LEU:131    0
hydroph_interaction:LEU:131    0
Name: 26, dtype: object

>  <hbond:LEU:131>  (27) 
hbond:LEU:131    0
hbond:LEU:131    0
Name: 26, dtype: object

>  <halogenbond:LEU:131>  (27) 
halogenbond:LEU:131    0
halogenbond:LEU:131    0
Name: 26, dtype: object

>  <hydroph_interaction:VAL:132>  (27) 
hydroph_interaction:VAL:132    0
hydroph_interaction:VAL:132    0
Name: 26, dtype: object

>  <hbond:VAL:132>  (27) 
hbond:VAL:132    0
hbond:VAL:132    0
Name: 26, dtype: object

>  <hbond:GLY:133>  (27) 
hbond:GLY:133    0
hbond:GLY:133    0
Name: 26, dtype: object

>  <halogenbond:GLY:133>  (27) 
halogenbond:GLY:133    0
halogenbond:GLY:133    0
Name: 26, dtype: object

>  <hydroph_interaction:PHE:134>  (27) 
hydroph_interaction:PHE:134    0
hydroph_interaction:PHE:134    0
Name: 26, dtype: object

>  <hbond:PHE:134>  (27) 
hbond:PHE:134    0
hbond:PHE:134    0
Name: 26, dtype: object

>  <pistack:PHE:134>  (27) 
pistack:PHE:134    0
pistack:PHE:134    0
Name: 26, dtype: object

>  <pication:PHE:134>  (27) 
pication:PHE:134    0
pication:PHE:134    0
Name: 26, dtype: object

>  <hydroph_interaction:ALA:135>  (27) 
hydroph_interaction:ALA:135    0
hydroph_interaction:ALA:135    0
Name: 26, dtype: object

>  <hbond:ALA:135>  (27) 
hbond:ALA:135    0
hbond:ALA:135    0
Name: 26, dtype: object

$$$$
PV_004088162110
     RDKit          3D

 49 50  0  0  0  0  0  0  0  0999 V2000
    3.2880   12.8070   17.4770 C   0  0  0  0  0  0  0  0  0  0  0  0
    2.2200   13.5590   18.0790 N   0  0  0  0  0  0  0  0  0  0  0  0
    1.3390   12.9850   18.9670 C   0  0  0  0  0  0  0  0  0  0  0  0
    0.1220   12.9770   18.8350 O   0  0  0  0  0  0  0  0  0  0  0  0
    1.9940   12.4060   20.0310 N   0  0  0  0  0  0  0  0  0  0  0  0
    1.7390   12.8010   21.4140 C   0  0  0  0  0  0  0  0  0  0  0  0
    2.1500   14.2600   21.6490 C   0  0  0  0  0  0  0  0  0  0  0  0
    2.0340   15.0320   20.6920 O   0  0  0  0  0  0  0  0  0  0  0  0
    2.6370   14.5590   22.9500 N   0  0  0  0  0  0  0  0  0  0  0  0
    4.0300   14.6050   23.2220 C   0  0  0  0  0  0  0  0  0  0  0  0
    4.8900   15.1340   22.2830 C   0  0  0  0  0  0  0  0  0  0  0  0
    6.2510   15.1760   22.4800 C   0  0  0  0  0  0  0  0  0  0  0  0
    6.8020   14.6680   23.6370 C   0  0  0  0  0  0  0  0  0  0  0  0
    5.9910   14.1150   24.6190 C   0  0  0  0  0  0  0  0  0  0  0  0
    6.5280   13.5380   25.7850 N   0  0  0  0  0  0  0  0  0  0  0  0
    7.0320   12.2330   25.7440 C   0  0  0  0  0  0  0  0  0  0  0  0
    6.8450   11.3470   26.5700 O   0  0  0  0  0  0  0  0  0  0  0  0
    7.8920   11.9780   24.4920 C   0  0  0  0  0  0  0  0  0  0  0  0
    8.8720   13.1080   24.3100 C   0  0  0  0  0  0  0  0  0  0  0  0
    9.3260   13.2100   22.9120 C   0  0  0  0  0  0  0  0  0  0  0  0
   10.4540   11.8450   22.6380 S   0  0  0  0  0  0  0  0  0  0  0  0
    9.7440   10.3710   23.4470 C   0  0  0  0  0  0  0  0  0  0  0  0
    9.7650    9.2370   22.4710 C   0  0  0  0  0  0  0  0  0  0  0  0
    8.5310   10.5760   24.4020 C   0  0  0  0  0  0  0  0  0  0  0  0
    4.5850   14.1000   24.4280 C   0  0  0  0  0  0  0  0  0  0  0  0
    2.8670   11.8870   17.0800 H   0  0  0  0  0  0  0  0  0  0  0  0
    4.0540   12.5720   18.2200 H   0  0  0  0  0  0  0  0  0  0  0  0
    3.7200   13.4020   16.6670 H   0  0  0  0  0  0  0  0  0  0  0  0
    1.8930   14.3830   17.5680 H   0  0  0  0  0  0  0  0  0  0  0  0
    2.3110   11.4520   19.9010 H   0  0  0  0  0  0  0  0  0  0  0  0
    2.3150   12.1370   22.0590 H   0  0  0  0  0  0  0  0  0  0  0  0
    0.6730   12.6850   21.6350 H   0  0  0  0  0  0  0  0  0  0  0  0
    2.1000   15.2680   23.4650 H   0  0  0  0  0  0  0  0  0  0  0  0
    4.5080   15.5290   21.3580 H   0  0  0  0  0  0  0  0  0  0  0  0
    6.8920   15.6030   21.7200 H   0  0  0  0  0  0  0  0  0  0  0  0
    7.8790   14.7130   23.7350 H   0  0  0  0  0  0  0  0  0  0  0  0
    6.1000   13.8350   26.6500 H   0  0  0  0  0  0  0  0  0  0  0  0
    7.2010   12.0860   23.6660 H   0  0  0  0  0  0  0  0  0  0  0  0
    9.7640   12.8930   24.8830 H   0  0  0  0  0  0  0  0  0  0  0  0
    8.4890   14.0670   24.6770 H   0  0  0  0  0  0  0  0  0  0  0  0
    8.4950   13.1710   22.2080 H   0  0  0  0  0  0  0  0  0  0  0  0
    9.8660   14.1470   22.7430 H   0  0  0  0  0  0  0  0  0  0  0  0
   10.5110    9.9770   24.0590 H   0  0  0  0  0  0  0  0  0  0  0  0
   10.5040    8.5040   22.8070 H   0  0  0  0  0  0  0  0  0  0  0  0
    8.8000    8.7470   22.4140 H   0  0  0  0  0  0  0  0  0  0  0  0
   10.0820    9.5460   21.4810 H   0  0  0  0  0  0  0  0  0  0  0  0
    8.8440   10.3380   25.3890 H   0  0  0  0  0  0  0  0  0  0  0  0
    7.7880    9.8250   24.2540 H   0  0  0  0  0  0  0  0  0  0  0  0
    3.9370   13.6780   25.1890 H   0  0  0  0  0  0  0  0  0  0  0  0
  1  2  1  0
  2  3  1  0
  3  4  2  0
  3  5  1  0
  5  6  1  0
  6  7  1  0
  7  8  2  0
  7  9  1  0
  9 10  1  0
 10 11  2  0
 11 12  1  0
 12 13  2  0
 13 14  1  0
 14 15  1  0
 15 16  1  0
 16 17  2  0
 16 18  1  0
 18 19  1  0
 19 20  1  0
 20 21  1  0
 21 22  1  0
 22 23  1  0
 22 24  1  0
 14 25  2  0
 25 10  1  0
 24 18  1  0
  1 26  1  0
  1 27  1  0
  1 28  1  0
  2 29  1  0
  5 30  1  0
  6 31  1  0
  6 32  1  0
  9 33  1  0
 11 34  1  0
 12 35  1  0
 13 36  1  0
 15 37  1  0
 18 38  1  0
 19 39  1  0
 19 40  1  0
 20 41  1  0
 20 42  1  0
 22 43  1  0
 23 44  1  0
 23 45  1  0
 23 46  1  0
 24 47  1  0
 24 48  1  0
 25 49  1  0
A    1
 C1 
A    2
 N1 
A    3
 C2 
A    4
 O1 
A    5
 N2 
A    6
 C3 
A    7
 C4 
A    8
 O2 
A    9
 N3 
A   10
 C5 
A   11
 C6 
A   12
 C7 
A   13
 C8 
A   14
 C9 
A   15
 N4 
A   16
 C10
A   17
 O3 
A   18
 C11
A   19
 C12
A   20
 C13
A   21
 S1 
A   22
 C14
A   23
 C15
A   24
 C16
A   25
 C17
A   26
 H1 
A   27
 H2 
A   28
 H3 
A   29
 H4 
A   30
 H5 
A   31
 H6 
A   32
 H7 
A   33
 H8 
A   34
 H9 
A   35
 H10
A   36
 H11
A   37
 H12
A   38
 H13
A   39
 H14
A   40
 H15
A   41
 H16
A   42
 H17
A   43
 H18
A   44
 H19
A   45
 H20
A   46
 H21
A   47
 H22
A   48
 H23
A   49
 H24
M  END
>  <ref_pdb>  (28) 
x0310_0A

>  <ref_mols>  (28) 
x0554_0A,x0739_0A

>  <original SMILES>  (28) 
CNC(=O)NCC(=O)Nc1cccc(NC(=O)C2CCSC(C)C2)c1

>  <rationale>  (28) 
info hbond:G127+E85+F83; hydroph_interaction:P107+V124+V84+E85; 

>  <intxn_cluster>  (28) 
101

>  <intxn_cluster_rank>  (28) 
6

>  <N_interactions>  (28) 
8

>  <∆∆G>  (28) 
-7.37463

>  <$/mg>  (28) 
244.5

>  <comRMSD>  (28) 
0.976309

>  <N_rotatable_bonds>  (28) 
7

>  <N_analogues_07>  (28) 
0

>  <deep_P1_sidechain>  (28) 
True

>  <farthest_distance_to_substrate>  (28) 
3.584839

>  <hbond:SER:7>  (28) 
hbond:SER:7    0
hbond:SER:7    0
Name: 27, dtype: object

>  <halogenbond:SER:7>  (28) 
halogenbond:SER:7    0
halogenbond:SER:7    0
Name: 27, dtype: object

>  <hbond:GLY:8>  (28) 
hbond:GLY:8    0
hbond:GLY:8    0
Name: 27, dtype: object

>  <hydroph_interaction:ASN:19>  (28) 
hydroph_interaction:ASN:19    0
hydroph_interaction:ASN:19    0
Name: 27, dtype: object

>  <hbond:ASN:19>  (28) 
hbond:ASN:19    0
hbond:ASN:19    0
Name: 27, dtype: object

>  <halogenbond:ASN:19>  (28) 
halogenbond:ASN:19    0
halogenbond:ASN:19    0
Name: 27, dtype: object

>  <hbond:ARG:20>  (28) 
hbond:ARG:20    0
hbond:ARG:20    0
Name: 27, dtype: object

>  <hydroph_interaction:ARG:20>  (28) 
hydroph_interaction:ARG:20    0
hydroph_interaction:ARG:20    0
Name: 27, dtype: object

>  <saltbridge:ARG:20>  (28) 
saltbridge:ARG:20    0
saltbridge:ARG:20    0
Name: 27, dtype: object

>  <halogenbond:ARG:20>  (28) 
halogenbond:ARG:20    0
halogenbond:ARG:20    0
Name: 27, dtype: object

>  <pication:ARG:20>  (28) 
pication:ARG:20    0
pication:ARG:20    0
Name: 27, dtype: object

>  <hbond:HIS:21>  (28) 
hbond:HIS:21    0
hbond:HIS:21    0
Name: 27, dtype: object

>  <hydroph_interaction:HIS:21>  (28) 
hydroph_interaction:HIS:21    0
hydroph_interaction:HIS:21    0
Name: 27, dtype: object

>  <saltbridge:HIS:21>  (28) 
saltbridge:HIS:21    0
saltbridge:HIS:21    0
Name: 27, dtype: object

>  <pistack:HIS:21>  (28) 
pistack:HIS:21    0
pistack:HIS:21    0
Name: 27, dtype: object

>  <pication:HIS:21>  (28) 
pication:HIS:21    0
pication:HIS:21    0
Name: 27, dtype: object

>  <halogenbond:HIS:21>  (28) 
halogenbond:HIS:21    0
halogenbond:HIS:21    0
Name: 27, dtype: object

>  <hydroph_interaction:LEU:22>  (28) 
hydroph_interaction:LEU:22    0
hydroph_interaction:LEU:22    0
Name: 27, dtype: object

>  <hbond:LEU:22>  (28) 
hbond:LEU:22    0
hbond:LEU:22    0
Name: 27, dtype: object

>  <hydroph_interaction:TRP:28>  (28) 
hydroph_interaction:TRP:28    0
hydroph_interaction:TRP:28    0
Name: 27, dtype: object

>  <hbond:SER:36>  (28) 
hbond:SER:36    0
hbond:SER:36    0
Name: 27, dtype: object

>  <halogenbond:SER:36>  (28) 
halogenbond:SER:36    0
halogenbond:SER:36    0
Name: 27, dtype: object

>  <hbond:ARG:38>  (28) 
hbond:ARG:38    0
hbond:ARG:38    0
Name: 27, dtype: object

>  <halogenbond:ARG:38>  (28) 
halogenbond:ARG:38    0
halogenbond:ARG:38    0
Name: 27, dtype: object

>  <hbond:ASP:39>  (28) 
hbond:ASP:39    0
hbond:ASP:39    0
Name: 27, dtype: object

>  <saltbridge:ASP:39>  (28) 
saltbridge:ASP:39    0
saltbridge:ASP:39    0
Name: 27, dtype: object

>  <hydroph_interaction:ASP:39>  (28) 
hydroph_interaction:ASP:39    0
hydroph_interaction:ASP:39    0
Name: 27, dtype: object

>  <halogenbond:ASP:39>  (28) 
halogenbond:ASP:39    0
halogenbond:ASP:39    0
Name: 27, dtype: object

>  <hydroph_interaction:LEU:40>  (28) 
hydroph_interaction:LEU:40    0
hydroph_interaction:LEU:40    0
Name: 27, dtype: object

>  <hydroph_interaction:TYR:63>  (28) 
hydroph_interaction:TYR:63    0
hydroph_interaction:TYR:63    0
Name: 27, dtype: object

>  <pistack:TYR:63>  (28) 
pistack:TYR:63    0
pistack:TYR:63    0
Name: 27, dtype: object

>  <hbond:TYR:63>  (28) 
hbond:TYR:63    0
hbond:TYR:63    0
Name: 27, dtype: object

>  <hbond:TYR:64>  (28) 
hbond:TYR:64    0
hbond:TYR:64    0
Name: 27, dtype: object

>  <halogenbond:TYR:64>  (28) 
halogenbond:TYR:64    0
halogenbond:TYR:64    0
Name: 27, dtype: object

>  <hydroph_interaction:TYR:64>  (28) 
hydroph_interaction:TYR:64    0
hydroph_interaction:TYR:64    0
Name: 27, dtype: object

>  <hbond:CYS:65>  (28) 
hbond:CYS:65    0
hbond:CYS:65    0
Name: 27, dtype: object

>  <halogenbond:CYS:65>  (28) 
halogenbond:CYS:65    0
halogenbond:CYS:65    0
Name: 27, dtype: object

>  <hbond:SER:66>  (28) 
hbond:SER:66    0
hbond:SER:66    0
Name: 27, dtype: object

>  <hbond:SER:67>  (28) 
hbond:SER:67    0
hbond:SER:67    0
Name: 27, dtype: object

>  <halogenbond:SER:67>  (28) 
halogenbond:SER:67    0
halogenbond:SER:67    0
Name: 27, dtype: object

>  <hydroph_interaction:ARG:68>  (28) 
hydroph_interaction:ARG:68    0
hydroph_interaction:ARG:68    0
Name: 27, dtype: object

>  <hbond:ARG:68>  (28) 
hbond:ARG:68    0
hbond:ARG:68    0
Name: 27, dtype: object

>  <saltbridge:ARG:68>  (28) 
saltbridge:ARG:68    0
saltbridge:ARG:68    0
Name: 27, dtype: object

>  <pication:ARG:68>  (28) 
pication:ARG:68    0
pication:ARG:68    0
Name: 27, dtype: object

>  <hydroph_interaction:TYR:72>  (28) 
hydroph_interaction:TYR:72    0
hydroph_interaction:TYR:72    0
Name: 27, dtype: object

>  <hydroph_interaction:VAL:74>  (28) 
hydroph_interaction:VAL:74    0
hydroph_interaction:VAL:74    0
Name: 27, dtype: object

>  <hydroph_interaction:PHE:76>  (28) 
hydroph_interaction:PHE:76    0
hydroph_interaction:PHE:76    0
Name: 27, dtype: object

>  <hbond:SER:77>  (28) 
hbond:SER:77    0
hbond:SER:77    0
Name: 27, dtype: object

>  <hbond:SER:80>  (28) 
hbond:SER:80    0
hbond:SER:80    0
Name: 27, dtype: object

>  <hbond:LEU:81>  (28) 
hbond:LEU:81    0
hbond:LEU:81    0
Name: 27, dtype: object

>  <halogenbond:LEU:81>  (28) 
halogenbond:LEU:81    0
halogenbond:LEU:81    0
Name: 27, dtype: object

>  <hydroph_interaction:LEU:81>  (28) 
hydroph_interaction:LEU:81    0
hydroph_interaction:LEU:81    0
Name: 27, dtype: object

>  <hydroph_interaction:ILE:82>  (28) 
hydroph_interaction:ILE:82    0
hydroph_interaction:ILE:82    0
Name: 27, dtype: object

>  <hbond:ILE:82>  (28) 
hbond:ILE:82    0
hbond:ILE:82    0
Name: 27, dtype: object

>  <hydroph_interaction:PHE:83>  (28) 
hydroph_interaction:PHE:83    0
hydroph_interaction:PHE:83    0
Name: 27, dtype: object

>  <hbond:PHE:83>  (28) 
hbond:PHE:83    1
hbond:PHE:83    1
Name: 27, dtype: object

>  <halogenbond:PHE:83>  (28) 
halogenbond:PHE:83    0
halogenbond:PHE:83    0
Name: 27, dtype: object

>  <pistack:PHE:83>  (28) 
pistack:PHE:83    0
pistack:PHE:83    0
Name: 27, dtype: object

>  <hydroph_interaction:VAL:84>  (28) 
hydroph_interaction:VAL:84    1
hydroph_interaction:VAL:84    1
Name: 27, dtype: object

>  <hbond:VAL:84>  (28) 
hbond:VAL:84    0
hbond:VAL:84    0
Name: 27, dtype: object

>  <halogenbond:VAL:84>  (28) 
halogenbond:VAL:84    0
halogenbond:VAL:84    0
Name: 27, dtype: object

>  <hydroph_interaction:GLU:85>  (28) 
hydroph_interaction:GLU:85    1
hydroph_interaction:GLU:85    1
Name: 27, dtype: object

>  <hbond:GLU:85>  (28) 
hbond:GLU:85    2
hbond:GLU:85    2
Name: 27, dtype: object

>  <saltbridge:GLU:85>  (28) 
saltbridge:GLU:85    0
saltbridge:GLU:85    0
Name: 27, dtype: object

>  <halogenbond:GLU:85>  (28) 
halogenbond:GLU:85    0
halogenbond:GLU:85    0
Name: 27, dtype: object

>  <hbond:ALA:86>  (28) 
hbond:ALA:86    0
hbond:ALA:86    0
Name: 27, dtype: object

>  <halogenbond:ALA:86>  (28) 
halogenbond:ALA:86    0
halogenbond:ALA:86    0
Name: 27, dtype: object

>  <hydroph_interaction:ALA:86>  (28) 
hydroph_interaction:ALA:86    0
hydroph_interaction:ALA:86    0
Name: 27, dtype: object

>  <hbond:SER:87>  (28) 
hbond:SER:87    0
hbond:SER:87    0
Name: 27, dtype: object

>  <halogenbond:SER:87>  (28) 
halogenbond:SER:87    0
halogenbond:SER:87    0
Name: 27, dtype: object

>  <hbond:GLU:88>  (28) 
hbond:GLU:88    0
hbond:GLU:88    0
Name: 27, dtype: object

>  <hydroph_interaction:GLU:88>  (28) 
hydroph_interaction:GLU:88    0
hydroph_interaction:GLU:88    0
Name: 27, dtype: object

>  <halogenbond:GLU:88>  (28) 
halogenbond:GLU:88    0
halogenbond:GLU:88    0
Name: 27, dtype: object

>  <saltbridge:GLU:88>  (28) 
saltbridge:GLU:88    0
saltbridge:GLU:88    0
Name: 27, dtype: object

>  <hydroph_interaction:TYR:89>  (28) 
hydroph_interaction:TYR:89    0
hydroph_interaction:TYR:89    0
Name: 27, dtype: object

>  <pistack:TYR:89>  (28) 
pistack:TYR:89    0
pistack:TYR:89    0
Name: 27, dtype: object

>  <hbond:TYR:89>  (28) 
hbond:TYR:89    0
hbond:TYR:89    0
Name: 27, dtype: object

>  <halogenbond:TYR:89>  (28) 
halogenbond:TYR:89    0
halogenbond:TYR:89    0
Name: 27, dtype: object

>  <hbond:TYR:90>  (28) 
hbond:TYR:90    0
hbond:TYR:90    0
Name: 27, dtype: object

>  <hydroph_interaction:TYR:90>  (28) 
hydroph_interaction:TYR:90    0
hydroph_interaction:TYR:90    0
Name: 27, dtype: object

>  <pistack:TYR:90>  (28) 
pistack:TYR:90    0
pistack:TYR:90    0
Name: 27, dtype: object

>  <halogenbond:TYR:90>  (28) 
halogenbond:TYR:90    0
halogenbond:TYR:90    0
Name: 27, dtype: object

>  <pication:TYR:90>  (28) 
pication:TYR:90    0
pication:TYR:90    0
Name: 27, dtype: object

>  <hydroph_interaction:PRO:91>  (28) 
hydroph_interaction:PRO:91    0
hydroph_interaction:PRO:91    0
Name: 27, dtype: object

>  <halogenbond:PRO:91>  (28) 
halogenbond:PRO:91    0
halogenbond:PRO:91    0
Name: 27, dtype: object

>  <hbond:PRO:91>  (28) 
hbond:PRO:91    0
hbond:PRO:91    0
Name: 27, dtype: object

>  <hydroph_interaction:ALA:92>  (28) 
hydroph_interaction:ALA:92    0
hydroph_interaction:ALA:92    0
Name: 27, dtype: object

>  <hbond:ARG:93>  (28) 
hbond:ARG:93    0
hbond:ARG:93    0
Name: 27, dtype: object

>  <pication:ARG:93>  (28) 
pication:ARG:93    0
pication:ARG:93    0
Name: 27, dtype: object

>  <saltbridge:ARG:93>  (28) 
saltbridge:ARG:93    0
saltbridge:ARG:93    0
Name: 27, dtype: object

>  <hydroph_interaction:ARG:93>  (28) 
hydroph_interaction:ARG:93    0
hydroph_interaction:ARG:93    0
Name: 27, dtype: object

>  <halogenbond:ARG:93>  (28) 
halogenbond:ARG:93    0
halogenbond:ARG:93    0
Name: 27, dtype: object

>  <hydroph_interaction:TYR:94>  (28) 
hydroph_interaction:TYR:94    0
hydroph_interaction:TYR:94    0
Name: 27, dtype: object

>  <hbond:TYR:94>  (28) 
hbond:TYR:94    0
hbond:TYR:94    0
Name: 27, dtype: object

>  <halogenbond:GLN:95>  (28) 
halogenbond:GLN:95    0
halogenbond:GLN:95    0
Name: 27, dtype: object

>  <hbond:GLN:95>  (28) 
hbond:GLN:95    0
hbond:GLN:95    0
Name: 27, dtype: object

>  <hydroph_interaction:GLN:95>  (28) 
hydroph_interaction:GLN:95    0
hydroph_interaction:GLN:95    0
Name: 27, dtype: object

>  <hbond:SER:96>  (28) 
hbond:SER:96    0
hbond:SER:96    0
Name: 27, dtype: object

>  <hydroph_interaction:LEU:98>  (28) 
hydroph_interaction:LEU:98    0
hydroph_interaction:LEU:98    0
Name: 27, dtype: object

>  <hbond:LEU:98>  (28) 
hbond:LEU:98    0
hbond:LEU:98    0
Name: 27, dtype: object

>  <hbond:MET:99>  (28) 
hbond:MET:99    0
hbond:MET:99    0
Name: 27, dtype: object

>  <hydroph_interaction:MET:99>  (28) 
hydroph_interaction:MET:99    0
hydroph_interaction:MET:99    0
Name: 27, dtype: object

>  <halogenbond:MET:99>  (28) 
halogenbond:MET:99    0
halogenbond:MET:99    0
Name: 27, dtype: object

>  <hydroph_interaction:LEU:100>  (28) 
hydroph_interaction:LEU:100    0
hydroph_interaction:LEU:100    0
Name: 27, dtype: object

>  <hbond:LEU:100>  (28) 
hbond:LEU:100    0
hbond:LEU:100    0
Name: 27, dtype: object

>  <hbond:ALA:101>  (28) 
hbond:ALA:101    0
hbond:ALA:101    0
Name: 27, dtype: object

>  <hydroph_interaction:ALA:101>  (28) 
hydroph_interaction:ALA:101    0
hydroph_interaction:ALA:101    0
Name: 27, dtype: object

>  <hydroph_interaction:VAL:102>  (28) 
hydroph_interaction:VAL:102    0
hydroph_interaction:VAL:102    0
Name: 27, dtype: object

>  <hbond:VAL:102>  (28) 
hbond:VAL:102    0
hbond:VAL:102    0
Name: 27, dtype: object

>  <hbond:GLY:103>  (28) 
hbond:GLY:103    0
hbond:GLY:103    0
Name: 27, dtype: object

>  <halogenbond:GLY:103>  (28) 
halogenbond:GLY:103    0
halogenbond:GLY:103    0
Name: 27, dtype: object

>  <hydroph_interaction:HIS:104>  (28) 
hydroph_interaction:HIS:104    0
hydroph_interaction:HIS:104    0
Name: 27, dtype: object

>  <hbond:HIS:104>  (28) 
hbond:HIS:104    0
hbond:HIS:104    0
Name: 27, dtype: object

>  <saltbridge:HIS:104>  (28) 
saltbridge:HIS:104    0
saltbridge:HIS:104    0
Name: 27, dtype: object

>  <pication:HIS:104>  (28) 
pication:HIS:104    0
pication:HIS:104    0
Name: 27, dtype: object

>  <pistack:HIS:104>  (28) 
pistack:HIS:104    0
pistack:HIS:104    0
Name: 27, dtype: object

>  <halogenbond:HIS:104>  (28) 
halogenbond:HIS:104    0
halogenbond:HIS:104    0
Name: 27, dtype: object

>  <hbond:SER:105>  (28) 
hbond:SER:105    0
hbond:SER:105    0
Name: 27, dtype: object

>  <halogenbond:SER:105>  (28) 
halogenbond:SER:105    0
halogenbond:SER:105    0
Name: 27, dtype: object

>  <hbond:GLU:106>  (28) 
hbond:GLU:106    0
hbond:GLU:106    0
Name: 27, dtype: object

>  <hydroph_interaction:GLU:106>  (28) 
hydroph_interaction:GLU:106    0
hydroph_interaction:GLU:106    0
Name: 27, dtype: object

>  <saltbridge:GLU:106>  (28) 
saltbridge:GLU:106    0
saltbridge:GLU:106    0
Name: 27, dtype: object

>  <halogenbond:GLU:106>  (28) 
halogenbond:GLU:106    0
halogenbond:GLU:106    0
Name: 27, dtype: object

>  <hydroph_interaction:PRO:107>  (28) 
hydroph_interaction:PRO:107    1
hydroph_interaction:PRO:107    1
Name: 27, dtype: object

>  <hbond:PRO:107>  (28) 
hbond:PRO:107    0
hbond:PRO:107    0
Name: 27, dtype: object

>  <halogenbond:PRO:107>  (28) 
halogenbond:PRO:107    0
halogenbond:PRO:107    0
Name: 27, dtype: object

>  <hbond:GLY:108>  (28) 
hbond:GLY:108    0
hbond:GLY:108    0
Name: 27, dtype: object

>  <halogenbond:GLY:108>  (28) 
halogenbond:GLY:108    0
halogenbond:GLY:108    0
Name: 27, dtype: object

>  <hbond:ASP:109>  (28) 
hbond:ASP:109    0
hbond:ASP:109    0
Name: 27, dtype: object

>  <hydroph_interaction:ASP:109>  (28) 
hydroph_interaction:ASP:109    0
hydroph_interaction:ASP:109    0
Name: 27, dtype: object

>  <saltbridge:ASP:109>  (28) 
saltbridge:ASP:109    0
saltbridge:ASP:109    0
Name: 27, dtype: object

>  <hbond:CYS:110>  (28) 
hbond:CYS:110    0
hbond:CYS:110    0
Name: 27, dtype: object

>  <halogenbond:CYS:110>  (28) 
halogenbond:CYS:110    0
halogenbond:CYS:110    0
Name: 27, dtype: object

>  <hbond:GLY:111>  (28) 
hbond:GLY:111    0
hbond:GLY:111    0
Name: 27, dtype: object

>  <hbond:GLY:112>  (28) 
hbond:GLY:112    0
hbond:GLY:112    0
Name: 27, dtype: object

>  <hbond:ILE:113>  (28) 
hbond:ILE:113    0
hbond:ILE:113    0
Name: 27, dtype: object

>  <hydroph_interaction:LEU:114>  (28) 
hydroph_interaction:LEU:114    0
hydroph_interaction:LEU:114    0
Name: 27, dtype: object

>  <hbond:LEU:114>  (28) 
hbond:LEU:114    0
hbond:LEU:114    0
Name: 27, dtype: object

>  <hydroph_interaction:ILE:123>  (28) 
hydroph_interaction:ILE:123    0
hydroph_interaction:ILE:123    0
Name: 27, dtype: object

>  <hbond:ILE:123>  (28) 
hbond:ILE:123    0
hbond:ILE:123    0
Name: 27, dtype: object

>  <hydroph_interaction:VAL:124>  (28) 
hydroph_interaction:VAL:124    1
hydroph_interaction:VAL:124    1
Name: 27, dtype: object

>  <hbond:VAL:124>  (28) 
hbond:VAL:124    0
hbond:VAL:124    0
Name: 27, dtype: object

>  <halogenbond:VAL:124>  (28) 
halogenbond:VAL:124    0
halogenbond:VAL:124    0
Name: 27, dtype: object

>  <hbond:SER:125>  (28) 
hbond:SER:125    0
hbond:SER:125    0
Name: 27, dtype: object

>  <halogenbond:SER:125>  (28) 
halogenbond:SER:125    0
halogenbond:SER:125    0
Name: 27, dtype: object

>  <hydroph_interaction:THR:126>  (28) 
hydroph_interaction:THR:126    0
hydroph_interaction:THR:126    0
Name: 27, dtype: object

>  <hbond:THR:126>  (28) 
hbond:THR:126    0
hbond:THR:126    0
Name: 27, dtype: object

>  <halogenbond:THR:126>  (28) 
halogenbond:THR:126    0
halogenbond:THR:126    0
Name: 27, dtype: object

>  <hbond:GLY:127>  (28) 
hbond:GLY:127    1
hbond:GLY:127    1
Name: 27, dtype: object

>  <halogenbond:GLY:127>  (28) 
halogenbond:GLY:127    0
halogenbond:GLY:127    0
Name: 27, dtype: object

>  <hydroph_interaction:GLY:127>  (28) 
hydroph_interaction:GLY:127    0
hydroph_interaction:GLY:127    0
Name: 27, dtype: object

>  <hbond:GLY:128>  (28) 
hbond:GLY:128    0
hbond:GLY:128    0
Name: 27, dtype: object

>  <halogenbond:GLY:128>  (28) 
halogenbond:GLY:128    0
halogenbond:GLY:128    0
Name: 27, dtype: object

>  <hydroph_interaction:GLY:128>  (28) 
hydroph_interaction:GLY:128    0
hydroph_interaction:GLY:128    0
Name: 27, dtype: object

>  <hbond:ASN:129>  (28) 
hbond:ASN:129    0
hbond:ASN:129    0
Name: 27, dtype: object

>  <hydroph_interaction:ASN:129>  (28) 
hydroph_interaction:ASN:129    0
hydroph_interaction:ASN:129    0
Name: 27, dtype: object

>  <halogenbond:ASN:129>  (28) 
halogenbond:ASN:129    0
halogenbond:ASN:129    0
Name: 27, dtype: object

>  <hbond:GLY:130>  (28) 
hbond:GLY:130    0
hbond:GLY:130    0
Name: 27, dtype: object

>  <hydroph_interaction:LEU:131>  (28) 
hydroph_interaction:LEU:131    0
hydroph_interaction:LEU:131    0
Name: 27, dtype: object

>  <hbond:LEU:131>  (28) 
hbond:LEU:131    0
hbond:LEU:131    0
Name: 27, dtype: object

>  <halogenbond:LEU:131>  (28) 
halogenbond:LEU:131    0
halogenbond:LEU:131    0
Name: 27, dtype: object

>  <hydroph_interaction:VAL:132>  (28) 
hydroph_interaction:VAL:132    0
hydroph_interaction:VAL:132    0
Name: 27, dtype: object

>  <hbond:VAL:132>  (28) 
hbond:VAL:132    0
hbond:VAL:132    0
Name: 27, dtype: object

>  <hbond:GLY:133>  (28) 
hbond:GLY:133    0
hbond:GLY:133    0
Name: 27, dtype: object

>  <halogenbond:GLY:133>  (28) 
halogenbond:GLY:133    0
halogenbond:GLY:133    0
Name: 27, dtype: object

>  <hydroph_interaction:PHE:134>  (28) 
hydroph_interaction:PHE:134    0
hydroph_interaction:PHE:134    0
Name: 27, dtype: object

>  <hbond:PHE:134>  (28) 
hbond:PHE:134    0
hbond:PHE:134    0
Name: 27, dtype: object

>  <pistack:PHE:134>  (28) 
pistack:PHE:134    0
pistack:PHE:134    0
Name: 27, dtype: object

>  <pication:PHE:134>  (28) 
pication:PHE:134    0
pication:PHE:134    0
Name: 27, dtype: object

>  <hydroph_interaction:ALA:135>  (28) 
hydroph_interaction:ALA:135    0
hydroph_interaction:ALA:135    0
Name: 27, dtype: object

>  <hbond:ALA:135>  (28) 
hbond:ALA:135    0
hbond:ALA:135    0
Name: 27, dtype: object

$$$$
Z4254493835
     RDKit          3D

 33 34  0  0  0  0  0  0  0  0999 V2000
   10.3330    9.2690   22.6040 C   0  0  0  0  0  0  0  0  0  0  0  0
    9.5760   10.3310   23.3490 C   0  0  0  0  0  0  0  0  0  0  0  0
    8.5770    9.9070   24.1850 N   0  0  0  0  0  0  0  0  0  0  0  0
    8.0990   11.0630   24.6590 N   0  0  0  0  0  0  0  0  0  0  0  0
    7.0470   10.9560   25.5260 C   0  0  0  0  0  0  0  0  0  0  0  0
    8.7350   12.1930   24.1930 C   0  0  0  0  0  0  0  0  0  0  0  0
    8.3610   13.4760   24.5870 C   0  0  0  0  0  0  0  0  0  0  0  0
    9.7120   11.7300   23.3320 C   0  0  0  0  0  0  0  0  0  0  0  0
   10.6230   12.4150   22.6010 N   0  0  0  0  0  0  0  0  0  0  0  0
   10.7980   13.8560   22.6990 C   0  0  0  0  0  0  0  0  0  0  0  0
   11.5240   14.1520   23.8310 C   0  0  0  0  0  0  0  0  0  0  0  0
   12.3730   15.3830   23.6280 C   0  0  0  0  0  0  0  0  0  0  0  0
   12.3200   15.5960   22.1340 C   0  0  0  0  0  0  0  0  0  0  0  0
   11.7970   14.3990   21.6090 C   0  0  1  0  0  0  0  0  0  0  0  0
   12.8490   13.5610   21.4870 F   0  0  0  0  0  0  0  0  0  0  0  0
   10.9370    9.7460   21.8390 H   0  0  0  0  0  0  0  0  0  0  0  0
   10.9930    8.6850   23.2490 H   0  0  0  0  0  0  0  0  0  0  0  0
    9.6200    8.6180   22.1020 H   0  0  0  0  0  0  0  0  0  0  0  0
    6.3150   11.7470   25.3310 H   0  0  0  0  0  0  0  0  0  0  0  0
    6.5410    9.9990   25.3800 H   0  0  0  0  0  0  0  0  0  0  0  0
    7.3830   10.9930   26.5530 H   0  0  0  0  0  0  0  0  0  0  0  0
    9.2450   14.0880   24.7840 H   0  0  0  0  0  0  0  0  0  0  0  0
    7.7530   13.4500   25.5000 H   0  0  0  0  0  0  0  0  0  0  0  0
    7.7700   13.9720   23.8030 H   0  0  0  0  0  0  0  0  0  0  0  0
   10.7470   12.1200   21.6250 H   0  0  0  0  0  0  0  0  0  0  0  0
    9.8430   14.3430   22.5230 H   0  0  0  0  0  0  0  0  0  0  0  0
   12.1530   13.2940   24.0900 H   0  0  0  0  0  0  0  0  0  0  0  0
   10.8470   14.3120   24.6760 H   0  0  0  0  0  0  0  0  0  0  0  0
   13.3970   15.2040   23.9710 H   0  0  0  0  0  0  0  0  0  0  0  0
   11.9530   16.2310   24.1670 H   0  0  0  0  0  0  0  0  0  0  0  0
   13.3160   15.7500   21.7030 H   0  0  0  0  0  0  0  0  0  0  0  0
   11.7120   16.4640   21.8710 H   0  0  0  0  0  0  0  0  0  0  0  0
   11.3490   14.5480   20.6210 H   0  0  0  0  0  0  0  0  0  0  0  0
  1  2  1  0
  2  3  2  0
  3  4  1  0
  4  5  1  0
  4  6  1  0
  6  7  1  0
  6  8  2  0
  8  9  1  0
  9 10  1  0
 10 11  1  0
 11 12  1  0
 12 13  1  0
 13 14  1  0
 14 15  1  0
  8  2  1  0
 14 10  1  0
  1 16  1  0
  1 17  1  0
  1 18  1  0
  5 19  1  0
  5 20  1  0
  5 21  1  0
  7 22  1  0
  7 23  1  0
  7 24  1  0
  9 25  1  0
 10 26  1  0
 11 27  1  0
 11 28  1  0
 12 29  1  0
 12 30  1  0
 13 31  1  0
 13 32  1  0
 14 33  1  6
A    1
 C1 
A    2
 C2 
A    3
 N1 
A    4
 N2 
A    5
 C3 
A    6
 C4 
A    7
 C5 
A    8
 C6 
A    9
 N3 
A   10
 C7 
A   11
 C8 
A   12
 C9 
A   13
 C10
A   14
 C11
A   15
 F1 
A   16
 H1 
A   17
 H2 
A   18
 H3 
A   19
 H4 
A   20
 H5 
A   21
 H6 
A   22
 H7 
A   23
 H8 
A   24
 H9 
A   25
 H10
A   26
 H11
A   27
 H12
A   28
 H13
A   29
 H14
A   30
 H15
A   31
 H16
A   32
 H17
A   33
 H18
M  END
>  <ref_pdb>  (29) 
x0310_0A

>  <ref_mols>  (29) 
x0310_0A,x0451_0A,x0719_0A

>  <original SMILES>  (29) 
Cc1nn(C)c(C)c1NC1CCC[C@H]1F

>  <rationale>  (29) 
info halogenbond:C110; hbond:S125; hydroph_interaction:P107+V124; 

>  <intxn_cluster>  (29) 
106

>  <intxn_cluster_rank>  (29) 
6

>  <N_interactions>  (29) 
4

>  <∆∆G>  (29) 
-9.289851

>  <$/mg>  (29) 
0.0

>  <comRMSD>  (29) 
0.919069

>  <N_rotatable_bonds>  (29) 
5

>  <N_analogues_07>  (29) 
0

>  <deep_P1_sidechain>  (29) 
True

>  <farthest_distance_to_substrate>  (29) 
2.475209

>  <hbond:SER:7>  (29) 
hbond:SER:7    0
hbond:SER:7    0
Name: 28, dtype: object

>  <halogenbond:SER:7>  (29) 
halogenbond:SER:7    0
halogenbond:SER:7    0
Name: 28, dtype: object

>  <hbond:GLY:8>  (29) 
hbond:GLY:8    0
hbond:GLY:8    0
Name: 28, dtype: object

>  <hydroph_interaction:ASN:19>  (29) 
hydroph_interaction:ASN:19    0
hydroph_interaction:ASN:19    0
Name: 28, dtype: object

>  <hbond:ASN:19>  (29) 
hbond:ASN:19    0
hbond:ASN:19    0
Name: 28, dtype: object

>  <halogenbond:ASN:19>  (29) 
halogenbond:ASN:19    0
halogenbond:ASN:19    0
Name: 28, dtype: object

>  <hbond:ARG:20>  (29) 
hbond:ARG:20    0
hbond:ARG:20    0
Name: 28, dtype: object

>  <hydroph_interaction:ARG:20>  (29) 
hydroph_interaction:ARG:20    0
hydroph_interaction:ARG:20    0
Name: 28, dtype: object

>  <saltbridge:ARG:20>  (29) 
saltbridge:ARG:20    0
saltbridge:ARG:20    0
Name: 28, dtype: object

>  <halogenbond:ARG:20>  (29) 
halogenbond:ARG:20    0
halogenbond:ARG:20    0
Name: 28, dtype: object

>  <pication:ARG:20>  (29) 
pication:ARG:20    0
pication:ARG:20    0
Name: 28, dtype: object

>  <hbond:HIS:21>  (29) 
hbond:HIS:21    0
hbond:HIS:21    0
Name: 28, dtype: object

>  <hydroph_interaction:HIS:21>  (29) 
hydroph_interaction:HIS:21    0
hydroph_interaction:HIS:21    0
Name: 28, dtype: object

>  <saltbridge:HIS:21>  (29) 
saltbridge:HIS:21    0
saltbridge:HIS:21    0
Name: 28, dtype: object

>  <pistack:HIS:21>  (29) 
pistack:HIS:21    0
pistack:HIS:21    0
Name: 28, dtype: object

>  <pication:HIS:21>  (29) 
pication:HIS:21    0
pication:HIS:21    0
Name: 28, dtype: object

>  <halogenbond:HIS:21>  (29) 
halogenbond:HIS:21    0
halogenbond:HIS:21    0
Name: 28, dtype: object

>  <hydroph_interaction:LEU:22>  (29) 
hydroph_interaction:LEU:22    0
hydroph_interaction:LEU:22    0
Name: 28, dtype: object

>  <hbond:LEU:22>  (29) 
hbond:LEU:22    0
hbond:LEU:22    0
Name: 28, dtype: object

>  <hydroph_interaction:TRP:28>  (29) 
hydroph_interaction:TRP:28    0
hydroph_interaction:TRP:28    0
Name: 28, dtype: object

>  <hbond:SER:36>  (29) 
hbond:SER:36    0
hbond:SER:36    0
Name: 28, dtype: object

>  <halogenbond:SER:36>  (29) 
halogenbond:SER:36    0
halogenbond:SER:36    0
Name: 28, dtype: object

>  <hbond:ARG:38>  (29) 
hbond:ARG:38    0
hbond:ARG:38    0
Name: 28, dtype: object

>  <halogenbond:ARG:38>  (29) 
halogenbond:ARG:38    0
halogenbond:ARG:38    0
Name: 28, dtype: object

>  <hbond:ASP:39>  (29) 
hbond:ASP:39    0
hbond:ASP:39    0
Name: 28, dtype: object

>  <saltbridge:ASP:39>  (29) 
saltbridge:ASP:39    0
saltbridge:ASP:39    0
Name: 28, dtype: object

>  <hydroph_interaction:ASP:39>  (29) 
hydroph_interaction:ASP:39    0
hydroph_interaction:ASP:39    0
Name: 28, dtype: object

>  <halogenbond:ASP:39>  (29) 
halogenbond:ASP:39    0
halogenbond:ASP:39    0
Name: 28, dtype: object

>  <hydroph_interaction:LEU:40>  (29) 
hydroph_interaction:LEU:40    0
hydroph_interaction:LEU:40    0
Name: 28, dtype: object

>  <hydroph_interaction:TYR:63>  (29) 
hydroph_interaction:TYR:63    0
hydroph_interaction:TYR:63    0
Name: 28, dtype: object

>  <pistack:TYR:63>  (29) 
pistack:TYR:63    0
pistack:TYR:63    0
Name: 28, dtype: object

>  <hbond:TYR:63>  (29) 
hbond:TYR:63    0
hbond:TYR:63    0
Name: 28, dtype: object

>  <hbond:TYR:64>  (29) 
hbond:TYR:64    0
hbond:TYR:64    0
Name: 28, dtype: object

>  <halogenbond:TYR:64>  (29) 
halogenbond:TYR:64    0
halogenbond:TYR:64    0
Name: 28, dtype: object

>  <hydroph_interaction:TYR:64>  (29) 
hydroph_interaction:TYR:64    0
hydroph_interaction:TYR:64    0
Name: 28, dtype: object

>  <hbond:CYS:65>  (29) 
hbond:CYS:65    0
hbond:CYS:65    0
Name: 28, dtype: object

>  <halogenbond:CYS:65>  (29) 
halogenbond:CYS:65    0
halogenbond:CYS:65    0
Name: 28, dtype: object

>  <hbond:SER:66>  (29) 
hbond:SER:66    0
hbond:SER:66    0
Name: 28, dtype: object

>  <hbond:SER:67>  (29) 
hbond:SER:67    0
hbond:SER:67    0
Name: 28, dtype: object

>  <halogenbond:SER:67>  (29) 
halogenbond:SER:67    0
halogenbond:SER:67    0
Name: 28, dtype: object

>  <hydroph_interaction:ARG:68>  (29) 
hydroph_interaction:ARG:68    0
hydroph_interaction:ARG:68    0
Name: 28, dtype: object

>  <hbond:ARG:68>  (29) 
hbond:ARG:68    0
hbond:ARG:68    0
Name: 28, dtype: object

>  <saltbridge:ARG:68>  (29) 
saltbridge:ARG:68    0
saltbridge:ARG:68    0
Name: 28, dtype: object

>  <pication:ARG:68>  (29) 
pication:ARG:68    0
pication:ARG:68    0
Name: 28, dtype: object

>  <hydroph_interaction:TYR:72>  (29) 
hydroph_interaction:TYR:72    0
hydroph_interaction:TYR:72    0
Name: 28, dtype: object

>  <hydroph_interaction:VAL:74>  (29) 
hydroph_interaction:VAL:74    0
hydroph_interaction:VAL:74    0
Name: 28, dtype: object

>  <hydroph_interaction:PHE:76>  (29) 
hydroph_interaction:PHE:76    0
hydroph_interaction:PHE:76    0
Name: 28, dtype: object

>  <hbond:SER:77>  (29) 
hbond:SER:77    0
hbond:SER:77    0
Name: 28, dtype: object

>  <hbond:SER:80>  (29) 
hbond:SER:80    0
hbond:SER:80    0
Name: 28, dtype: object

>  <hbond:LEU:81>  (29) 
hbond:LEU:81    0
hbond:LEU:81    0
Name: 28, dtype: object

>  <halogenbond:LEU:81>  (29) 
halogenbond:LEU:81    0
halogenbond:LEU:81    0
Name: 28, dtype: object

>  <hydroph_interaction:LEU:81>  (29) 
hydroph_interaction:LEU:81    0
hydroph_interaction:LEU:81    0
Name: 28, dtype: object

>  <hydroph_interaction:ILE:82>  (29) 
hydroph_interaction:ILE:82    0
hydroph_interaction:ILE:82    0
Name: 28, dtype: object

>  <hbond:ILE:82>  (29) 
hbond:ILE:82    0
hbond:ILE:82    0
Name: 28, dtype: object

>  <hydroph_interaction:PHE:83>  (29) 
hydroph_interaction:PHE:83    0
hydroph_interaction:PHE:83    0
Name: 28, dtype: object

>  <hbond:PHE:83>  (29) 
hbond:PHE:83    0
hbond:PHE:83    0
Name: 28, dtype: object

>  <halogenbond:PHE:83>  (29) 
halogenbond:PHE:83    0
halogenbond:PHE:83    0
Name: 28, dtype: object

>  <pistack:PHE:83>  (29) 
pistack:PHE:83    0
pistack:PHE:83    0
Name: 28, dtype: object

>  <hydroph_interaction:VAL:84>  (29) 
hydroph_interaction:VAL:84    0
hydroph_interaction:VAL:84    0
Name: 28, dtype: object

>  <hbond:VAL:84>  (29) 
hbond:VAL:84    0
hbond:VAL:84    0
Name: 28, dtype: object

>  <halogenbond:VAL:84>  (29) 
halogenbond:VAL:84    0
halogenbond:VAL:84    0
Name: 28, dtype: object

>  <hydroph_interaction:GLU:85>  (29) 
hydroph_interaction:GLU:85    0
hydroph_interaction:GLU:85    0
Name: 28, dtype: object

>  <hbond:GLU:85>  (29) 
hbond:GLU:85    0
hbond:GLU:85    0
Name: 28, dtype: object

>  <saltbridge:GLU:85>  (29) 
saltbridge:GLU:85    0
saltbridge:GLU:85    0
Name: 28, dtype: object

>  <halogenbond:GLU:85>  (29) 
halogenbond:GLU:85    0
halogenbond:GLU:85    0
Name: 28, dtype: object

>  <hbond:ALA:86>  (29) 
hbond:ALA:86    0
hbond:ALA:86    0
Name: 28, dtype: object

>  <halogenbond:ALA:86>  (29) 
halogenbond:ALA:86    0
halogenbond:ALA:86    0
Name: 28, dtype: object

>  <hydroph_interaction:ALA:86>  (29) 
hydroph_interaction:ALA:86    0
hydroph_interaction:ALA:86    0
Name: 28, dtype: object

>  <hbond:SER:87>  (29) 
hbond:SER:87    0
hbond:SER:87    0
Name: 28, dtype: object

>  <halogenbond:SER:87>  (29) 
halogenbond:SER:87    0
halogenbond:SER:87    0
Name: 28, dtype: object

>  <hbond:GLU:88>  (29) 
hbond:GLU:88    0
hbond:GLU:88    0
Name: 28, dtype: object

>  <hydroph_interaction:GLU:88>  (29) 
hydroph_interaction:GLU:88    0
hydroph_interaction:GLU:88    0
Name: 28, dtype: object

>  <halogenbond:GLU:88>  (29) 
halogenbond:GLU:88    0
halogenbond:GLU:88    0
Name: 28, dtype: object

>  <saltbridge:GLU:88>  (29) 
saltbridge:GLU:88    0
saltbridge:GLU:88    0
Name: 28, dtype: object

>  <hydroph_interaction:TYR:89>  (29) 
hydroph_interaction:TYR:89    0
hydroph_interaction:TYR:89    0
Name: 28, dtype: object

>  <pistack:TYR:89>  (29) 
pistack:TYR:89    0
pistack:TYR:89    0
Name: 28, dtype: object

>  <hbond:TYR:89>  (29) 
hbond:TYR:89    0
hbond:TYR:89    0
Name: 28, dtype: object

>  <halogenbond:TYR:89>  (29) 
halogenbond:TYR:89    0
halogenbond:TYR:89    0
Name: 28, dtype: object

>  <hbond:TYR:90>  (29) 
hbond:TYR:90    0
hbond:TYR:90    0
Name: 28, dtype: object

>  <hydroph_interaction:TYR:90>  (29) 
hydroph_interaction:TYR:90    0
hydroph_interaction:TYR:90    0
Name: 28, dtype: object

>  <pistack:TYR:90>  (29) 
pistack:TYR:90    0
pistack:TYR:90    0
Name: 28, dtype: object

>  <halogenbond:TYR:90>  (29) 
halogenbond:TYR:90    0
halogenbond:TYR:90    0
Name: 28, dtype: object

>  <pication:TYR:90>  (29) 
pication:TYR:90    0
pication:TYR:90    0
Name: 28, dtype: object

>  <hydroph_interaction:PRO:91>  (29) 
hydroph_interaction:PRO:91    0
hydroph_interaction:PRO:91    0
Name: 28, dtype: object

>  <halogenbond:PRO:91>  (29) 
halogenbond:PRO:91    0
halogenbond:PRO:91    0
Name: 28, dtype: object

>  <hbond:PRO:91>  (29) 
hbond:PRO:91    0
hbond:PRO:91    0
Name: 28, dtype: object

>  <hydroph_interaction:ALA:92>  (29) 
hydroph_interaction:ALA:92    0
hydroph_interaction:ALA:92    0
Name: 28, dtype: object

>  <hbond:ARG:93>  (29) 
hbond:ARG:93    0
hbond:ARG:93    0
Name: 28, dtype: object

>  <pication:ARG:93>  (29) 
pication:ARG:93    0
pication:ARG:93    0
Name: 28, dtype: object

>  <saltbridge:ARG:93>  (29) 
saltbridge:ARG:93    0
saltbridge:ARG:93    0
Name: 28, dtype: object

>  <hydroph_interaction:ARG:93>  (29) 
hydroph_interaction:ARG:93    0
hydroph_interaction:ARG:93    0
Name: 28, dtype: object

>  <halogenbond:ARG:93>  (29) 
halogenbond:ARG:93    0
halogenbond:ARG:93    0
Name: 28, dtype: object

>  <hydroph_interaction:TYR:94>  (29) 
hydroph_interaction:TYR:94    0
hydroph_interaction:TYR:94    0
Name: 28, dtype: object

>  <hbond:TYR:94>  (29) 
hbond:TYR:94    0
hbond:TYR:94    0
Name: 28, dtype: object

>  <halogenbond:GLN:95>  (29) 
halogenbond:GLN:95    0
halogenbond:GLN:95    0
Name: 28, dtype: object

>  <hbond:GLN:95>  (29) 
hbond:GLN:95    0
hbond:GLN:95    0
Name: 28, dtype: object

>  <hydroph_interaction:GLN:95>  (29) 
hydroph_interaction:GLN:95    0
hydroph_interaction:GLN:95    0
Name: 28, dtype: object

>  <hbond:SER:96>  (29) 
hbond:SER:96    0
hbond:SER:96    0
Name: 28, dtype: object

>  <hydroph_interaction:LEU:98>  (29) 
hydroph_interaction:LEU:98    0
hydroph_interaction:LEU:98    0
Name: 28, dtype: object

>  <hbond:LEU:98>  (29) 
hbond:LEU:98    0
hbond:LEU:98    0
Name: 28, dtype: object

>  <hbond:MET:99>  (29) 
hbond:MET:99    0
hbond:MET:99    0
Name: 28, dtype: object

>  <hydroph_interaction:MET:99>  (29) 
hydroph_interaction:MET:99    0
hydroph_interaction:MET:99    0
Name: 28, dtype: object

>  <halogenbond:MET:99>  (29) 
halogenbond:MET:99    0
halogenbond:MET:99    0
Name: 28, dtype: object

>  <hydroph_interaction:LEU:100>  (29) 
hydroph_interaction:LEU:100    0
hydroph_interaction:LEU:100    0
Name: 28, dtype: object

>  <hbond:LEU:100>  (29) 
hbond:LEU:100    0
hbond:LEU:100    0
Name: 28, dtype: object

>  <hbond:ALA:101>  (29) 
hbond:ALA:101    0
hbond:ALA:101    0
Name: 28, dtype: object

>  <hydroph_interaction:ALA:101>  (29) 
hydroph_interaction:ALA:101    0
hydroph_interaction:ALA:101    0
Name: 28, dtype: object

>  <hydroph_interaction:VAL:102>  (29) 
hydroph_interaction:VAL:102    0
hydroph_interaction:VAL:102    0
Name: 28, dtype: object

>  <hbond:VAL:102>  (29) 
hbond:VAL:102    0
hbond:VAL:102    0
Name: 28, dtype: object

>  <hbond:GLY:103>  (29) 
hbond:GLY:103    0
hbond:GLY:103    0
Name: 28, dtype: object

>  <halogenbond:GLY:103>  (29) 
halogenbond:GLY:103    0
halogenbond:GLY:103    0
Name: 28, dtype: object

>  <hydroph_interaction:HIS:104>  (29) 
hydroph_interaction:HIS:104    0
hydroph_interaction:HIS:104    0
Name: 28, dtype: object

>  <hbond:HIS:104>  (29) 
hbond:HIS:104    0
hbond:HIS:104    0
Name: 28, dtype: object

>  <saltbridge:HIS:104>  (29) 
saltbridge:HIS:104    0
saltbridge:HIS:104    0
Name: 28, dtype: object

>  <pication:HIS:104>  (29) 
pication:HIS:104    0
pication:HIS:104    0
Name: 28, dtype: object

>  <pistack:HIS:104>  (29) 
pistack:HIS:104    0
pistack:HIS:104    0
Name: 28, dtype: object

>  <halogenbond:HIS:104>  (29) 
halogenbond:HIS:104    0
halogenbond:HIS:104    0
Name: 28, dtype: object

>  <hbond:SER:105>  (29) 
hbond:SER:105    0
hbond:SER:105    0
Name: 28, dtype: object

>  <halogenbond:SER:105>  (29) 
halogenbond:SER:105    0
halogenbond:SER:105    0
Name: 28, dtype: object

>  <hbond:GLU:106>  (29) 
hbond:GLU:106    0
hbond:GLU:106    0
Name: 28, dtype: object

>  <hydroph_interaction:GLU:106>  (29) 
hydroph_interaction:GLU:106    0
hydroph_interaction:GLU:106    0
Name: 28, dtype: object

>  <saltbridge:GLU:106>  (29) 
saltbridge:GLU:106    0
saltbridge:GLU:106    0
Name: 28, dtype: object

>  <halogenbond:GLU:106>  (29) 
halogenbond:GLU:106    0
halogenbond:GLU:106    0
Name: 28, dtype: object

>  <hydroph_interaction:PRO:107>  (29) 
hydroph_interaction:PRO:107    1
hydroph_interaction:PRO:107    1
Name: 28, dtype: object

>  <hbond:PRO:107>  (29) 
hbond:PRO:107    0
hbond:PRO:107    0
Name: 28, dtype: object

>  <halogenbond:PRO:107>  (29) 
halogenbond:PRO:107    0
halogenbond:PRO:107    0
Name: 28, dtype: object

>  <hbond:GLY:108>  (29) 
hbond:GLY:108    0
hbond:GLY:108    0
Name: 28, dtype: object

>  <halogenbond:GLY:108>  (29) 
halogenbond:GLY:108    0
halogenbond:GLY:108    0
Name: 28, dtype: object

>  <hbond:ASP:109>  (29) 
hbond:ASP:109    0
hbond:ASP:109    0
Name: 28, dtype: object

>  <hydroph_interaction:ASP:109>  (29) 
hydroph_interaction:ASP:109    0
hydroph_interaction:ASP:109    0
Name: 28, dtype: object

>  <saltbridge:ASP:109>  (29) 
saltbridge:ASP:109    0
saltbridge:ASP:109    0
Name: 28, dtype: object

>  <hbond:CYS:110>  (29) 
hbond:CYS:110    0
hbond:CYS:110    0
Name: 28, dtype: object

>  <halogenbond:CYS:110>  (29) 
halogenbond:CYS:110    1
halogenbond:CYS:110    1
Name: 28, dtype: object

>  <hbond:GLY:111>  (29) 
hbond:GLY:111    0
hbond:GLY:111    0
Name: 28, dtype: object

>  <hbond:GLY:112>  (29) 
hbond:GLY:112    0
hbond:GLY:112    0
Name: 28, dtype: object

>  <hbond:ILE:113>  (29) 
hbond:ILE:113    0
hbond:ILE:113    0
Name: 28, dtype: object

>  <hydroph_interaction:LEU:114>  (29) 
hydroph_interaction:LEU:114    0
hydroph_interaction:LEU:114    0
Name: 28, dtype: object

>  <hbond:LEU:114>  (29) 
hbond:LEU:114    0
hbond:LEU:114    0
Name: 28, dtype: object

>  <hydroph_interaction:ILE:123>  (29) 
hydroph_interaction:ILE:123    0
hydroph_interaction:ILE:123    0
Name: 28, dtype: object

>  <hbond:ILE:123>  (29) 
hbond:ILE:123    0
hbond:ILE:123    0
Name: 28, dtype: object

>  <hydroph_interaction:VAL:124>  (29) 
hydroph_interaction:VAL:124    1
hydroph_interaction:VAL:124    1
Name: 28, dtype: object

>  <hbond:VAL:124>  (29) 
hbond:VAL:124    0
hbond:VAL:124    0
Name: 28, dtype: object

>  <halogenbond:VAL:124>  (29) 
halogenbond:VAL:124    0
halogenbond:VAL:124    0
Name: 28, dtype: object

>  <hbond:SER:125>  (29) 
hbond:SER:125    1
hbond:SER:125    1
Name: 28, dtype: object

>  <halogenbond:SER:125>  (29) 
halogenbond:SER:125    0
halogenbond:SER:125    0
Name: 28, dtype: object

>  <hydroph_interaction:THR:126>  (29) 
hydroph_interaction:THR:126    0
hydroph_interaction:THR:126    0
Name: 28, dtype: object

>  <hbond:THR:126>  (29) 
hbond:THR:126    0
hbond:THR:126    0
Name: 28, dtype: object

>  <halogenbond:THR:126>  (29) 
halogenbond:THR:126    0
halogenbond:THR:126    0
Name: 28, dtype: object

>  <hbond:GLY:127>  (29) 
hbond:GLY:127    0
hbond:GLY:127    0
Name: 28, dtype: object

>  <halogenbond:GLY:127>  (29) 
halogenbond:GLY:127    0
halogenbond:GLY:127    0
Name: 28, dtype: object

>  <hydroph_interaction:GLY:127>  (29) 
hydroph_interaction:GLY:127    0
hydroph_interaction:GLY:127    0
Name: 28, dtype: object

>  <hbond:GLY:128>  (29) 
hbond:GLY:128    0
hbond:GLY:128    0
Name: 28, dtype: object

>  <halogenbond:GLY:128>  (29) 
halogenbond:GLY:128    0
halogenbond:GLY:128    0
Name: 28, dtype: object

>  <hydroph_interaction:GLY:128>  (29) 
hydroph_interaction:GLY:128    0
hydroph_interaction:GLY:128    0
Name: 28, dtype: object

>  <hbond:ASN:129>  (29) 
hbond:ASN:129    0
hbond:ASN:129    0
Name: 28, dtype: object

>  <hydroph_interaction:ASN:129>  (29) 
hydroph_interaction:ASN:129    0
hydroph_interaction:ASN:129    0
Name: 28, dtype: object

>  <halogenbond:ASN:129>  (29) 
halogenbond:ASN:129    0
halogenbond:ASN:129    0
Name: 28, dtype: object

>  <hbond:GLY:130>  (29) 
hbond:GLY:130    0
hbond:GLY:130    0
Name: 28, dtype: object

>  <hydroph_interaction:LEU:131>  (29) 
hydroph_interaction:LEU:131    0
hydroph_interaction:LEU:131    0
Name: 28, dtype: object

>  <hbond:LEU:131>  (29) 
hbond:LEU:131    0
hbond:LEU:131    0
Name: 28, dtype: object

>  <halogenbond:LEU:131>  (29) 
halogenbond:LEU:131    0
halogenbond:LEU:131    0
Name: 28, dtype: object

>  <hydroph_interaction:VAL:132>  (29) 
hydroph_interaction:VAL:132    0
hydroph_interaction:VAL:132    0
Name: 28, dtype: object

>  <hbond:VAL:132>  (29) 
hbond:VAL:132    0
hbond:VAL:132    0
Name: 28, dtype: object

>  <hbond:GLY:133>  (29) 
hbond:GLY:133    0
hbond:GLY:133    0
Name: 28, dtype: object

>  <halogenbond:GLY:133>  (29) 
halogenbond:GLY:133    0
halogenbond:GLY:133    0
Name: 28, dtype: object

>  <hydroph_interaction:PHE:134>  (29) 
hydroph_interaction:PHE:134    0
hydroph_interaction:PHE:134    0
Name: 28, dtype: object

>  <hbond:PHE:134>  (29) 
hbond:PHE:134    0
hbond:PHE:134    0
Name: 28, dtype: object

>  <pistack:PHE:134>  (29) 
pistack:PHE:134    0
pistack:PHE:134    0
Name: 28, dtype: object

>  <pication:PHE:134>  (29) 
pication:PHE:134    0
pication:PHE:134    0
Name: 28, dtype: object

>  <hydroph_interaction:ALA:135>  (29) 
hydroph_interaction:ALA:135    0
hydroph_interaction:ALA:135    0
Name: 28, dtype: object

>  <hbond:ALA:135>  (29) 
hbond:ALA:135    0
hbond:ALA:135    0
Name: 28, dtype: object

$$$$
PV_003026487343
     RDKit          3D

 22 23  0  0  0  0  0  0  0  0999 V2000
   10.1810    8.7490   22.8470 C   0  0  0  0  0  0  0  0  0  0  0  0
    9.6330   10.0380   23.3190 C   0  0  0  0  0  0  0  0  0  0  0  0
   10.1750   11.1270   22.7590 C   0  0  0  0  0  0  0  0  0  0  0  0
    9.7940   12.4840   23.0630 C   0  0  0  0  0  0  0  0  0  0  0  0
   10.4340   13.5110   22.4010 C   0  0  0  0  0  0  0  0  0  0  0  0
   11.8460   13.9240   22.6920 C   0  0  0  0  0  0  0  0  0  0  0  0
   12.5400   13.3020   23.6620 F   0  0  0  0  0  0  0  0  0  0  0  0
   12.4240   14.9040   21.9850 F   0  0  0  0  0  0  0  0  0  0  0  0
    8.7860   12.6060   24.0110 C   0  0  0  0  0  0  0  0  0  0  0  0
    8.2580   13.6240   24.4620 O   0  0  0  0  0  0  0  0  0  0  0  0
    7.2990   13.2480   25.3790 C   0  0  0  0  0  0  0  0  0  0  0  0
    7.2490   11.8760   25.4870 C   0  0  0  0  0  0  0  0  0  0  0  0
    8.2160   11.4940   24.5950 C   0  0  0  0  0  0  0  0  0  0  0  0
    8.6170   10.1970   24.2730 C   0  0  0  0  0  0  0  0  0  0  0  0
   10.2010    8.0360   23.6420 H   0  0  0  0  0  0  0  0  0  0  0  0
    9.5580    8.3730   22.0330 H   0  0  0  0  0  0  0  0  0  0  0  0
   11.1970    8.9030   22.4960 H   0  0  0  0  0  0  0  0  0  0  0  0
   10.9490   11.0000   22.0270 H   0  0  0  0  0  0  0  0  0  0  0  0
    9.8820   14.0250   21.6170 H   0  0  0  0  0  0  0  0  0  0  0  0
    6.7600   14.0580   25.8500 H   0  0  0  0  0  0  0  0  0  0  0  0
    6.6000   11.2660   26.1210 H   0  0  0  0  0  0  0  0  0  0  0  0
    8.1490    9.3410   24.7490 H   0  0  0  0  0  0  0  0  0  0  0  0
  1  2  1  0
  2  3  2  0
  3  4  1  0
  4  5  1  0
  5  6  2  3
  6  7  1  0
  6  8  1  0
  4  9  2  0
  9 10  1  0
 10 11  1  0
 11 12  2  0
 12 13  1  0
 13 14  2  0
 14  2  1  0
 13  9  1  0
  1 15  1  0
  1 16  1  0
  1 17  1  0
  3 18  1  0
  5 19  1  0
 11 20  1  0
 12 21  1  0
 14 22  1  0
A    1
 C1 
A    2
 C2 
A    3
 C3 
A    4
 C4 
A    5
 C5 
A    6
 C6 
A    7
 F1 
A    8
 F2 
A    9
 C7 
A   10
 O1 
A   11
 C8 
A   12
 C9 
A   13
 C10
A   14
 C11
A   15
 H1 
A   16
 H2 
A   17
 H3 
A   18
 H4 
A   19
 H5 
A   20
 H6 
A   21
 H7 
A   22
 H8 
M  END
>  <ref_pdb>  (30) 
x0310_0A

>  <ref_mols>  (30) 
x0554_0A,x0528_0A

>  <original SMILES>  (30) 
Cc1cc(C=C(F)F)c2occc2c1

>  <rationale>  (30) 
info halogenbond:P107; hydroph_interaction:V124; 

>  <intxn_cluster>  (30) 
105

>  <intxn_cluster_rank>  (30) 
6

>  <N_interactions>  (30) 
2

>  <∆∆G>  (30) 
-8.47566

>  <$/mg>  (30) 
163.0

>  <comRMSD>  (30) 
0.759472

>  <N_rotatable_bonds>  (30) 
2

>  <N_analogues_07>  (30) 
0

>  <deep_P1_sidechain>  (30) 
True

>  <farthest_distance_to_substrate>  (30) 
2.333906

>  <hbond:SER:7>  (30) 
hbond:SER:7    0
hbond:SER:7    0
Name: 29, dtype: object

>  <halogenbond:SER:7>  (30) 
halogenbond:SER:7    0
halogenbond:SER:7    0
Name: 29, dtype: object

>  <hbond:GLY:8>  (30) 
hbond:GLY:8    0
hbond:GLY:8    0
Name: 29, dtype: object

>  <hydroph_interaction:ASN:19>  (30) 
hydroph_interaction:ASN:19    0
hydroph_interaction:ASN:19    0
Name: 29, dtype: object

>  <hbond:ASN:19>  (30) 
hbond:ASN:19    0
hbond:ASN:19    0
Name: 29, dtype: object

>  <halogenbond:ASN:19>  (30) 
halogenbond:ASN:19    0
halogenbond:ASN:19    0
Name: 29, dtype: object

>  <hbond:ARG:20>  (30) 
hbond:ARG:20    0
hbond:ARG:20    0
Name: 29, dtype: object

>  <hydroph_interaction:ARG:20>  (30) 
hydroph_interaction:ARG:20    0
hydroph_interaction:ARG:20    0
Name: 29, dtype: object

>  <saltbridge:ARG:20>  (30) 
saltbridge:ARG:20    0
saltbridge:ARG:20    0
Name: 29, dtype: object

>  <halogenbond:ARG:20>  (30) 
halogenbond:ARG:20    0
halogenbond:ARG:20    0
Name: 29, dtype: object

>  <pication:ARG:20>  (30) 
pication:ARG:20    0
pication:ARG:20    0
Name: 29, dtype: object

>  <hbond:HIS:21>  (30) 
hbond:HIS:21    0
hbond:HIS:21    0
Name: 29, dtype: object

>  <hydroph_interaction:HIS:21>  (30) 
hydroph_interaction:HIS:21    0
hydroph_interaction:HIS:21    0
Name: 29, dtype: object

>  <saltbridge:HIS:21>  (30) 
saltbridge:HIS:21    0
saltbridge:HIS:21    0
Name: 29, dtype: object

>  <pistack:HIS:21>  (30) 
pistack:HIS:21    0
pistack:HIS:21    0
Name: 29, dtype: object

>  <pication:HIS:21>  (30) 
pication:HIS:21    0
pication:HIS:21    0
Name: 29, dtype: object

>  <halogenbond:HIS:21>  (30) 
halogenbond:HIS:21    0
halogenbond:HIS:21    0
Name: 29, dtype: object

>  <hydroph_interaction:LEU:22>  (30) 
hydroph_interaction:LEU:22    0
hydroph_interaction:LEU:22    0
Name: 29, dtype: object

>  <hbond:LEU:22>  (30) 
hbond:LEU:22    0
hbond:LEU:22    0
Name: 29, dtype: object

>  <hydroph_interaction:TRP:28>  (30) 
hydroph_interaction:TRP:28    0
hydroph_interaction:TRP:28    0
Name: 29, dtype: object

>  <hbond:SER:36>  (30) 
hbond:SER:36    0
hbond:SER:36    0
Name: 29, dtype: object

>  <halogenbond:SER:36>  (30) 
halogenbond:SER:36    0
halogenbond:SER:36    0
Name: 29, dtype: object

>  <hbond:ARG:38>  (30) 
hbond:ARG:38    0
hbond:ARG:38    0
Name: 29, dtype: object

>  <halogenbond:ARG:38>  (30) 
halogenbond:ARG:38    0
halogenbond:ARG:38    0
Name: 29, dtype: object

>  <hbond:ASP:39>  (30) 
hbond:ASP:39    0
hbond:ASP:39    0
Name: 29, dtype: object

>  <saltbridge:ASP:39>  (30) 
saltbridge:ASP:39    0
saltbridge:ASP:39    0
Name: 29, dtype: object

>  <hydroph_interaction:ASP:39>  (30) 
hydroph_interaction:ASP:39    0
hydroph_interaction:ASP:39    0
Name: 29, dtype: object

>  <halogenbond:ASP:39>  (30) 
halogenbond:ASP:39    0
halogenbond:ASP:39    0
Name: 29, dtype: object

>  <hydroph_interaction:LEU:40>  (30) 
hydroph_interaction:LEU:40    0
hydroph_interaction:LEU:40    0
Name: 29, dtype: object

>  <hydroph_interaction:TYR:63>  (30) 
hydroph_interaction:TYR:63    0
hydroph_interaction:TYR:63    0
Name: 29, dtype: object

>  <pistack:TYR:63>  (30) 
pistack:TYR:63    0
pistack:TYR:63    0
Name: 29, dtype: object

>  <hbond:TYR:63>  (30) 
hbond:TYR:63    0
hbond:TYR:63    0
Name: 29, dtype: object

>  <hbond:TYR:64>  (30) 
hbond:TYR:64    0
hbond:TYR:64    0
Name: 29, dtype: object

>  <halogenbond:TYR:64>  (30) 
halogenbond:TYR:64    0
halogenbond:TYR:64    0
Name: 29, dtype: object

>  <hydroph_interaction:TYR:64>  (30) 
hydroph_interaction:TYR:64    0
hydroph_interaction:TYR:64    0
Name: 29, dtype: object

>  <hbond:CYS:65>  (30) 
hbond:CYS:65    0
hbond:CYS:65    0
Name: 29, dtype: object

>  <halogenbond:CYS:65>  (30) 
halogenbond:CYS:65    0
halogenbond:CYS:65    0
Name: 29, dtype: object

>  <hbond:SER:66>  (30) 
hbond:SER:66    0
hbond:SER:66    0
Name: 29, dtype: object

>  <hbond:SER:67>  (30) 
hbond:SER:67    0
hbond:SER:67    0
Name: 29, dtype: object

>  <halogenbond:SER:67>  (30) 
halogenbond:SER:67    0
halogenbond:SER:67    0
Name: 29, dtype: object

>  <hydroph_interaction:ARG:68>  (30) 
hydroph_interaction:ARG:68    0
hydroph_interaction:ARG:68    0
Name: 29, dtype: object

>  <hbond:ARG:68>  (30) 
hbond:ARG:68    0
hbond:ARG:68    0
Name: 29, dtype: object

>  <saltbridge:ARG:68>  (30) 
saltbridge:ARG:68    0
saltbridge:ARG:68    0
Name: 29, dtype: object

>  <pication:ARG:68>  (30) 
pication:ARG:68    0
pication:ARG:68    0
Name: 29, dtype: object

>  <hydroph_interaction:TYR:72>  (30) 
hydroph_interaction:TYR:72    0
hydroph_interaction:TYR:72    0
Name: 29, dtype: object

>  <hydroph_interaction:VAL:74>  (30) 
hydroph_interaction:VAL:74    0
hydroph_interaction:VAL:74    0
Name: 29, dtype: object

>  <hydroph_interaction:PHE:76>  (30) 
hydroph_interaction:PHE:76    0
hydroph_interaction:PHE:76    0
Name: 29, dtype: object

>  <hbond:SER:77>  (30) 
hbond:SER:77    0
hbond:SER:77    0
Name: 29, dtype: object

>  <hbond:SER:80>  (30) 
hbond:SER:80    0
hbond:SER:80    0
Name: 29, dtype: object

>  <hbond:LEU:81>  (30) 
hbond:LEU:81    0
hbond:LEU:81    0
Name: 29, dtype: object

>  <halogenbond:LEU:81>  (30) 
halogenbond:LEU:81    0
halogenbond:LEU:81    0
Name: 29, dtype: object

>  <hydroph_interaction:LEU:81>  (30) 
hydroph_interaction:LEU:81    0
hydroph_interaction:LEU:81    0
Name: 29, dtype: object

>  <hydroph_interaction:ILE:82>  (30) 
hydroph_interaction:ILE:82    0
hydroph_interaction:ILE:82    0
Name: 29, dtype: object

>  <hbond:ILE:82>  (30) 
hbond:ILE:82    0
hbond:ILE:82    0
Name: 29, dtype: object

>  <hydroph_interaction:PHE:83>  (30) 
hydroph_interaction:PHE:83    0
hydroph_interaction:PHE:83    0
Name: 29, dtype: object

>  <hbond:PHE:83>  (30) 
hbond:PHE:83    0
hbond:PHE:83    0
Name: 29, dtype: object

>  <halogenbond:PHE:83>  (30) 
halogenbond:PHE:83    0
halogenbond:PHE:83    0
Name: 29, dtype: object

>  <pistack:PHE:83>  (30) 
pistack:PHE:83    0
pistack:PHE:83    0
Name: 29, dtype: object

>  <hydroph_interaction:VAL:84>  (30) 
hydroph_interaction:VAL:84    0
hydroph_interaction:VAL:84    0
Name: 29, dtype: object

>  <hbond:VAL:84>  (30) 
hbond:VAL:84    0
hbond:VAL:84    0
Name: 29, dtype: object

>  <halogenbond:VAL:84>  (30) 
halogenbond:VAL:84    0
halogenbond:VAL:84    0
Name: 29, dtype: object

>  <hydroph_interaction:GLU:85>  (30) 
hydroph_interaction:GLU:85    0
hydroph_interaction:GLU:85    0
Name: 29, dtype: object

>  <hbond:GLU:85>  (30) 
hbond:GLU:85    0
hbond:GLU:85    0
Name: 29, dtype: object

>  <saltbridge:GLU:85>  (30) 
saltbridge:GLU:85    0
saltbridge:GLU:85    0
Name: 29, dtype: object

>  <halogenbond:GLU:85>  (30) 
halogenbond:GLU:85    0
halogenbond:GLU:85    0
Name: 29, dtype: object

>  <hbond:ALA:86>  (30) 
hbond:ALA:86    0
hbond:ALA:86    0
Name: 29, dtype: object

>  <halogenbond:ALA:86>  (30) 
halogenbond:ALA:86    0
halogenbond:ALA:86    0
Name: 29, dtype: object

>  <hydroph_interaction:ALA:86>  (30) 
hydroph_interaction:ALA:86    0
hydroph_interaction:ALA:86    0
Name: 29, dtype: object

>  <hbond:SER:87>  (30) 
hbond:SER:87    0
hbond:SER:87    0
Name: 29, dtype: object

>  <halogenbond:SER:87>  (30) 
halogenbond:SER:87    0
halogenbond:SER:87    0
Name: 29, dtype: object

>  <hbond:GLU:88>  (30) 
hbond:GLU:88    0
hbond:GLU:88    0
Name: 29, dtype: object

>  <hydroph_interaction:GLU:88>  (30) 
hydroph_interaction:GLU:88    0
hydroph_interaction:GLU:88    0
Name: 29, dtype: object

>  <halogenbond:GLU:88>  (30) 
halogenbond:GLU:88    0
halogenbond:GLU:88    0
Name: 29, dtype: object

>  <saltbridge:GLU:88>  (30) 
saltbridge:GLU:88    0
saltbridge:GLU:88    0
Name: 29, dtype: object

>  <hydroph_interaction:TYR:89>  (30) 
hydroph_interaction:TYR:89    0
hydroph_interaction:TYR:89    0
Name: 29, dtype: object

>  <pistack:TYR:89>  (30) 
pistack:TYR:89    0
pistack:TYR:89    0
Name: 29, dtype: object

>  <hbond:TYR:89>  (30) 
hbond:TYR:89    0
hbond:TYR:89    0
Name: 29, dtype: object

>  <halogenbond:TYR:89>  (30) 
halogenbond:TYR:89    0
halogenbond:TYR:89    0
Name: 29, dtype: object

>  <hbond:TYR:90>  (30) 
hbond:TYR:90    0
hbond:TYR:90    0
Name: 29, dtype: object

>  <hydroph_interaction:TYR:90>  (30) 
hydroph_interaction:TYR:90    0
hydroph_interaction:TYR:90    0
Name: 29, dtype: object

>  <pistack:TYR:90>  (30) 
pistack:TYR:90    0
pistack:TYR:90    0
Name: 29, dtype: object

>  <halogenbond:TYR:90>  (30) 
halogenbond:TYR:90    0
halogenbond:TYR:90    0
Name: 29, dtype: object

>  <pication:TYR:90>  (30) 
pication:TYR:90    0
pication:TYR:90    0
Name: 29, dtype: object

>  <hydroph_interaction:PRO:91>  (30) 
hydroph_interaction:PRO:91    0
hydroph_interaction:PRO:91    0
Name: 29, dtype: object

>  <halogenbond:PRO:91>  (30) 
halogenbond:PRO:91    0
halogenbond:PRO:91    0
Name: 29, dtype: object

>  <hbond:PRO:91>  (30) 
hbond:PRO:91    0
hbond:PRO:91    0
Name: 29, dtype: object

>  <hydroph_interaction:ALA:92>  (30) 
hydroph_interaction:ALA:92    0
hydroph_interaction:ALA:92    0
Name: 29, dtype: object

>  <hbond:ARG:93>  (30) 
hbond:ARG:93    0
hbond:ARG:93    0
Name: 29, dtype: object

>  <pication:ARG:93>  (30) 
pication:ARG:93    0
pication:ARG:93    0
Name: 29, dtype: object

>  <saltbridge:ARG:93>  (30) 
saltbridge:ARG:93    0
saltbridge:ARG:93    0
Name: 29, dtype: object

>  <hydroph_interaction:ARG:93>  (30) 
hydroph_interaction:ARG:93    0
hydroph_interaction:ARG:93    0
Name: 29, dtype: object

>  <halogenbond:ARG:93>  (30) 
halogenbond:ARG:93    0
halogenbond:ARG:93    0
Name: 29, dtype: object

>  <hydroph_interaction:TYR:94>  (30) 
hydroph_interaction:TYR:94    0
hydroph_interaction:TYR:94    0
Name: 29, dtype: object

>  <hbond:TYR:94>  (30) 
hbond:TYR:94    0
hbond:TYR:94    0
Name: 29, dtype: object

>  <halogenbond:GLN:95>  (30) 
halogenbond:GLN:95    0
halogenbond:GLN:95    0
Name: 29, dtype: object

>  <hbond:GLN:95>  (30) 
hbond:GLN:95    0
hbond:GLN:95    0
Name: 29, dtype: object

>  <hydroph_interaction:GLN:95>  (30) 
hydroph_interaction:GLN:95    0
hydroph_interaction:GLN:95    0
Name: 29, dtype: object

>  <hbond:SER:96>  (30) 
hbond:SER:96    0
hbond:SER:96    0
Name: 29, dtype: object

>  <hydroph_interaction:LEU:98>  (30) 
hydroph_interaction:LEU:98    0
hydroph_interaction:LEU:98    0
Name: 29, dtype: object

>  <hbond:LEU:98>  (30) 
hbond:LEU:98    0
hbond:LEU:98    0
Name: 29, dtype: object

>  <hbond:MET:99>  (30) 
hbond:MET:99    0
hbond:MET:99    0
Name: 29, dtype: object

>  <hydroph_interaction:MET:99>  (30) 
hydroph_interaction:MET:99    0
hydroph_interaction:MET:99    0
Name: 29, dtype: object

>  <halogenbond:MET:99>  (30) 
halogenbond:MET:99    0
halogenbond:MET:99    0
Name: 29, dtype: object

>  <hydroph_interaction:LEU:100>  (30) 
hydroph_interaction:LEU:100    0
hydroph_interaction:LEU:100    0
Name: 29, dtype: object

>  <hbond:LEU:100>  (30) 
hbond:LEU:100    0
hbond:LEU:100    0
Name: 29, dtype: object

>  <hbond:ALA:101>  (30) 
hbond:ALA:101    0
hbond:ALA:101    0
Name: 29, dtype: object

>  <hydroph_interaction:ALA:101>  (30) 
hydroph_interaction:ALA:101    0
hydroph_interaction:ALA:101    0
Name: 29, dtype: object

>  <hydroph_interaction:VAL:102>  (30) 
hydroph_interaction:VAL:102    0
hydroph_interaction:VAL:102    0
Name: 29, dtype: object

>  <hbond:VAL:102>  (30) 
hbond:VAL:102    0
hbond:VAL:102    0
Name: 29, dtype: object

>  <hbond:GLY:103>  (30) 
hbond:GLY:103    0
hbond:GLY:103    0
Name: 29, dtype: object

>  <halogenbond:GLY:103>  (30) 
halogenbond:GLY:103    0
halogenbond:GLY:103    0
Name: 29, dtype: object

>  <hydroph_interaction:HIS:104>  (30) 
hydroph_interaction:HIS:104    0
hydroph_interaction:HIS:104    0
Name: 29, dtype: object

>  <hbond:HIS:104>  (30) 
hbond:HIS:104    0
hbond:HIS:104    0
Name: 29, dtype: object

>  <saltbridge:HIS:104>  (30) 
saltbridge:HIS:104    0
saltbridge:HIS:104    0
Name: 29, dtype: object

>  <pication:HIS:104>  (30) 
pication:HIS:104    0
pication:HIS:104    0
Name: 29, dtype: object

>  <pistack:HIS:104>  (30) 
pistack:HIS:104    0
pistack:HIS:104    0
Name: 29, dtype: object

>  <halogenbond:HIS:104>  (30) 
halogenbond:HIS:104    0
halogenbond:HIS:104    0
Name: 29, dtype: object

>  <hbond:SER:105>  (30) 
hbond:SER:105    0
hbond:SER:105    0
Name: 29, dtype: object

>  <halogenbond:SER:105>  (30) 
halogenbond:SER:105    0
halogenbond:SER:105    0
Name: 29, dtype: object

>  <hbond:GLU:106>  (30) 
hbond:GLU:106    0
hbond:GLU:106    0
Name: 29, dtype: object

>  <hydroph_interaction:GLU:106>  (30) 
hydroph_interaction:GLU:106    0
hydroph_interaction:GLU:106    0
Name: 29, dtype: object

>  <saltbridge:GLU:106>  (30) 
saltbridge:GLU:106    0
saltbridge:GLU:106    0
Name: 29, dtype: object

>  <halogenbond:GLU:106>  (30) 
halogenbond:GLU:106    0
halogenbond:GLU:106    0
Name: 29, dtype: object

>  <hydroph_interaction:PRO:107>  (30) 
hydroph_interaction:PRO:107    0
hydroph_interaction:PRO:107    0
Name: 29, dtype: object

>  <hbond:PRO:107>  (30) 
hbond:PRO:107    0
hbond:PRO:107    0
Name: 29, dtype: object

>  <halogenbond:PRO:107>  (30) 
halogenbond:PRO:107    1
halogenbond:PRO:107    1
Name: 29, dtype: object

>  <hbond:GLY:108>  (30) 
hbond:GLY:108    0
hbond:GLY:108    0
Name: 29, dtype: object

>  <halogenbond:GLY:108>  (30) 
halogenbond:GLY:108    0
halogenbond:GLY:108    0
Name: 29, dtype: object

>  <hbond:ASP:109>  (30) 
hbond:ASP:109    0
hbond:ASP:109    0
Name: 29, dtype: object

>  <hydroph_interaction:ASP:109>  (30) 
hydroph_interaction:ASP:109    0
hydroph_interaction:ASP:109    0
Name: 29, dtype: object

>  <saltbridge:ASP:109>  (30) 
saltbridge:ASP:109    0
saltbridge:ASP:109    0
Name: 29, dtype: object

>  <hbond:CYS:110>  (30) 
hbond:CYS:110    0
hbond:CYS:110    0
Name: 29, dtype: object

>  <halogenbond:CYS:110>  (30) 
halogenbond:CYS:110    0
halogenbond:CYS:110    0
Name: 29, dtype: object

>  <hbond:GLY:111>  (30) 
hbond:GLY:111    0
hbond:GLY:111    0
Name: 29, dtype: object

>  <hbond:GLY:112>  (30) 
hbond:GLY:112    0
hbond:GLY:112    0
Name: 29, dtype: object

>  <hbond:ILE:113>  (30) 
hbond:ILE:113    0
hbond:ILE:113    0
Name: 29, dtype: object

>  <hydroph_interaction:LEU:114>  (30) 
hydroph_interaction:LEU:114    0
hydroph_interaction:LEU:114    0
Name: 29, dtype: object

>  <hbond:LEU:114>  (30) 
hbond:LEU:114    0
hbond:LEU:114    0
Name: 29, dtype: object

>  <hydroph_interaction:ILE:123>  (30) 
hydroph_interaction:ILE:123    0
hydroph_interaction:ILE:123    0
Name: 29, dtype: object

>  <hbond:ILE:123>  (30) 
hbond:ILE:123    0
hbond:ILE:123    0
Name: 29, dtype: object

>  <hydroph_interaction:VAL:124>  (30) 
hydroph_interaction:VAL:124    1
hydroph_interaction:VAL:124    1
Name: 29, dtype: object

>  <hbond:VAL:124>  (30) 
hbond:VAL:124    0
hbond:VAL:124    0
Name: 29, dtype: object

>  <halogenbond:VAL:124>  (30) 
halogenbond:VAL:124    0
halogenbond:VAL:124    0
Name: 29, dtype: object

>  <hbond:SER:125>  (30) 
hbond:SER:125    0
hbond:SER:125    0
Name: 29, dtype: object

>  <halogenbond:SER:125>  (30) 
halogenbond:SER:125    0
halogenbond:SER:125    0
Name: 29, dtype: object

>  <hydroph_interaction:THR:126>  (30) 
hydroph_interaction:THR:126    0
hydroph_interaction:THR:126    0
Name: 29, dtype: object

>  <hbond:THR:126>  (30) 
hbond:THR:126    0
hbond:THR:126    0
Name: 29, dtype: object

>  <halogenbond:THR:126>  (30) 
halogenbond:THR:126    0
halogenbond:THR:126    0
Name: 29, dtype: object

>  <hbond:GLY:127>  (30) 
hbond:GLY:127    0
hbond:GLY:127    0
Name: 29, dtype: object

>  <halogenbond:GLY:127>  (30) 
halogenbond:GLY:127    0
halogenbond:GLY:127    0
Name: 29, dtype: object

>  <hydroph_interaction:GLY:127>  (30) 
hydroph_interaction:GLY:127    0
hydroph_interaction:GLY:127    0
Name: 29, dtype: object

>  <hbond:GLY:128>  (30) 
hbond:GLY:128    0
hbond:GLY:128    0
Name: 29, dtype: object

>  <halogenbond:GLY:128>  (30) 
halogenbond:GLY:128    0
halogenbond:GLY:128    0
Name: 29, dtype: object

>  <hydroph_interaction:GLY:128>  (30) 
hydroph_interaction:GLY:128    0
hydroph_interaction:GLY:128    0
Name: 29, dtype: object

>  <hbond:ASN:129>  (30) 
hbond:ASN:129    0
hbond:ASN:129    0
Name: 29, dtype: object

>  <hydroph_interaction:ASN:129>  (30) 
hydroph_interaction:ASN:129    0
hydroph_interaction:ASN:129    0
Name: 29, dtype: object

>  <halogenbond:ASN:129>  (30) 
halogenbond:ASN:129    0
halogenbond:ASN:129    0
Name: 29, dtype: object

>  <hbond:GLY:130>  (30) 
hbond:GLY:130    0
hbond:GLY:130    0
Name: 29, dtype: object

>  <hydroph_interaction:LEU:131>  (30) 
hydroph_interaction:LEU:131    0
hydroph_interaction:LEU:131    0
Name: 29, dtype: object

>  <hbond:LEU:131>  (30) 
hbond:LEU:131    0
hbond:LEU:131    0
Name: 29, dtype: object

>  <halogenbond:LEU:131>  (30) 
halogenbond:LEU:131    0
halogenbond:LEU:131    0
Name: 29, dtype: object

>  <hydroph_interaction:VAL:132>  (30) 
hydroph_interaction:VAL:132    0
hydroph_interaction:VAL:132    0
Name: 29, dtype: object

>  <hbond:VAL:132>  (30) 
hbond:VAL:132    0
hbond:VAL:132    0
Name: 29, dtype: object

>  <hbond:GLY:133>  (30) 
hbond:GLY:133    0
hbond:GLY:133    0
Name: 29, dtype: object

>  <halogenbond:GLY:133>  (30) 
halogenbond:GLY:133    0
halogenbond:GLY:133    0
Name: 29, dtype: object

>  <hydroph_interaction:PHE:134>  (30) 
hydroph_interaction:PHE:134    0
hydroph_interaction:PHE:134    0
Name: 29, dtype: object

>  <hbond:PHE:134>  (30) 
hbond:PHE:134    0
hbond:PHE:134    0
Name: 29, dtype: object

>  <pistack:PHE:134>  (30) 
pistack:PHE:134    0
pistack:PHE:134    0
Name: 29, dtype: object

>  <pication:PHE:134>  (30) 
pication:PHE:134    0
pication:PHE:134    0
Name: 29, dtype: object

>  <hydroph_interaction:ALA:135>  (30) 
hydroph_interaction:ALA:135    0
hydroph_interaction:ALA:135    0
Name: 29, dtype: object

>  <hbond:ALA:135>  (30) 
hbond:ALA:135    0
hbond:ALA:135    0
Name: 29, dtype: object

$$$$
PV_002871207302
     RDKit          3D

 21 21  0  0  0  0  0  0  0  0999 V2000
   10.1710   10.6660   22.8400 C   0  0  0  0  0  0  0  0  0  0  0  0
    9.1190   11.3580   23.6560 C   0  0  0  0  0  0  0  0  0  0  0  0
    8.3950   10.5840   24.5660 C   0  0  0  0  0  0  0  0  0  0  0  0
    7.4230   11.0570   25.3680 N   0  0  0  0  0  0  0  0  0  0  0  0
    7.1460   12.3660   25.2730 C   0  0  0  0  0  0  0  0  0  0  0  0
    7.7940   13.2310   24.4060 C   0  0  0  0  0  0  0  0  0  0  0  0
    8.8020   12.7280   23.5740 C   0  0  0  0  0  0  0  0  0  0  0  0
    9.6180   13.8620   22.4430 S   0  0  0  0  0  0  0  0  0  0  0  0
   11.3060   13.9980   23.1070 C   0  0  0  0  0  0  0  0  0  0  0  0
   12.2460   14.7240   22.2110 C   0  0  0  0  0  0  0  0  0  0  0  0
   11.2490   14.6340   24.3040 F   0  0  0  0  0  0  0  0  0  0  0  0
   11.8120   12.7880   23.3910 F   0  0  0  0  0  0  0  0  0  0  0  0
    9.7060   10.0060   22.1150 H   0  0  0  0  0  0  0  0  0  0  0  0
   10.8040   10.0610   23.4860 H   0  0  0  0  0  0  0  0  0  0  0  0
   10.7940   11.3860   22.3110 H   0  0  0  0  0  0  0  0  0  0  0  0
    8.5910    9.5200   24.6670 H   0  0  0  0  0  0  0  0  0  0  0  0
    6.3540   12.7220   25.9350 H   0  0  0  0  0  0  0  0  0  0  0  0
    7.5110   14.2770   24.3850 H   0  0  0  0  0  0  0  0  0  0  0  0
   13.2230   14.7280   22.7020 H   0  0  0  0  0  0  0  0  0  0  0  0
   12.3380   14.1440   21.2870 H   0  0  0  0  0  0  0  0  0  0  0  0
   12.0040   15.7540   21.9580 H   0  0  0  0  0  0  0  0  0  0  0  0
  1  2  1  0
  2  3  2  0
  3  4  1  0
  4  5  2  0
  5  6  1  0
  6  7  2  0
  7  8  1  0
  8  9  1  0
  9 10  1  0
  9 11  1  0
  9 12  1  0
  7  2  1  0
  1 13  1  0
  1 14  1  0
  1 15  1  0
  3 16  1  0
  5 17  1  0
  6 18  1  0
 10 19  1  0
 10 20  1  0
 10 21  1  0
A    1
 C1 
A    2
 C2 
A    3
 C3 
A    4
 N1 
A    5
 C4 
A    6
 C5 
A    7
 C6 
A    8
 S1 
A    9
 C7 
A   10
 C8 
A   11
 F1 
A   12
 F2 
A   13
 H1 
A   14
 H2 
A   15
 H3 
A   16
 H4 
A   17
 H5 
A   18
 H6 
A   19
 H7 
A   20
 H8 
A   21
 H9 
M  END
>  <ref_pdb>  (31) 
x0310_0A

>  <ref_mols>  (31) 
x0554_0A,x0351_0A

>  <original SMILES>  (31) 
Cc1cnccc1SC(C)(F)F

>  <rationale>  (31) 
info halogenbond:P107; 

>  <intxn_cluster>  (31) 
207

>  <intxn_cluster_rank>  (31) 
6

>  <N_interactions>  (31) 
1

>  <∆∆G>  (31) 
-7.628964

>  <$/mg>  (31) 
nan

>  <comRMSD>  (31) 
0.959627

>  <N_rotatable_bonds>  (31) 
4

>  <N_analogues_07>  (31) 
0

>  <deep_P1_sidechain>  (31) 
False

>  <farthest_distance_to_substrate>  (31) 
2.387161

>  <hbond:SER:7>  (31) 
hbond:SER:7    0
hbond:SER:7    0
Name: 30, dtype: object

>  <halogenbond:SER:7>  (31) 
halogenbond:SER:7    0
halogenbond:SER:7    0
Name: 30, dtype: object

>  <hbond:GLY:8>  (31) 
hbond:GLY:8    0
hbond:GLY:8    0
Name: 30, dtype: object

>  <hydroph_interaction:ASN:19>  (31) 
hydroph_interaction:ASN:19    0
hydroph_interaction:ASN:19    0
Name: 30, dtype: object

>  <hbond:ASN:19>  (31) 
hbond:ASN:19    0
hbond:ASN:19    0
Name: 30, dtype: object

>  <halogenbond:ASN:19>  (31) 
halogenbond:ASN:19    0
halogenbond:ASN:19    0
Name: 30, dtype: object

>  <hbond:ARG:20>  (31) 
hbond:ARG:20    0
hbond:ARG:20    0
Name: 30, dtype: object

>  <hydroph_interaction:ARG:20>  (31) 
hydroph_interaction:ARG:20    0
hydroph_interaction:ARG:20    0
Name: 30, dtype: object

>  <saltbridge:ARG:20>  (31) 
saltbridge:ARG:20    0
saltbridge:ARG:20    0
Name: 30, dtype: object

>  <halogenbond:ARG:20>  (31) 
halogenbond:ARG:20    0
halogenbond:ARG:20    0
Name: 30, dtype: object

>  <pication:ARG:20>  (31) 
pication:ARG:20    0
pication:ARG:20    0
Name: 30, dtype: object

>  <hbond:HIS:21>  (31) 
hbond:HIS:21    0
hbond:HIS:21    0
Name: 30, dtype: object

>  <hydroph_interaction:HIS:21>  (31) 
hydroph_interaction:HIS:21    0
hydroph_interaction:HIS:21    0
Name: 30, dtype: object

>  <saltbridge:HIS:21>  (31) 
saltbridge:HIS:21    0
saltbridge:HIS:21    0
Name: 30, dtype: object

>  <pistack:HIS:21>  (31) 
pistack:HIS:21    0
pistack:HIS:21    0
Name: 30, dtype: object

>  <pication:HIS:21>  (31) 
pication:HIS:21    0
pication:HIS:21    0
Name: 30, dtype: object

>  <halogenbond:HIS:21>  (31) 
halogenbond:HIS:21    0
halogenbond:HIS:21    0
Name: 30, dtype: object

>  <hydroph_interaction:LEU:22>  (31) 
hydroph_interaction:LEU:22    0
hydroph_interaction:LEU:22    0
Name: 30, dtype: object

>  <hbond:LEU:22>  (31) 
hbond:LEU:22    0
hbond:LEU:22    0
Name: 30, dtype: object

>  <hydroph_interaction:TRP:28>  (31) 
hydroph_interaction:TRP:28    0
hydroph_interaction:TRP:28    0
Name: 30, dtype: object

>  <hbond:SER:36>  (31) 
hbond:SER:36    0
hbond:SER:36    0
Name: 30, dtype: object

>  <halogenbond:SER:36>  (31) 
halogenbond:SER:36    0
halogenbond:SER:36    0
Name: 30, dtype: object

>  <hbond:ARG:38>  (31) 
hbond:ARG:38    0
hbond:ARG:38    0
Name: 30, dtype: object

>  <halogenbond:ARG:38>  (31) 
halogenbond:ARG:38    0
halogenbond:ARG:38    0
Name: 30, dtype: object

>  <hbond:ASP:39>  (31) 
hbond:ASP:39    0
hbond:ASP:39    0
Name: 30, dtype: object

>  <saltbridge:ASP:39>  (31) 
saltbridge:ASP:39    0
saltbridge:ASP:39    0
Name: 30, dtype: object

>  <hydroph_interaction:ASP:39>  (31) 
hydroph_interaction:ASP:39    0
hydroph_interaction:ASP:39    0
Name: 30, dtype: object

>  <halogenbond:ASP:39>  (31) 
halogenbond:ASP:39    0
halogenbond:ASP:39    0
Name: 30, dtype: object

>  <hydroph_interaction:LEU:40>  (31) 
hydroph_interaction:LEU:40    0
hydroph_interaction:LEU:40    0
Name: 30, dtype: object

>  <hydroph_interaction:TYR:63>  (31) 
hydroph_interaction:TYR:63    0
hydroph_interaction:TYR:63    0
Name: 30, dtype: object

>  <pistack:TYR:63>  (31) 
pistack:TYR:63    0
pistack:TYR:63    0
Name: 30, dtype: object

>  <hbond:TYR:63>  (31) 
hbond:TYR:63    0
hbond:TYR:63    0
Name: 30, dtype: object

>  <hbond:TYR:64>  (31) 
hbond:TYR:64    0
hbond:TYR:64    0
Name: 30, dtype: object

>  <halogenbond:TYR:64>  (31) 
halogenbond:TYR:64    0
halogenbond:TYR:64    0
Name: 30, dtype: object

>  <hydroph_interaction:TYR:64>  (31) 
hydroph_interaction:TYR:64    0
hydroph_interaction:TYR:64    0
Name: 30, dtype: object

>  <hbond:CYS:65>  (31) 
hbond:CYS:65    0
hbond:CYS:65    0
Name: 30, dtype: object

>  <halogenbond:CYS:65>  (31) 
halogenbond:CYS:65    0
halogenbond:CYS:65    0
Name: 30, dtype: object

>  <hbond:SER:66>  (31) 
hbond:SER:66    0
hbond:SER:66    0
Name: 30, dtype: object

>  <hbond:SER:67>  (31) 
hbond:SER:67    0
hbond:SER:67    0
Name: 30, dtype: object

>  <halogenbond:SER:67>  (31) 
halogenbond:SER:67    0
halogenbond:SER:67    0
Name: 30, dtype: object

>  <hydroph_interaction:ARG:68>  (31) 
hydroph_interaction:ARG:68    0
hydroph_interaction:ARG:68    0
Name: 30, dtype: object

>  <hbond:ARG:68>  (31) 
hbond:ARG:68    0
hbond:ARG:68    0
Name: 30, dtype: object

>  <saltbridge:ARG:68>  (31) 
saltbridge:ARG:68    0
saltbridge:ARG:68    0
Name: 30, dtype: object

>  <pication:ARG:68>  (31) 
pication:ARG:68    0
pication:ARG:68    0
Name: 30, dtype: object

>  <hydroph_interaction:TYR:72>  (31) 
hydroph_interaction:TYR:72    0
hydroph_interaction:TYR:72    0
Name: 30, dtype: object

>  <hydroph_interaction:VAL:74>  (31) 
hydroph_interaction:VAL:74    0
hydroph_interaction:VAL:74    0
Name: 30, dtype: object

>  <hydroph_interaction:PHE:76>  (31) 
hydroph_interaction:PHE:76    0
hydroph_interaction:PHE:76    0
Name: 30, dtype: object

>  <hbond:SER:77>  (31) 
hbond:SER:77    0
hbond:SER:77    0
Name: 30, dtype: object

>  <hbond:SER:80>  (31) 
hbond:SER:80    0
hbond:SER:80    0
Name: 30, dtype: object

>  <hbond:LEU:81>  (31) 
hbond:LEU:81    0
hbond:LEU:81    0
Name: 30, dtype: object

>  <halogenbond:LEU:81>  (31) 
halogenbond:LEU:81    0
halogenbond:LEU:81    0
Name: 30, dtype: object

>  <hydroph_interaction:LEU:81>  (31) 
hydroph_interaction:LEU:81    0
hydroph_interaction:LEU:81    0
Name: 30, dtype: object

>  <hydroph_interaction:ILE:82>  (31) 
hydroph_interaction:ILE:82    0
hydroph_interaction:ILE:82    0
Name: 30, dtype: object

>  <hbond:ILE:82>  (31) 
hbond:ILE:82    0
hbond:ILE:82    0
Name: 30, dtype: object

>  <hydroph_interaction:PHE:83>  (31) 
hydroph_interaction:PHE:83    0
hydroph_interaction:PHE:83    0
Name: 30, dtype: object

>  <hbond:PHE:83>  (31) 
hbond:PHE:83    0
hbond:PHE:83    0
Name: 30, dtype: object

>  <halogenbond:PHE:83>  (31) 
halogenbond:PHE:83    0
halogenbond:PHE:83    0
Name: 30, dtype: object

>  <pistack:PHE:83>  (31) 
pistack:PHE:83    0
pistack:PHE:83    0
Name: 30, dtype: object

>  <hydroph_interaction:VAL:84>  (31) 
hydroph_interaction:VAL:84    0
hydroph_interaction:VAL:84    0
Name: 30, dtype: object

>  <hbond:VAL:84>  (31) 
hbond:VAL:84    0
hbond:VAL:84    0
Name: 30, dtype: object

>  <halogenbond:VAL:84>  (31) 
halogenbond:VAL:84    0
halogenbond:VAL:84    0
Name: 30, dtype: object

>  <hydroph_interaction:GLU:85>  (31) 
hydroph_interaction:GLU:85    0
hydroph_interaction:GLU:85    0
Name: 30, dtype: object

>  <hbond:GLU:85>  (31) 
hbond:GLU:85    0
hbond:GLU:85    0
Name: 30, dtype: object

>  <saltbridge:GLU:85>  (31) 
saltbridge:GLU:85    0
saltbridge:GLU:85    0
Name: 30, dtype: object

>  <halogenbond:GLU:85>  (31) 
halogenbond:GLU:85    0
halogenbond:GLU:85    0
Name: 30, dtype: object

>  <hbond:ALA:86>  (31) 
hbond:ALA:86    0
hbond:ALA:86    0
Name: 30, dtype: object

>  <halogenbond:ALA:86>  (31) 
halogenbond:ALA:86    0
halogenbond:ALA:86    0
Name: 30, dtype: object

>  <hydroph_interaction:ALA:86>  (31) 
hydroph_interaction:ALA:86    0
hydroph_interaction:ALA:86    0
Name: 30, dtype: object

>  <hbond:SER:87>  (31) 
hbond:SER:87    0
hbond:SER:87    0
Name: 30, dtype: object

>  <halogenbond:SER:87>  (31) 
halogenbond:SER:87    0
halogenbond:SER:87    0
Name: 30, dtype: object

>  <hbond:GLU:88>  (31) 
hbond:GLU:88    0
hbond:GLU:88    0
Name: 30, dtype: object

>  <hydroph_interaction:GLU:88>  (31) 
hydroph_interaction:GLU:88    0
hydroph_interaction:GLU:88    0
Name: 30, dtype: object

>  <halogenbond:GLU:88>  (31) 
halogenbond:GLU:88    0
halogenbond:GLU:88    0
Name: 30, dtype: object

>  <saltbridge:GLU:88>  (31) 
saltbridge:GLU:88    0
saltbridge:GLU:88    0
Name: 30, dtype: object

>  <hydroph_interaction:TYR:89>  (31) 
hydroph_interaction:TYR:89    0
hydroph_interaction:TYR:89    0
Name: 30, dtype: object

>  <pistack:TYR:89>  (31) 
pistack:TYR:89    0
pistack:TYR:89    0
Name: 30, dtype: object

>  <hbond:TYR:89>  (31) 
hbond:TYR:89    0
hbond:TYR:89    0
Name: 30, dtype: object

>  <halogenbond:TYR:89>  (31) 
halogenbond:TYR:89    0
halogenbond:TYR:89    0
Name: 30, dtype: object

>  <hbond:TYR:90>  (31) 
hbond:TYR:90    0
hbond:TYR:90    0
Name: 30, dtype: object

>  <hydroph_interaction:TYR:90>  (31) 
hydroph_interaction:TYR:90    0
hydroph_interaction:TYR:90    0
Name: 30, dtype: object

>  <pistack:TYR:90>  (31) 
pistack:TYR:90    0
pistack:TYR:90    0
Name: 30, dtype: object

>  <halogenbond:TYR:90>  (31) 
halogenbond:TYR:90    0
halogenbond:TYR:90    0
Name: 30, dtype: object

>  <pication:TYR:90>  (31) 
pication:TYR:90    0
pication:TYR:90    0
Name: 30, dtype: object

>  <hydroph_interaction:PRO:91>  (31) 
hydroph_interaction:PRO:91    0
hydroph_interaction:PRO:91    0
Name: 30, dtype: object

>  <halogenbond:PRO:91>  (31) 
halogenbond:PRO:91    0
halogenbond:PRO:91    0
Name: 30, dtype: object

>  <hbond:PRO:91>  (31) 
hbond:PRO:91    0
hbond:PRO:91    0
Name: 30, dtype: object

>  <hydroph_interaction:ALA:92>  (31) 
hydroph_interaction:ALA:92    0
hydroph_interaction:ALA:92    0
Name: 30, dtype: object

>  <hbond:ARG:93>  (31) 
hbond:ARG:93    0
hbond:ARG:93    0
Name: 30, dtype: object

>  <pication:ARG:93>  (31) 
pication:ARG:93    0
pication:ARG:93    0
Name: 30, dtype: object

>  <saltbridge:ARG:93>  (31) 
saltbridge:ARG:93    0
saltbridge:ARG:93    0
Name: 30, dtype: object

>  <hydroph_interaction:ARG:93>  (31) 
hydroph_interaction:ARG:93    0
hydroph_interaction:ARG:93    0
Name: 30, dtype: object

>  <halogenbond:ARG:93>  (31) 
halogenbond:ARG:93    0
halogenbond:ARG:93    0
Name: 30, dtype: object

>  <hydroph_interaction:TYR:94>  (31) 
hydroph_interaction:TYR:94    0
hydroph_interaction:TYR:94    0
Name: 30, dtype: object

>  <hbond:TYR:94>  (31) 
hbond:TYR:94    0
hbond:TYR:94    0
Name: 30, dtype: object

>  <halogenbond:GLN:95>  (31) 
halogenbond:GLN:95    0
halogenbond:GLN:95    0
Name: 30, dtype: object

>  <hbond:GLN:95>  (31) 
hbond:GLN:95    0
hbond:GLN:95    0
Name: 30, dtype: object

>  <hydroph_interaction:GLN:95>  (31) 
hydroph_interaction:GLN:95    0
hydroph_interaction:GLN:95    0
Name: 30, dtype: object

>  <hbond:SER:96>  (31) 
hbond:SER:96    0
hbond:SER:96    0
Name: 30, dtype: object

>  <hydroph_interaction:LEU:98>  (31) 
hydroph_interaction:LEU:98    0
hydroph_interaction:LEU:98    0
Name: 30, dtype: object

>  <hbond:LEU:98>  (31) 
hbond:LEU:98    0
hbond:LEU:98    0
Name: 30, dtype: object

>  <hbond:MET:99>  (31) 
hbond:MET:99    0
hbond:MET:99    0
Name: 30, dtype: object

>  <hydroph_interaction:MET:99>  (31) 
hydroph_interaction:MET:99    0
hydroph_interaction:MET:99    0
Name: 30, dtype: object

>  <halogenbond:MET:99>  (31) 
halogenbond:MET:99    0
halogenbond:MET:99    0
Name: 30, dtype: object

>  <hydroph_interaction:LEU:100>  (31) 
hydroph_interaction:LEU:100    0
hydroph_interaction:LEU:100    0
Name: 30, dtype: object

>  <hbond:LEU:100>  (31) 
hbond:LEU:100    0
hbond:LEU:100    0
Name: 30, dtype: object

>  <hbond:ALA:101>  (31) 
hbond:ALA:101    0
hbond:ALA:101    0
Name: 30, dtype: object

>  <hydroph_interaction:ALA:101>  (31) 
hydroph_interaction:ALA:101    0
hydroph_interaction:ALA:101    0
Name: 30, dtype: object

>  <hydroph_interaction:VAL:102>  (31) 
hydroph_interaction:VAL:102    0
hydroph_interaction:VAL:102    0
Name: 30, dtype: object

>  <hbond:VAL:102>  (31) 
hbond:VAL:102    0
hbond:VAL:102    0
Name: 30, dtype: object

>  <hbond:GLY:103>  (31) 
hbond:GLY:103    0
hbond:GLY:103    0
Name: 30, dtype: object

>  <halogenbond:GLY:103>  (31) 
halogenbond:GLY:103    0
halogenbond:GLY:103    0
Name: 30, dtype: object

>  <hydroph_interaction:HIS:104>  (31) 
hydroph_interaction:HIS:104    0
hydroph_interaction:HIS:104    0
Name: 30, dtype: object

>  <hbond:HIS:104>  (31) 
hbond:HIS:104    0
hbond:HIS:104    0
Name: 30, dtype: object

>  <saltbridge:HIS:104>  (31) 
saltbridge:HIS:104    0
saltbridge:HIS:104    0
Name: 30, dtype: object

>  <pication:HIS:104>  (31) 
pication:HIS:104    0
pication:HIS:104    0
Name: 30, dtype: object

>  <pistack:HIS:104>  (31) 
pistack:HIS:104    0
pistack:HIS:104    0
Name: 30, dtype: object

>  <halogenbond:HIS:104>  (31) 
halogenbond:HIS:104    0
halogenbond:HIS:104    0
Name: 30, dtype: object

>  <hbond:SER:105>  (31) 
hbond:SER:105    0
hbond:SER:105    0
Name: 30, dtype: object

>  <halogenbond:SER:105>  (31) 
halogenbond:SER:105    0
halogenbond:SER:105    0
Name: 30, dtype: object

>  <hbond:GLU:106>  (31) 
hbond:GLU:106    0
hbond:GLU:106    0
Name: 30, dtype: object

>  <hydroph_interaction:GLU:106>  (31) 
hydroph_interaction:GLU:106    0
hydroph_interaction:GLU:106    0
Name: 30, dtype: object

>  <saltbridge:GLU:106>  (31) 
saltbridge:GLU:106    0
saltbridge:GLU:106    0
Name: 30, dtype: object

>  <halogenbond:GLU:106>  (31) 
halogenbond:GLU:106    0
halogenbond:GLU:106    0
Name: 30, dtype: object

>  <hydroph_interaction:PRO:107>  (31) 
hydroph_interaction:PRO:107    0
hydroph_interaction:PRO:107    0
Name: 30, dtype: object

>  <hbond:PRO:107>  (31) 
hbond:PRO:107    0
hbond:PRO:107    0
Name: 30, dtype: object

>  <halogenbond:PRO:107>  (31) 
halogenbond:PRO:107    1
halogenbond:PRO:107    1
Name: 30, dtype: object

>  <hbond:GLY:108>  (31) 
hbond:GLY:108    0
hbond:GLY:108    0
Name: 30, dtype: object

>  <halogenbond:GLY:108>  (31) 
halogenbond:GLY:108    0
halogenbond:GLY:108    0
Name: 30, dtype: object

>  <hbond:ASP:109>  (31) 
hbond:ASP:109    0
hbond:ASP:109    0
Name: 30, dtype: object

>  <hydroph_interaction:ASP:109>  (31) 
hydroph_interaction:ASP:109    0
hydroph_interaction:ASP:109    0
Name: 30, dtype: object

>  <saltbridge:ASP:109>  (31) 
saltbridge:ASP:109    0
saltbridge:ASP:109    0
Name: 30, dtype: object

>  <hbond:CYS:110>  (31) 
hbond:CYS:110    0
hbond:CYS:110    0
Name: 30, dtype: object

>  <halogenbond:CYS:110>  (31) 
halogenbond:CYS:110    0
halogenbond:CYS:110    0
Name: 30, dtype: object

>  <hbond:GLY:111>  (31) 
hbond:GLY:111    0
hbond:GLY:111    0
Name: 30, dtype: object

>  <hbond:GLY:112>  (31) 
hbond:GLY:112    0
hbond:GLY:112    0
Name: 30, dtype: object

>  <hbond:ILE:113>  (31) 
hbond:ILE:113    0
hbond:ILE:113    0
Name: 30, dtype: object

>  <hydroph_interaction:LEU:114>  (31) 
hydroph_interaction:LEU:114    0
hydroph_interaction:LEU:114    0
Name: 30, dtype: object

>  <hbond:LEU:114>  (31) 
hbond:LEU:114    0
hbond:LEU:114    0
Name: 30, dtype: object

>  <hydroph_interaction:ILE:123>  (31) 
hydroph_interaction:ILE:123    0
hydroph_interaction:ILE:123    0
Name: 30, dtype: object

>  <hbond:ILE:123>  (31) 
hbond:ILE:123    0
hbond:ILE:123    0
Name: 30, dtype: object

>  <hydroph_interaction:VAL:124>  (31) 
hydroph_interaction:VAL:124    0
hydroph_interaction:VAL:124    0
Name: 30, dtype: object

>  <hbond:VAL:124>  (31) 
hbond:VAL:124    0
hbond:VAL:124    0
Name: 30, dtype: object

>  <halogenbond:VAL:124>  (31) 
halogenbond:VAL:124    0
halogenbond:VAL:124    0
Name: 30, dtype: object

>  <hbond:SER:125>  (31) 
hbond:SER:125    0
hbond:SER:125    0
Name: 30, dtype: object

>  <halogenbond:SER:125>  (31) 
halogenbond:SER:125    0
halogenbond:SER:125    0
Name: 30, dtype: object

>  <hydroph_interaction:THR:126>  (31) 
hydroph_interaction:THR:126    0
hydroph_interaction:THR:126    0
Name: 30, dtype: object

>  <hbond:THR:126>  (31) 
hbond:THR:126    0
hbond:THR:126    0
Name: 30, dtype: object

>  <halogenbond:THR:126>  (31) 
halogenbond:THR:126    0
halogenbond:THR:126    0
Name: 30, dtype: object

>  <hbond:GLY:127>  (31) 
hbond:GLY:127    0
hbond:GLY:127    0
Name: 30, dtype: object

>  <halogenbond:GLY:127>  (31) 
halogenbond:GLY:127    0
halogenbond:GLY:127    0
Name: 30, dtype: object

>  <hydroph_interaction:GLY:127>  (31) 
hydroph_interaction:GLY:127    0
hydroph_interaction:GLY:127    0
Name: 30, dtype: object

>  <hbond:GLY:128>  (31) 
hbond:GLY:128    0
hbond:GLY:128    0
Name: 30, dtype: object

>  <halogenbond:GLY:128>  (31) 
halogenbond:GLY:128    0
halogenbond:GLY:128    0
Name: 30, dtype: object

>  <hydroph_interaction:GLY:128>  (31) 
hydroph_interaction:GLY:128    0
hydroph_interaction:GLY:128    0
Name: 30, dtype: object

>  <hbond:ASN:129>  (31) 
hbond:ASN:129    0
hbond:ASN:129    0
Name: 30, dtype: object

>  <hydroph_interaction:ASN:129>  (31) 
hydroph_interaction:ASN:129    0
hydroph_interaction:ASN:129    0
Name: 30, dtype: object

>  <halogenbond:ASN:129>  (31) 
halogenbond:ASN:129    0
halogenbond:ASN:129    0
Name: 30, dtype: object

>  <hbond:GLY:130>  (31) 
hbond:GLY:130    0
hbond:GLY:130    0
Name: 30, dtype: object

>  <hydroph_interaction:LEU:131>  (31) 
hydroph_interaction:LEU:131    0
hydroph_interaction:LEU:131    0
Name: 30, dtype: object

>  <hbond:LEU:131>  (31) 
hbond:LEU:131    0
hbond:LEU:131    0
Name: 30, dtype: object

>  <halogenbond:LEU:131>  (31) 
halogenbond:LEU:131    0
halogenbond:LEU:131    0
Name: 30, dtype: object

>  <hydroph_interaction:VAL:132>  (31) 
hydroph_interaction:VAL:132    0
hydroph_interaction:VAL:132    0
Name: 30, dtype: object

>  <hbond:VAL:132>  (31) 
hbond:VAL:132    0
hbond:VAL:132    0
Name: 30, dtype: object

>  <hbond:GLY:133>  (31) 
hbond:GLY:133    0
hbond:GLY:133    0
Name: 30, dtype: object

>  <halogenbond:GLY:133>  (31) 
halogenbond:GLY:133    0
halogenbond:GLY:133    0
Name: 30, dtype: object

>  <hydroph_interaction:PHE:134>  (31) 
hydroph_interaction:PHE:134    0
hydroph_interaction:PHE:134    0
Name: 30, dtype: object

>  <hbond:PHE:134>  (31) 
hbond:PHE:134    0
hbond:PHE:134    0
Name: 30, dtype: object

>  <pistack:PHE:134>  (31) 
pistack:PHE:134    0
pistack:PHE:134    0
Name: 30, dtype: object

>  <pication:PHE:134>  (31) 
pication:PHE:134    0
pication:PHE:134    0
Name: 30, dtype: object

>  <hydroph_interaction:ALA:135>  (31) 
hydroph_interaction:ALA:135    0
hydroph_interaction:ALA:135    0
Name: 30, dtype: object

>  <hbond:ALA:135>  (31) 
hbond:ALA:135    0
hbond:ALA:135    0
Name: 30, dtype: object

$$$$
Z4497063755
     RDKit          3D

 25 25  0  0  0  0  0  0  0  0999 V2000
   -0.2640   12.3060   16.9630 C   0  0  0  0  0  0  0  0  0  0  0  0
   -0.8220   13.6250   17.4760 C   0  0  0  0  0  0  0  0  0  0  0  0
   -2.0030   13.9660   17.4070 O   0  0  0  0  0  0  0  0  0  0  0  0
    0.2640   14.4450   18.0500 N   0  0  0  0  0  0  0  0  0  0  0  0
    0.8630   14.1090   19.3010 C   0  0  0  0  0  0  0  0  0  0  0  0
    1.8900   12.9950   19.1520 C   0  0  0  0  0  0  0  0  0  0  0  0
    2.6890   13.1160   17.9100 C   0  0  0  0  0  0  0  0  0  0  0  0
    3.7560   12.1110   17.5980 C   0  0  0  0  0  0  0  0  0  0  0  0
    3.8350   11.1350   18.6080 C   0  0  0  0  0  0  0  0  0  0  0  0
    3.0530   11.0950   19.7260 C   0  0  0  0  0  0  0  0  0  0  0  0
    3.2740   10.1070   20.5480 F   0  0  0  0  0  0  0  0  0  0  0  0
    2.0970   11.9930   20.0140 C   0  0  0  0  0  0  0  0  0  0  0  0
    1.2970   11.9120   21.2110 C   0  0  0  0  0  0  0  0  0  0  0  0
   -1.0470   11.5510   16.8600 H   0  0  0  0  0  0  0  0  0  0  0  0
    0.4850   11.9140   17.6590 H   0  0  0  0  0  0  0  0  0  0  0  0
    0.2180   12.4390   15.9910 H   0  0  0  0  0  0  0  0  0  0  0  0
    0.8120   15.0260   17.4220 H   0  0  0  0  0  0  0  0  0  0  0  0
    0.0750   13.8060   20.0010 H   0  0  0  0  0  0  0  0  0  0  0  0
    1.3570   15.0030   19.7020 H   0  0  0  0  0  0  0  0  0  0  0  0
    2.5120   13.9340   17.2090 H   0  0  0  0  0  0  0  0  0  0  0  0
    4.3670   12.1440   16.7160 H   0  0  0  0  0  0  0  0  0  0  0  0
    4.5650   10.3410   18.5070 H   0  0  0  0  0  0  0  0  0  0  0  0
    0.6820   12.8060   21.3210 H   0  0  0  0  0  0  0  0  0  0  0  0
    1.9320   11.8770   22.0920 H   0  0  0  0  0  0  0  0  0  0  0  0
    0.6480   11.0380   21.1870 H   0  0  0  0  0  0  0  0  0  0  0  0
  1  2  1  0
  2  3  2  0
  2  4  1  0
  4  5  1  0
  5  6  1  0
  6  7  2  0
  7  8  1  0
  8  9  2  0
  9 10  1  0
 10 11  1  0
 10 12  2  0
 12 13  1  0
 12  6  1  0
  1 14  1  0
  1 15  1  0
  1 16  1  0
  4 17  1  0
  5 18  1  0
  5 19  1  0
  7 20  1  0
  8 21  1  0
  9 22  1  0
 13 23  1  0
 13 24  1  0
 13 25  1  0
A    1
 C1 
A    2
 C2 
A    3
 O1 
A    4
 N1 
A    5
 C3 
A    6
 C4 
A    7
 C5 
A    8
 C6 
A    9
 C7 
A   10
 C8 
A   11
 F1 
A   12
 C9 
A   13
 C10
A   14
 H1 
A   15
 H2 
A   16
 H3 
A   17
 H4 
A   18
 H5 
A   19
 H6 
A   20
 H7 
A   21
 H8 
A   22
 H9 
A   23
 H10
A   24
 H11
A   25
 H12
M  END
>  <ref_pdb>  (32) 
x0310_0A

>  <ref_mols>  (32) 
x0473_0A,x0812_0A

>  <original SMILES>  (32) 
CC(=O)NCc1cccc(F)c1C

>  <rationale>  (32) 
info halogenbond:L131; hbond:F83; hydroph_interaction:V84+I82+L100+L131+L98; 

>  <intxn_cluster>  (32) 
204

>  <intxn_cluster_rank>  (32) 
7

>  <N_interactions>  (32) 
8

>  <∆∆G>  (32) 
-6.405057

>  <$/mg>  (32) 
163.0

>  <comRMSD>  (32) 
0.793627

>  <N_rotatable_bonds>  (32) 
4

>  <N_analogues_07>  (32) 
0

>  <deep_P1_sidechain>  (32) 
False

>  <farthest_distance_to_substrate>  (32) 
4.987253

>  <hbond:SER:7>  (32) 
hbond:SER:7    0
hbond:SER:7    0
Name: 31, dtype: object

>  <halogenbond:SER:7>  (32) 
halogenbond:SER:7    0
halogenbond:SER:7    0
Name: 31, dtype: object

>  <hbond:GLY:8>  (32) 
hbond:GLY:8    0
hbond:GLY:8    0
Name: 31, dtype: object

>  <hydroph_interaction:ASN:19>  (32) 
hydroph_interaction:ASN:19    0
hydroph_interaction:ASN:19    0
Name: 31, dtype: object

>  <hbond:ASN:19>  (32) 
hbond:ASN:19    0
hbond:ASN:19    0
Name: 31, dtype: object

>  <halogenbond:ASN:19>  (32) 
halogenbond:ASN:19    0
halogenbond:ASN:19    0
Name: 31, dtype: object

>  <hbond:ARG:20>  (32) 
hbond:ARG:20    0
hbond:ARG:20    0
Name: 31, dtype: object

>  <hydroph_interaction:ARG:20>  (32) 
hydroph_interaction:ARG:20    0
hydroph_interaction:ARG:20    0
Name: 31, dtype: object

>  <saltbridge:ARG:20>  (32) 
saltbridge:ARG:20    0
saltbridge:ARG:20    0
Name: 31, dtype: object

>  <halogenbond:ARG:20>  (32) 
halogenbond:ARG:20    0
halogenbond:ARG:20    0
Name: 31, dtype: object

>  <pication:ARG:20>  (32) 
pication:ARG:20    0
pication:ARG:20    0
Name: 31, dtype: object

>  <hbond:HIS:21>  (32) 
hbond:HIS:21    0
hbond:HIS:21    0
Name: 31, dtype: object

>  <hydroph_interaction:HIS:21>  (32) 
hydroph_interaction:HIS:21    0
hydroph_interaction:HIS:21    0
Name: 31, dtype: object

>  <saltbridge:HIS:21>  (32) 
saltbridge:HIS:21    0
saltbridge:HIS:21    0
Name: 31, dtype: object

>  <pistack:HIS:21>  (32) 
pistack:HIS:21    0
pistack:HIS:21    0
Name: 31, dtype: object

>  <pication:HIS:21>  (32) 
pication:HIS:21    0
pication:HIS:21    0
Name: 31, dtype: object

>  <halogenbond:HIS:21>  (32) 
halogenbond:HIS:21    0
halogenbond:HIS:21    0
Name: 31, dtype: object

>  <hydroph_interaction:LEU:22>  (32) 
hydroph_interaction:LEU:22    0
hydroph_interaction:LEU:22    0
Name: 31, dtype: object

>  <hbond:LEU:22>  (32) 
hbond:LEU:22    0
hbond:LEU:22    0
Name: 31, dtype: object

>  <hydroph_interaction:TRP:28>  (32) 
hydroph_interaction:TRP:28    0
hydroph_interaction:TRP:28    0
Name: 31, dtype: object

>  <hbond:SER:36>  (32) 
hbond:SER:36    0
hbond:SER:36    0
Name: 31, dtype: object

>  <halogenbond:SER:36>  (32) 
halogenbond:SER:36    0
halogenbond:SER:36    0
Name: 31, dtype: object

>  <hbond:ARG:38>  (32) 
hbond:ARG:38    0
hbond:ARG:38    0
Name: 31, dtype: object

>  <halogenbond:ARG:38>  (32) 
halogenbond:ARG:38    0
halogenbond:ARG:38    0
Name: 31, dtype: object

>  <hbond:ASP:39>  (32) 
hbond:ASP:39    0
hbond:ASP:39    0
Name: 31, dtype: object

>  <saltbridge:ASP:39>  (32) 
saltbridge:ASP:39    0
saltbridge:ASP:39    0
Name: 31, dtype: object

>  <hydroph_interaction:ASP:39>  (32) 
hydroph_interaction:ASP:39    0
hydroph_interaction:ASP:39    0
Name: 31, dtype: object

>  <halogenbond:ASP:39>  (32) 
halogenbond:ASP:39    0
halogenbond:ASP:39    0
Name: 31, dtype: object

>  <hydroph_interaction:LEU:40>  (32) 
hydroph_interaction:LEU:40    0
hydroph_interaction:LEU:40    0
Name: 31, dtype: object

>  <hydroph_interaction:TYR:63>  (32) 
hydroph_interaction:TYR:63    0
hydroph_interaction:TYR:63    0
Name: 31, dtype: object

>  <pistack:TYR:63>  (32) 
pistack:TYR:63    0
pistack:TYR:63    0
Name: 31, dtype: object

>  <hbond:TYR:63>  (32) 
hbond:TYR:63    0
hbond:TYR:63    0
Name: 31, dtype: object

>  <hbond:TYR:64>  (32) 
hbond:TYR:64    0
hbond:TYR:64    0
Name: 31, dtype: object

>  <halogenbond:TYR:64>  (32) 
halogenbond:TYR:64    0
halogenbond:TYR:64    0
Name: 31, dtype: object

>  <hydroph_interaction:TYR:64>  (32) 
hydroph_interaction:TYR:64    0
hydroph_interaction:TYR:64    0
Name: 31, dtype: object

>  <hbond:CYS:65>  (32) 
hbond:CYS:65    0
hbond:CYS:65    0
Name: 31, dtype: object

>  <halogenbond:CYS:65>  (32) 
halogenbond:CYS:65    0
halogenbond:CYS:65    0
Name: 31, dtype: object

>  <hbond:SER:66>  (32) 
hbond:SER:66    0
hbond:SER:66    0
Name: 31, dtype: object

>  <hbond:SER:67>  (32) 
hbond:SER:67    0
hbond:SER:67    0
Name: 31, dtype: object

>  <halogenbond:SER:67>  (32) 
halogenbond:SER:67    0
halogenbond:SER:67    0
Name: 31, dtype: object

>  <hydroph_interaction:ARG:68>  (32) 
hydroph_interaction:ARG:68    0
hydroph_interaction:ARG:68    0
Name: 31, dtype: object

>  <hbond:ARG:68>  (32) 
hbond:ARG:68    0
hbond:ARG:68    0
Name: 31, dtype: object

>  <saltbridge:ARG:68>  (32) 
saltbridge:ARG:68    0
saltbridge:ARG:68    0
Name: 31, dtype: object

>  <pication:ARG:68>  (32) 
pication:ARG:68    0
pication:ARG:68    0
Name: 31, dtype: object

>  <hydroph_interaction:TYR:72>  (32) 
hydroph_interaction:TYR:72    0
hydroph_interaction:TYR:72    0
Name: 31, dtype: object

>  <hydroph_interaction:VAL:74>  (32) 
hydroph_interaction:VAL:74    0
hydroph_interaction:VAL:74    0
Name: 31, dtype: object

>  <hydroph_interaction:PHE:76>  (32) 
hydroph_interaction:PHE:76    0
hydroph_interaction:PHE:76    0
Name: 31, dtype: object

>  <hbond:SER:77>  (32) 
hbond:SER:77    0
hbond:SER:77    0
Name: 31, dtype: object

>  <hbond:SER:80>  (32) 
hbond:SER:80    0
hbond:SER:80    0
Name: 31, dtype: object

>  <hbond:LEU:81>  (32) 
hbond:LEU:81    0
hbond:LEU:81    0
Name: 31, dtype: object

>  <halogenbond:LEU:81>  (32) 
halogenbond:LEU:81    0
halogenbond:LEU:81    0
Name: 31, dtype: object

>  <hydroph_interaction:LEU:81>  (32) 
hydroph_interaction:LEU:81    0
hydroph_interaction:LEU:81    0
Name: 31, dtype: object

>  <hydroph_interaction:ILE:82>  (32) 
hydroph_interaction:ILE:82    1
hydroph_interaction:ILE:82    1
Name: 31, dtype: object

>  <hbond:ILE:82>  (32) 
hbond:ILE:82    0
hbond:ILE:82    0
Name: 31, dtype: object

>  <hydroph_interaction:PHE:83>  (32) 
hydroph_interaction:PHE:83    0
hydroph_interaction:PHE:83    0
Name: 31, dtype: object

>  <hbond:PHE:83>  (32) 
hbond:PHE:83    1
hbond:PHE:83    1
Name: 31, dtype: object

>  <halogenbond:PHE:83>  (32) 
halogenbond:PHE:83    0
halogenbond:PHE:83    0
Name: 31, dtype: object

>  <pistack:PHE:83>  (32) 
pistack:PHE:83    0
pistack:PHE:83    0
Name: 31, dtype: object

>  <hydroph_interaction:VAL:84>  (32) 
hydroph_interaction:VAL:84    1
hydroph_interaction:VAL:84    1
Name: 31, dtype: object

>  <hbond:VAL:84>  (32) 
hbond:VAL:84    0
hbond:VAL:84    0
Name: 31, dtype: object

>  <halogenbond:VAL:84>  (32) 
halogenbond:VAL:84    0
halogenbond:VAL:84    0
Name: 31, dtype: object

>  <hydroph_interaction:GLU:85>  (32) 
hydroph_interaction:GLU:85    0
hydroph_interaction:GLU:85    0
Name: 31, dtype: object

>  <hbond:GLU:85>  (32) 
hbond:GLU:85    0
hbond:GLU:85    0
Name: 31, dtype: object

>  <saltbridge:GLU:85>  (32) 
saltbridge:GLU:85    0
saltbridge:GLU:85    0
Name: 31, dtype: object

>  <halogenbond:GLU:85>  (32) 
halogenbond:GLU:85    0
halogenbond:GLU:85    0
Name: 31, dtype: object

>  <hbond:ALA:86>  (32) 
hbond:ALA:86    0
hbond:ALA:86    0
Name: 31, dtype: object

>  <halogenbond:ALA:86>  (32) 
halogenbond:ALA:86    0
halogenbond:ALA:86    0
Name: 31, dtype: object

>  <hydroph_interaction:ALA:86>  (32) 
hydroph_interaction:ALA:86    0
hydroph_interaction:ALA:86    0
Name: 31, dtype: object

>  <hbond:SER:87>  (32) 
hbond:SER:87    0
hbond:SER:87    0
Name: 31, dtype: object

>  <halogenbond:SER:87>  (32) 
halogenbond:SER:87    0
halogenbond:SER:87    0
Name: 31, dtype: object

>  <hbond:GLU:88>  (32) 
hbond:GLU:88    0
hbond:GLU:88    0
Name: 31, dtype: object

>  <hydroph_interaction:GLU:88>  (32) 
hydroph_interaction:GLU:88    0
hydroph_interaction:GLU:88    0
Name: 31, dtype: object

>  <halogenbond:GLU:88>  (32) 
halogenbond:GLU:88    0
halogenbond:GLU:88    0
Name: 31, dtype: object

>  <saltbridge:GLU:88>  (32) 
saltbridge:GLU:88    0
saltbridge:GLU:88    0
Name: 31, dtype: object

>  <hydroph_interaction:TYR:89>  (32) 
hydroph_interaction:TYR:89    0
hydroph_interaction:TYR:89    0
Name: 31, dtype: object

>  <pistack:TYR:89>  (32) 
pistack:TYR:89    0
pistack:TYR:89    0
Name: 31, dtype: object

>  <hbond:TYR:89>  (32) 
hbond:TYR:89    0
hbond:TYR:89    0
Name: 31, dtype: object

>  <halogenbond:TYR:89>  (32) 
halogenbond:TYR:89    0
halogenbond:TYR:89    0
Name: 31, dtype: object

>  <hbond:TYR:90>  (32) 
hbond:TYR:90    0
hbond:TYR:90    0
Name: 31, dtype: object

>  <hydroph_interaction:TYR:90>  (32) 
hydroph_interaction:TYR:90    0
hydroph_interaction:TYR:90    0
Name: 31, dtype: object

>  <pistack:TYR:90>  (32) 
pistack:TYR:90    0
pistack:TYR:90    0
Name: 31, dtype: object

>  <halogenbond:TYR:90>  (32) 
halogenbond:TYR:90    0
halogenbond:TYR:90    0
Name: 31, dtype: object

>  <pication:TYR:90>  (32) 
pication:TYR:90    0
pication:TYR:90    0
Name: 31, dtype: object

>  <hydroph_interaction:PRO:91>  (32) 
hydroph_interaction:PRO:91    0
hydroph_interaction:PRO:91    0
Name: 31, dtype: object

>  <halogenbond:PRO:91>  (32) 
halogenbond:PRO:91    0
halogenbond:PRO:91    0
Name: 31, dtype: object

>  <hbond:PRO:91>  (32) 
hbond:PRO:91    0
hbond:PRO:91    0
Name: 31, dtype: object

>  <hydroph_interaction:ALA:92>  (32) 
hydroph_interaction:ALA:92    0
hydroph_interaction:ALA:92    0
Name: 31, dtype: object

>  <hbond:ARG:93>  (32) 
hbond:ARG:93    0
hbond:ARG:93    0
Name: 31, dtype: object

>  <pication:ARG:93>  (32) 
pication:ARG:93    0
pication:ARG:93    0
Name: 31, dtype: object

>  <saltbridge:ARG:93>  (32) 
saltbridge:ARG:93    0
saltbridge:ARG:93    0
Name: 31, dtype: object

>  <hydroph_interaction:ARG:93>  (32) 
hydroph_interaction:ARG:93    0
hydroph_interaction:ARG:93    0
Name: 31, dtype: object

>  <halogenbond:ARG:93>  (32) 
halogenbond:ARG:93    0
halogenbond:ARG:93    0
Name: 31, dtype: object

>  <hydroph_interaction:TYR:94>  (32) 
hydroph_interaction:TYR:94    0
hydroph_interaction:TYR:94    0
Name: 31, dtype: object

>  <hbond:TYR:94>  (32) 
hbond:TYR:94    0
hbond:TYR:94    0
Name: 31, dtype: object

>  <halogenbond:GLN:95>  (32) 
halogenbond:GLN:95    0
halogenbond:GLN:95    0
Name: 31, dtype: object

>  <hbond:GLN:95>  (32) 
hbond:GLN:95    0
hbond:GLN:95    0
Name: 31, dtype: object

>  <hydroph_interaction:GLN:95>  (32) 
hydroph_interaction:GLN:95    0
hydroph_interaction:GLN:95    0
Name: 31, dtype: object

>  <hbond:SER:96>  (32) 
hbond:SER:96    0
hbond:SER:96    0
Name: 31, dtype: object

>  <hydroph_interaction:LEU:98>  (32) 
hydroph_interaction:LEU:98    1
hydroph_interaction:LEU:98    1
Name: 31, dtype: object

>  <hbond:LEU:98>  (32) 
hbond:LEU:98    0
hbond:LEU:98    0
Name: 31, dtype: object

>  <hbond:MET:99>  (32) 
hbond:MET:99    0
hbond:MET:99    0
Name: 31, dtype: object

>  <hydroph_interaction:MET:99>  (32) 
hydroph_interaction:MET:99    0
hydroph_interaction:MET:99    0
Name: 31, dtype: object

>  <halogenbond:MET:99>  (32) 
halogenbond:MET:99    0
halogenbond:MET:99    0
Name: 31, dtype: object

>  <hydroph_interaction:LEU:100>  (32) 
hydroph_interaction:LEU:100    2
hydroph_interaction:LEU:100    2
Name: 31, dtype: object

>  <hbond:LEU:100>  (32) 
hbond:LEU:100    0
hbond:LEU:100    0
Name: 31, dtype: object

>  <hbond:ALA:101>  (32) 
hbond:ALA:101    0
hbond:ALA:101    0
Name: 31, dtype: object

>  <hydroph_interaction:ALA:101>  (32) 
hydroph_interaction:ALA:101    0
hydroph_interaction:ALA:101    0
Name: 31, dtype: object

>  <hydroph_interaction:VAL:102>  (32) 
hydroph_interaction:VAL:102    0
hydroph_interaction:VAL:102    0
Name: 31, dtype: object

>  <hbond:VAL:102>  (32) 
hbond:VAL:102    0
hbond:VAL:102    0
Name: 31, dtype: object

>  <hbond:GLY:103>  (32) 
hbond:GLY:103    0
hbond:GLY:103    0
Name: 31, dtype: object

>  <halogenbond:GLY:103>  (32) 
halogenbond:GLY:103    0
halogenbond:GLY:103    0
Name: 31, dtype: object

>  <hydroph_interaction:HIS:104>  (32) 
hydroph_interaction:HIS:104    0
hydroph_interaction:HIS:104    0
Name: 31, dtype: object

>  <hbond:HIS:104>  (32) 
hbond:HIS:104    0
hbond:HIS:104    0
Name: 31, dtype: object

>  <saltbridge:HIS:104>  (32) 
saltbridge:HIS:104    0
saltbridge:HIS:104    0
Name: 31, dtype: object

>  <pication:HIS:104>  (32) 
pication:HIS:104    0
pication:HIS:104    0
Name: 31, dtype: object

>  <pistack:HIS:104>  (32) 
pistack:HIS:104    0
pistack:HIS:104    0
Name: 31, dtype: object

>  <halogenbond:HIS:104>  (32) 
halogenbond:HIS:104    0
halogenbond:HIS:104    0
Name: 31, dtype: object

>  <hbond:SER:105>  (32) 
hbond:SER:105    0
hbond:SER:105    0
Name: 31, dtype: object

>  <halogenbond:SER:105>  (32) 
halogenbond:SER:105    0
halogenbond:SER:105    0
Name: 31, dtype: object

>  <hbond:GLU:106>  (32) 
hbond:GLU:106    0
hbond:GLU:106    0
Name: 31, dtype: object

>  <hydroph_interaction:GLU:106>  (32) 
hydroph_interaction:GLU:106    0
hydroph_interaction:GLU:106    0
Name: 31, dtype: object

>  <saltbridge:GLU:106>  (32) 
saltbridge:GLU:106    0
saltbridge:GLU:106    0
Name: 31, dtype: object

>  <halogenbond:GLU:106>  (32) 
halogenbond:GLU:106    0
halogenbond:GLU:106    0
Name: 31, dtype: object

>  <hydroph_interaction:PRO:107>  (32) 
hydroph_interaction:PRO:107    0
hydroph_interaction:PRO:107    0
Name: 31, dtype: object

>  <hbond:PRO:107>  (32) 
hbond:PRO:107    0
hbond:PRO:107    0
Name: 31, dtype: object

>  <halogenbond:PRO:107>  (32) 
halogenbond:PRO:107    0
halogenbond:PRO:107    0
Name: 31, dtype: object

>  <hbond:GLY:108>  (32) 
hbond:GLY:108    0
hbond:GLY:108    0
Name: 31, dtype: object

>  <halogenbond:GLY:108>  (32) 
halogenbond:GLY:108    0
halogenbond:GLY:108    0
Name: 31, dtype: object

>  <hbond:ASP:109>  (32) 
hbond:ASP:109    0
hbond:ASP:109    0
Name: 31, dtype: object

>  <hydroph_interaction:ASP:109>  (32) 
hydroph_interaction:ASP:109    0
hydroph_interaction:ASP:109    0
Name: 31, dtype: object

>  <saltbridge:ASP:109>  (32) 
saltbridge:ASP:109    0
saltbridge:ASP:109    0
Name: 31, dtype: object

>  <hbond:CYS:110>  (32) 
hbond:CYS:110    0
hbond:CYS:110    0
Name: 31, dtype: object

>  <halogenbond:CYS:110>  (32) 
halogenbond:CYS:110    0
halogenbond:CYS:110    0
Name: 31, dtype: object

>  <hbond:GLY:111>  (32) 
hbond:GLY:111    0
hbond:GLY:111    0
Name: 31, dtype: object

>  <hbond:GLY:112>  (32) 
hbond:GLY:112    0
hbond:GLY:112    0
Name: 31, dtype: object

>  <hbond:ILE:113>  (32) 
hbond:ILE:113    0
hbond:ILE:113    0
Name: 31, dtype: object

>  <hydroph_interaction:LEU:114>  (32) 
hydroph_interaction:LEU:114    0
hydroph_interaction:LEU:114    0
Name: 31, dtype: object

>  <hbond:LEU:114>  (32) 
hbond:LEU:114    0
hbond:LEU:114    0
Name: 31, dtype: object

>  <hydroph_interaction:ILE:123>  (32) 
hydroph_interaction:ILE:123    0
hydroph_interaction:ILE:123    0
Name: 31, dtype: object

>  <hbond:ILE:123>  (32) 
hbond:ILE:123    0
hbond:ILE:123    0
Name: 31, dtype: object

>  <hydroph_interaction:VAL:124>  (32) 
hydroph_interaction:VAL:124    0
hydroph_interaction:VAL:124    0
Name: 31, dtype: object

>  <hbond:VAL:124>  (32) 
hbond:VAL:124    0
hbond:VAL:124    0
Name: 31, dtype: object

>  <halogenbond:VAL:124>  (32) 
halogenbond:VAL:124    0
halogenbond:VAL:124    0
Name: 31, dtype: object

>  <hbond:SER:125>  (32) 
hbond:SER:125    0
hbond:SER:125    0
Name: 31, dtype: object

>  <halogenbond:SER:125>  (32) 
halogenbond:SER:125    0
halogenbond:SER:125    0
Name: 31, dtype: object

>  <hydroph_interaction:THR:126>  (32) 
hydroph_interaction:THR:126    0
hydroph_interaction:THR:126    0
Name: 31, dtype: object

>  <hbond:THR:126>  (32) 
hbond:THR:126    0
hbond:THR:126    0
Name: 31, dtype: object

>  <halogenbond:THR:126>  (32) 
halogenbond:THR:126    0
halogenbond:THR:126    0
Name: 31, dtype: object

>  <hbond:GLY:127>  (32) 
hbond:GLY:127    0
hbond:GLY:127    0
Name: 31, dtype: object

>  <halogenbond:GLY:127>  (32) 
halogenbond:GLY:127    0
halogenbond:GLY:127    0
Name: 31, dtype: object

>  <hydroph_interaction:GLY:127>  (32) 
hydroph_interaction:GLY:127    0
hydroph_interaction:GLY:127    0
Name: 31, dtype: object

>  <hbond:GLY:128>  (32) 
hbond:GLY:128    0
hbond:GLY:128    0
Name: 31, dtype: object

>  <halogenbond:GLY:128>  (32) 
halogenbond:GLY:128    0
halogenbond:GLY:128    0
Name: 31, dtype: object

>  <hydroph_interaction:GLY:128>  (32) 
hydroph_interaction:GLY:128    0
hydroph_interaction:GLY:128    0
Name: 31, dtype: object

>  <hbond:ASN:129>  (32) 
hbond:ASN:129    0
hbond:ASN:129    0
Name: 31, dtype: object

>  <hydroph_interaction:ASN:129>  (32) 
hydroph_interaction:ASN:129    0
hydroph_interaction:ASN:129    0
Name: 31, dtype: object

>  <halogenbond:ASN:129>  (32) 
halogenbond:ASN:129    0
halogenbond:ASN:129    0
Name: 31, dtype: object

>  <hbond:GLY:130>  (32) 
hbond:GLY:130    0
hbond:GLY:130    0
Name: 31, dtype: object

>  <hydroph_interaction:LEU:131>  (32) 
hydroph_interaction:LEU:131    1
hydroph_interaction:LEU:131    1
Name: 31, dtype: object

>  <hbond:LEU:131>  (32) 
hbond:LEU:131    0
hbond:LEU:131    0
Name: 31, dtype: object

>  <halogenbond:LEU:131>  (32) 
halogenbond:LEU:131    1
halogenbond:LEU:131    1
Name: 31, dtype: object

>  <hydroph_interaction:VAL:132>  (32) 
hydroph_interaction:VAL:132    0
hydroph_interaction:VAL:132    0
Name: 31, dtype: object

>  <hbond:VAL:132>  (32) 
hbond:VAL:132    0
hbond:VAL:132    0
Name: 31, dtype: object

>  <hbond:GLY:133>  (32) 
hbond:GLY:133    0
hbond:GLY:133    0
Name: 31, dtype: object

>  <halogenbond:GLY:133>  (32) 
halogenbond:GLY:133    0
halogenbond:GLY:133    0
Name: 31, dtype: object

>  <hydroph_interaction:PHE:134>  (32) 
hydroph_interaction:PHE:134    0
hydroph_interaction:PHE:134    0
Name: 31, dtype: object

>  <hbond:PHE:134>  (32) 
hbond:PHE:134    0
hbond:PHE:134    0
Name: 31, dtype: object

>  <pistack:PHE:134>  (32) 
pistack:PHE:134    0
pistack:PHE:134    0
Name: 31, dtype: object

>  <pication:PHE:134>  (32) 
pication:PHE:134    0
pication:PHE:134    0
Name: 31, dtype: object

>  <hydroph_interaction:ALA:135>  (32) 
hydroph_interaction:ALA:135    0
hydroph_interaction:ALA:135    0
Name: 31, dtype: object

>  <hbond:ALA:135>  (32) 
hbond:ALA:135    0
hbond:ALA:135    0
Name: 31, dtype: object

$$$$
PV_005192650565
     RDKit          3D

 30 32  0  0  0  0  0  0  0  0999 V2000
   13.3120   16.2420   20.4960 C   0  0  0  0  0  0  0  0  0  0  0  0
   12.2900   15.3600   21.0740 C   0  0  0  0  0  0  0  0  0  0  0  0
   10.9210   15.3840   20.7300 C   0  0  0  0  0  0  0  0  0  0  0  0
   10.0300   14.4800   21.3410 C   0  0  0  0  0  0  0  0  0  0  0  0
   10.5390   13.5640   22.2810 C   0  0  0  0  0  0  0  0  0  0  0  0
    9.8110   12.5310   22.9940 C   0  0  0  0  0  0  0  0  0  0  0  0
   10.2140   11.3020   22.6760 N   0  0  0  0  0  0  0  0  0  0  0  0
    9.4820   10.4940   23.3940 N   0  0  0  0  0  0  0  0  0  0  0  0
    9.7260    9.1010   23.2310 C   0  0  0  0  0  0  0  0  0  0  0  0
    8.5790   11.1160   24.2040 C   0  0  0  0  0  0  0  0  0  0  0  0
    7.6340   10.6440   25.0990 C   0  0  0  0  0  0  0  0  0  0  0  0
    6.8800   11.5960   25.7580 C   0  0  0  0  0  0  0  0  0  0  0  0
    7.1110   12.9350   25.4920 C   0  0  0  0  0  0  0  0  0  0  0  0
    8.0270   13.4200   24.6240 N   0  0  0  0  0  0  0  0  0  0  0  0
    8.7630   12.4760   23.9750 C   0  0  0  0  0  0  0  0  0  0  0  0
   11.8830   13.5940   22.5800 C   0  0  0  0  0  0  0  0  0  0  0  0
   12.7450   14.4670   22.0000 C   0  0  0  0  0  0  0  0  0  0  0  0
   13.5340   15.9360   19.4780 H   0  0  0  0  0  0  0  0  0  0  0  0
   12.9910   17.2850   20.5030 H   0  0  0  0  0  0  0  0  0  0  0  0
   14.2260   16.1460   21.0730 H   0  0  0  0  0  0  0  0  0  0  0  0
   10.5430   16.0920   19.9950 H   0  0  0  0  0  0  0  0  0  0  0  0
    8.9760   14.4940   21.0740 H   0  0  0  0  0  0  0  0  0  0  0  0
    9.2170    8.5830   24.0340 H   0  0  0  0  0  0  0  0  0  0  0  0
   10.8060    8.9320   23.2880 H   0  0  0  0  0  0  0  0  0  0  0  0
    9.3400    8.7620   22.2700 H   0  0  0  0  0  0  0  0  0  0  0  0
    7.4920    9.5960   25.2720 H   0  0  0  0  0  0  0  0  0  0  0  0
    6.1200   11.3030   26.4750 H   0  0  0  0  0  0  0  0  0  0  0  0
    6.5290   13.6980   26.0020 H   0  0  0  0  0  0  0  0  0  0  0  0
   12.2940   12.8970   23.3060 H   0  0  0  0  0  0  0  0  0  0  0  0
   13.7950   14.4410   22.2760 H   0  0  0  0  0  0  0  0  0  0  0  0
  1  2  1  0
  2  3  2  0
  3  4  1  0
  4  5  2  0
  5  6  1  0
  6  7  2  0
  7  8  1  0
  8  9  1  0
  8 10  1  0
 10 11  2  0
 11 12  1  0
 12 13  2  0
 13 14  1  0
 14 15  2  0
  5 16  1  0
 16 17  2  0
 17  2  1  0
 15  6  1  0
 15 10  1  0
  1 18  1  0
  1 19  1  0
  1 20  1  0
  3 21  1  0
  4 22  1  0
  9 23  1  0
  9 24  1  0
  9 25  1  0
 11 26  1  0
 12 27  1  0
 13 28  1  0
 16 29  1  0
 17 30  1  0
A    1
 C1 
A    2
 C2 
A    3
 C3 
A    4
 C4 
A    5
 C5 
A    6
 C6 
A    7
 N1 
A    8
 N2 
A    9
 C7 
A   10
 C8 
A   11
 C9 
A   12
 C10
A   13
 C11
A   14
 N3 
A   15
 C12
A   16
 C13
A   17
 C14
A   18
 H1 
A   19
 H2 
A   20
 H3 
A   21
 H4 
A   22
 H5 
A   23
 H6 
A   24
 H7 
A   25
 H8 
A   26
 H9 
A   27
 H10
A   28
 H11
A   29
 H12
A   30
 H13
M  END
>  <ref_pdb>  (33) 
x0310_0A

>  <ref_mols>  (33) 
x0451_0A,x0812_0A

>  <original SMILES>  (33) 
Cc1ccc(-c2nn(C)c3cccnc23)cc1

>  <rationale>  (33) 
info hydroph_interaction:Y89+Y90+H21; 

>  <intxn_cluster>  (33) 
206

>  <intxn_cluster_rank>  (33) 
7

>  <N_interactions>  (33) 
3

>  <∆∆G>  (33) 
-11.325735

>  <$/mg>  (33) 
163.0

>  <comRMSD>  (33) 
0.834493

>  <N_rotatable_bonds>  (33) 
3

>  <N_analogues_07>  (33) 
15

>  <deep_P1_sidechain>  (33) 
False

>  <farthest_distance_to_substrate>  (33) 
2.555977

>  <hbond:SER:7>  (33) 
hbond:SER:7    0
hbond:SER:7    0
Name: 32, dtype: object

>  <halogenbond:SER:7>  (33) 
halogenbond:SER:7    0
halogenbond:SER:7    0
Name: 32, dtype: object

>  <hbond:GLY:8>  (33) 
hbond:GLY:8    0
hbond:GLY:8    0
Name: 32, dtype: object

>  <hydroph_interaction:ASN:19>  (33) 
hydroph_interaction:ASN:19    0
hydroph_interaction:ASN:19    0
Name: 32, dtype: object

>  <hbond:ASN:19>  (33) 
hbond:ASN:19    0
hbond:ASN:19    0
Name: 32, dtype: object

>  <halogenbond:ASN:19>  (33) 
halogenbond:ASN:19    0
halogenbond:ASN:19    0
Name: 32, dtype: object

>  <hbond:ARG:20>  (33) 
hbond:ARG:20    0
hbond:ARG:20    0
Name: 32, dtype: object

>  <hydroph_interaction:ARG:20>  (33) 
hydroph_interaction:ARG:20    0
hydroph_interaction:ARG:20    0
Name: 32, dtype: object

>  <saltbridge:ARG:20>  (33) 
saltbridge:ARG:20    0
saltbridge:ARG:20    0
Name: 32, dtype: object

>  <halogenbond:ARG:20>  (33) 
halogenbond:ARG:20    0
halogenbond:ARG:20    0
Name: 32, dtype: object

>  <pication:ARG:20>  (33) 
pication:ARG:20    0
pication:ARG:20    0
Name: 32, dtype: object

>  <hbond:HIS:21>  (33) 
hbond:HIS:21    0
hbond:HIS:21    0
Name: 32, dtype: object

>  <hydroph_interaction:HIS:21>  (33) 
hydroph_interaction:HIS:21    1
hydroph_interaction:HIS:21    1
Name: 32, dtype: object

>  <saltbridge:HIS:21>  (33) 
saltbridge:HIS:21    0
saltbridge:HIS:21    0
Name: 32, dtype: object

>  <pistack:HIS:21>  (33) 
pistack:HIS:21    0
pistack:HIS:21    0
Name: 32, dtype: object

>  <pication:HIS:21>  (33) 
pication:HIS:21    0
pication:HIS:21    0
Name: 32, dtype: object

>  <halogenbond:HIS:21>  (33) 
halogenbond:HIS:21    0
halogenbond:HIS:21    0
Name: 32, dtype: object

>  <hydroph_interaction:LEU:22>  (33) 
hydroph_interaction:LEU:22    0
hydroph_interaction:LEU:22    0
Name: 32, dtype: object

>  <hbond:LEU:22>  (33) 
hbond:LEU:22    0
hbond:LEU:22    0
Name: 32, dtype: object

>  <hydroph_interaction:TRP:28>  (33) 
hydroph_interaction:TRP:28    0
hydroph_interaction:TRP:28    0
Name: 32, dtype: object

>  <hbond:SER:36>  (33) 
hbond:SER:36    0
hbond:SER:36    0
Name: 32, dtype: object

>  <halogenbond:SER:36>  (33) 
halogenbond:SER:36    0
halogenbond:SER:36    0
Name: 32, dtype: object

>  <hbond:ARG:38>  (33) 
hbond:ARG:38    0
hbond:ARG:38    0
Name: 32, dtype: object

>  <halogenbond:ARG:38>  (33) 
halogenbond:ARG:38    0
halogenbond:ARG:38    0
Name: 32, dtype: object

>  <hbond:ASP:39>  (33) 
hbond:ASP:39    0
hbond:ASP:39    0
Name: 32, dtype: object

>  <saltbridge:ASP:39>  (33) 
saltbridge:ASP:39    0
saltbridge:ASP:39    0
Name: 32, dtype: object

>  <hydroph_interaction:ASP:39>  (33) 
hydroph_interaction:ASP:39    0
hydroph_interaction:ASP:39    0
Name: 32, dtype: object

>  <halogenbond:ASP:39>  (33) 
halogenbond:ASP:39    0
halogenbond:ASP:39    0
Name: 32, dtype: object

>  <hydroph_interaction:LEU:40>  (33) 
hydroph_interaction:LEU:40    0
hydroph_interaction:LEU:40    0
Name: 32, dtype: object

>  <hydroph_interaction:TYR:63>  (33) 
hydroph_interaction:TYR:63    0
hydroph_interaction:TYR:63    0
Name: 32, dtype: object

>  <pistack:TYR:63>  (33) 
pistack:TYR:63    0
pistack:TYR:63    0
Name: 32, dtype: object

>  <hbond:TYR:63>  (33) 
hbond:TYR:63    0
hbond:TYR:63    0
Name: 32, dtype: object

>  <hbond:TYR:64>  (33) 
hbond:TYR:64    0
hbond:TYR:64    0
Name: 32, dtype: object

>  <halogenbond:TYR:64>  (33) 
halogenbond:TYR:64    0
halogenbond:TYR:64    0
Name: 32, dtype: object

>  <hydroph_interaction:TYR:64>  (33) 
hydroph_interaction:TYR:64    0
hydroph_interaction:TYR:64    0
Name: 32, dtype: object

>  <hbond:CYS:65>  (33) 
hbond:CYS:65    0
hbond:CYS:65    0
Name: 32, dtype: object

>  <halogenbond:CYS:65>  (33) 
halogenbond:CYS:65    0
halogenbond:CYS:65    0
Name: 32, dtype: object

>  <hbond:SER:66>  (33) 
hbond:SER:66    0
hbond:SER:66    0
Name: 32, dtype: object

>  <hbond:SER:67>  (33) 
hbond:SER:67    0
hbond:SER:67    0
Name: 32, dtype: object

>  <halogenbond:SER:67>  (33) 
halogenbond:SER:67    0
halogenbond:SER:67    0
Name: 32, dtype: object

>  <hydroph_interaction:ARG:68>  (33) 
hydroph_interaction:ARG:68    0
hydroph_interaction:ARG:68    0
Name: 32, dtype: object

>  <hbond:ARG:68>  (33) 
hbond:ARG:68    0
hbond:ARG:68    0
Name: 32, dtype: object

>  <saltbridge:ARG:68>  (33) 
saltbridge:ARG:68    0
saltbridge:ARG:68    0
Name: 32, dtype: object

>  <pication:ARG:68>  (33) 
pication:ARG:68    0
pication:ARG:68    0
Name: 32, dtype: object

>  <hydroph_interaction:TYR:72>  (33) 
hydroph_interaction:TYR:72    0
hydroph_interaction:TYR:72    0
Name: 32, dtype: object

>  <hydroph_interaction:VAL:74>  (33) 
hydroph_interaction:VAL:74    0
hydroph_interaction:VAL:74    0
Name: 32, dtype: object

>  <hydroph_interaction:PHE:76>  (33) 
hydroph_interaction:PHE:76    0
hydroph_interaction:PHE:76    0
Name: 32, dtype: object

>  <hbond:SER:77>  (33) 
hbond:SER:77    0
hbond:SER:77    0
Name: 32, dtype: object

>  <hbond:SER:80>  (33) 
hbond:SER:80    0
hbond:SER:80    0
Name: 32, dtype: object

>  <hbond:LEU:81>  (33) 
hbond:LEU:81    0
hbond:LEU:81    0
Name: 32, dtype: object

>  <halogenbond:LEU:81>  (33) 
halogenbond:LEU:81    0
halogenbond:LEU:81    0
Name: 32, dtype: object

>  <hydroph_interaction:LEU:81>  (33) 
hydroph_interaction:LEU:81    0
hydroph_interaction:LEU:81    0
Name: 32, dtype: object

>  <hydroph_interaction:ILE:82>  (33) 
hydroph_interaction:ILE:82    0
hydroph_interaction:ILE:82    0
Name: 32, dtype: object

>  <hbond:ILE:82>  (33) 
hbond:ILE:82    0
hbond:ILE:82    0
Name: 32, dtype: object

>  <hydroph_interaction:PHE:83>  (33) 
hydroph_interaction:PHE:83    0
hydroph_interaction:PHE:83    0
Name: 32, dtype: object

>  <hbond:PHE:83>  (33) 
hbond:PHE:83    0
hbond:PHE:83    0
Name: 32, dtype: object

>  <halogenbond:PHE:83>  (33) 
halogenbond:PHE:83    0
halogenbond:PHE:83    0
Name: 32, dtype: object

>  <pistack:PHE:83>  (33) 
pistack:PHE:83    0
pistack:PHE:83    0
Name: 32, dtype: object

>  <hydroph_interaction:VAL:84>  (33) 
hydroph_interaction:VAL:84    0
hydroph_interaction:VAL:84    0
Name: 32, dtype: object

>  <hbond:VAL:84>  (33) 
hbond:VAL:84    0
hbond:VAL:84    0
Name: 32, dtype: object

>  <halogenbond:VAL:84>  (33) 
halogenbond:VAL:84    0
halogenbond:VAL:84    0
Name: 32, dtype: object

>  <hydroph_interaction:GLU:85>  (33) 
hydroph_interaction:GLU:85    0
hydroph_interaction:GLU:85    0
Name: 32, dtype: object

>  <hbond:GLU:85>  (33) 
hbond:GLU:85    0
hbond:GLU:85    0
Name: 32, dtype: object

>  <saltbridge:GLU:85>  (33) 
saltbridge:GLU:85    0
saltbridge:GLU:85    0
Name: 32, dtype: object

>  <halogenbond:GLU:85>  (33) 
halogenbond:GLU:85    0
halogenbond:GLU:85    0
Name: 32, dtype: object

>  <hbond:ALA:86>  (33) 
hbond:ALA:86    0
hbond:ALA:86    0
Name: 32, dtype: object

>  <halogenbond:ALA:86>  (33) 
halogenbond:ALA:86    0
halogenbond:ALA:86    0
Name: 32, dtype: object

>  <hydroph_interaction:ALA:86>  (33) 
hydroph_interaction:ALA:86    0
hydroph_interaction:ALA:86    0
Name: 32, dtype: object

>  <hbond:SER:87>  (33) 
hbond:SER:87    0
hbond:SER:87    0
Name: 32, dtype: object

>  <halogenbond:SER:87>  (33) 
halogenbond:SER:87    0
halogenbond:SER:87    0
Name: 32, dtype: object

>  <hbond:GLU:88>  (33) 
hbond:GLU:88    0
hbond:GLU:88    0
Name: 32, dtype: object

>  <hydroph_interaction:GLU:88>  (33) 
hydroph_interaction:GLU:88    0
hydroph_interaction:GLU:88    0
Name: 32, dtype: object

>  <halogenbond:GLU:88>  (33) 
halogenbond:GLU:88    0
halogenbond:GLU:88    0
Name: 32, dtype: object

>  <saltbridge:GLU:88>  (33) 
saltbridge:GLU:88    0
saltbridge:GLU:88    0
Name: 32, dtype: object

>  <hydroph_interaction:TYR:89>  (33) 
hydroph_interaction:TYR:89    1
hydroph_interaction:TYR:89    1
Name: 32, dtype: object

>  <pistack:TYR:89>  (33) 
pistack:TYR:89    0
pistack:TYR:89    0
Name: 32, dtype: object

>  <hbond:TYR:89>  (33) 
hbond:TYR:89    0
hbond:TYR:89    0
Name: 32, dtype: object

>  <halogenbond:TYR:89>  (33) 
halogenbond:TYR:89    0
halogenbond:TYR:89    0
Name: 32, dtype: object

>  <hbond:TYR:90>  (33) 
hbond:TYR:90    0
hbond:TYR:90    0
Name: 32, dtype: object

>  <hydroph_interaction:TYR:90>  (33) 
hydroph_interaction:TYR:90    1
hydroph_interaction:TYR:90    1
Name: 32, dtype: object

>  <pistack:TYR:90>  (33) 
pistack:TYR:90    0
pistack:TYR:90    0
Name: 32, dtype: object

>  <halogenbond:TYR:90>  (33) 
halogenbond:TYR:90    0
halogenbond:TYR:90    0
Name: 32, dtype: object

>  <pication:TYR:90>  (33) 
pication:TYR:90    0
pication:TYR:90    0
Name: 32, dtype: object

>  <hydroph_interaction:PRO:91>  (33) 
hydroph_interaction:PRO:91    0
hydroph_interaction:PRO:91    0
Name: 32, dtype: object

>  <halogenbond:PRO:91>  (33) 
halogenbond:PRO:91    0
halogenbond:PRO:91    0
Name: 32, dtype: object

>  <hbond:PRO:91>  (33) 
hbond:PRO:91    0
hbond:PRO:91    0
Name: 32, dtype: object

>  <hydroph_interaction:ALA:92>  (33) 
hydroph_interaction:ALA:92    0
hydroph_interaction:ALA:92    0
Name: 32, dtype: object

>  <hbond:ARG:93>  (33) 
hbond:ARG:93    0
hbond:ARG:93    0
Name: 32, dtype: object

>  <pication:ARG:93>  (33) 
pication:ARG:93    0
pication:ARG:93    0
Name: 32, dtype: object

>  <saltbridge:ARG:93>  (33) 
saltbridge:ARG:93    0
saltbridge:ARG:93    0
Name: 32, dtype: object

>  <hydroph_interaction:ARG:93>  (33) 
hydroph_interaction:ARG:93    0
hydroph_interaction:ARG:93    0
Name: 32, dtype: object

>  <halogenbond:ARG:93>  (33) 
halogenbond:ARG:93    0
halogenbond:ARG:93    0
Name: 32, dtype: object

>  <hydroph_interaction:TYR:94>  (33) 
hydroph_interaction:TYR:94    0
hydroph_interaction:TYR:94    0
Name: 32, dtype: object

>  <hbond:TYR:94>  (33) 
hbond:TYR:94    0
hbond:TYR:94    0
Name: 32, dtype: object

>  <halogenbond:GLN:95>  (33) 
halogenbond:GLN:95    0
halogenbond:GLN:95    0
Name: 32, dtype: object

>  <hbond:GLN:95>  (33) 
hbond:GLN:95    0
hbond:GLN:95    0
Name: 32, dtype: object

>  <hydroph_interaction:GLN:95>  (33) 
hydroph_interaction:GLN:95    0
hydroph_interaction:GLN:95    0
Name: 32, dtype: object

>  <hbond:SER:96>  (33) 
hbond:SER:96    0
hbond:SER:96    0
Name: 32, dtype: object

>  <hydroph_interaction:LEU:98>  (33) 
hydroph_interaction:LEU:98    0
hydroph_interaction:LEU:98    0
Name: 32, dtype: object

>  <hbond:LEU:98>  (33) 
hbond:LEU:98    0
hbond:LEU:98    0
Name: 32, dtype: object

>  <hbond:MET:99>  (33) 
hbond:MET:99    0
hbond:MET:99    0
Name: 32, dtype: object

>  <hydroph_interaction:MET:99>  (33) 
hydroph_interaction:MET:99    0
hydroph_interaction:MET:99    0
Name: 32, dtype: object

>  <halogenbond:MET:99>  (33) 
halogenbond:MET:99    0
halogenbond:MET:99    0
Name: 32, dtype: object

>  <hydroph_interaction:LEU:100>  (33) 
hydroph_interaction:LEU:100    0
hydroph_interaction:LEU:100    0
Name: 32, dtype: object

>  <hbond:LEU:100>  (33) 
hbond:LEU:100    0
hbond:LEU:100    0
Name: 32, dtype: object

>  <hbond:ALA:101>  (33) 
hbond:ALA:101    0
hbond:ALA:101    0
Name: 32, dtype: object

>  <hydroph_interaction:ALA:101>  (33) 
hydroph_interaction:ALA:101    0
hydroph_interaction:ALA:101    0
Name: 32, dtype: object

>  <hydroph_interaction:VAL:102>  (33) 
hydroph_interaction:VAL:102    0
hydroph_interaction:VAL:102    0
Name: 32, dtype: object

>  <hbond:VAL:102>  (33) 
hbond:VAL:102    0
hbond:VAL:102    0
Name: 32, dtype: object

>  <hbond:GLY:103>  (33) 
hbond:GLY:103    0
hbond:GLY:103    0
Name: 32, dtype: object

>  <halogenbond:GLY:103>  (33) 
halogenbond:GLY:103    0
halogenbond:GLY:103    0
Name: 32, dtype: object

>  <hydroph_interaction:HIS:104>  (33) 
hydroph_interaction:HIS:104    0
hydroph_interaction:HIS:104    0
Name: 32, dtype: object

>  <hbond:HIS:104>  (33) 
hbond:HIS:104    0
hbond:HIS:104    0
Name: 32, dtype: object

>  <saltbridge:HIS:104>  (33) 
saltbridge:HIS:104    0
saltbridge:HIS:104    0
Name: 32, dtype: object

>  <pication:HIS:104>  (33) 
pication:HIS:104    0
pication:HIS:104    0
Name: 32, dtype: object

>  <pistack:HIS:104>  (33) 
pistack:HIS:104    0
pistack:HIS:104    0
Name: 32, dtype: object

>  <halogenbond:HIS:104>  (33) 
halogenbond:HIS:104    0
halogenbond:HIS:104    0
Name: 32, dtype: object

>  <hbond:SER:105>  (33) 
hbond:SER:105    0
hbond:SER:105    0
Name: 32, dtype: object

>  <halogenbond:SER:105>  (33) 
halogenbond:SER:105    0
halogenbond:SER:105    0
Name: 32, dtype: object

>  <hbond:GLU:106>  (33) 
hbond:GLU:106    0
hbond:GLU:106    0
Name: 32, dtype: object

>  <hydroph_interaction:GLU:106>  (33) 
hydroph_interaction:GLU:106    0
hydroph_interaction:GLU:106    0
Name: 32, dtype: object

>  <saltbridge:GLU:106>  (33) 
saltbridge:GLU:106    0
saltbridge:GLU:106    0
Name: 32, dtype: object

>  <halogenbond:GLU:106>  (33) 
halogenbond:GLU:106    0
halogenbond:GLU:106    0
Name: 32, dtype: object

>  <hydroph_interaction:PRO:107>  (33) 
hydroph_interaction:PRO:107    0
hydroph_interaction:PRO:107    0
Name: 32, dtype: object

>  <hbond:PRO:107>  (33) 
hbond:PRO:107    0
hbond:PRO:107    0
Name: 32, dtype: object

>  <halogenbond:PRO:107>  (33) 
halogenbond:PRO:107    0
halogenbond:PRO:107    0
Name: 32, dtype: object

>  <hbond:GLY:108>  (33) 
hbond:GLY:108    0
hbond:GLY:108    0
Name: 32, dtype: object

>  <halogenbond:GLY:108>  (33) 
halogenbond:GLY:108    0
halogenbond:GLY:108    0
Name: 32, dtype: object

>  <hbond:ASP:109>  (33) 
hbond:ASP:109    0
hbond:ASP:109    0
Name: 32, dtype: object

>  <hydroph_interaction:ASP:109>  (33) 
hydroph_interaction:ASP:109    0
hydroph_interaction:ASP:109    0
Name: 32, dtype: object

>  <saltbridge:ASP:109>  (33) 
saltbridge:ASP:109    0
saltbridge:ASP:109    0
Name: 32, dtype: object

>  <hbond:CYS:110>  (33) 
hbond:CYS:110    0
hbond:CYS:110    0
Name: 32, dtype: object

>  <halogenbond:CYS:110>  (33) 
halogenbond:CYS:110    0
halogenbond:CYS:110    0
Name: 32, dtype: object

>  <hbond:GLY:111>  (33) 
hbond:GLY:111    0
hbond:GLY:111    0
Name: 32, dtype: object

>  <hbond:GLY:112>  (33) 
hbond:GLY:112    0
hbond:GLY:112    0
Name: 32, dtype: object

>  <hbond:ILE:113>  (33) 
hbond:ILE:113    0
hbond:ILE:113    0
Name: 32, dtype: object

>  <hydroph_interaction:LEU:114>  (33) 
hydroph_interaction:LEU:114    0
hydroph_interaction:LEU:114    0
Name: 32, dtype: object

>  <hbond:LEU:114>  (33) 
hbond:LEU:114    0
hbond:LEU:114    0
Name: 32, dtype: object

>  <hydroph_interaction:ILE:123>  (33) 
hydroph_interaction:ILE:123    0
hydroph_interaction:ILE:123    0
Name: 32, dtype: object

>  <hbond:ILE:123>  (33) 
hbond:ILE:123    0
hbond:ILE:123    0
Name: 32, dtype: object

>  <hydroph_interaction:VAL:124>  (33) 
hydroph_interaction:VAL:124    0
hydroph_interaction:VAL:124    0
Name: 32, dtype: object

>  <hbond:VAL:124>  (33) 
hbond:VAL:124    0
hbond:VAL:124    0
Name: 32, dtype: object

>  <halogenbond:VAL:124>  (33) 
halogenbond:VAL:124    0
halogenbond:VAL:124    0
Name: 32, dtype: object

>  <hbond:SER:125>  (33) 
hbond:SER:125    0
hbond:SER:125    0
Name: 32, dtype: object

>  <halogenbond:SER:125>  (33) 
halogenbond:SER:125    0
halogenbond:SER:125    0
Name: 32, dtype: object

>  <hydroph_interaction:THR:126>  (33) 
hydroph_interaction:THR:126    0
hydroph_interaction:THR:126    0
Name: 32, dtype: object

>  <hbond:THR:126>  (33) 
hbond:THR:126    0
hbond:THR:126    0
Name: 32, dtype: object

>  <halogenbond:THR:126>  (33) 
halogenbond:THR:126    0
halogenbond:THR:126    0
Name: 32, dtype: object

>  <hbond:GLY:127>  (33) 
hbond:GLY:127    0
hbond:GLY:127    0
Name: 32, dtype: object

>  <halogenbond:GLY:127>  (33) 
halogenbond:GLY:127    0
halogenbond:GLY:127    0
Name: 32, dtype: object

>  <hydroph_interaction:GLY:127>  (33) 
hydroph_interaction:GLY:127    0
hydroph_interaction:GLY:127    0
Name: 32, dtype: object

>  <hbond:GLY:128>  (33) 
hbond:GLY:128    0
hbond:GLY:128    0
Name: 32, dtype: object

>  <halogenbond:GLY:128>  (33) 
halogenbond:GLY:128    0
halogenbond:GLY:128    0
Name: 32, dtype: object

>  <hydroph_interaction:GLY:128>  (33) 
hydroph_interaction:GLY:128    0
hydroph_interaction:GLY:128    0
Name: 32, dtype: object

>  <hbond:ASN:129>  (33) 
hbond:ASN:129    0
hbond:ASN:129    0
Name: 32, dtype: object

>  <hydroph_interaction:ASN:129>  (33) 
hydroph_interaction:ASN:129    0
hydroph_interaction:ASN:129    0
Name: 32, dtype: object

>  <halogenbond:ASN:129>  (33) 
halogenbond:ASN:129    0
halogenbond:ASN:129    0
Name: 32, dtype: object

>  <hbond:GLY:130>  (33) 
hbond:GLY:130    0
hbond:GLY:130    0
Name: 32, dtype: object

>  <hydroph_interaction:LEU:131>  (33) 
hydroph_interaction:LEU:131    0
hydroph_interaction:LEU:131    0
Name: 32, dtype: object

>  <hbond:LEU:131>  (33) 
hbond:LEU:131    0
hbond:LEU:131    0
Name: 32, dtype: object

>  <halogenbond:LEU:131>  (33) 
halogenbond:LEU:131    0
halogenbond:LEU:131    0
Name: 32, dtype: object

>  <hydroph_interaction:VAL:132>  (33) 
hydroph_interaction:VAL:132    0
hydroph_interaction:VAL:132    0
Name: 32, dtype: object

>  <hbond:VAL:132>  (33) 
hbond:VAL:132    0
hbond:VAL:132    0
Name: 32, dtype: object

>  <hbond:GLY:133>  (33) 
hbond:GLY:133    0
hbond:GLY:133    0
Name: 32, dtype: object

>  <halogenbond:GLY:133>  (33) 
halogenbond:GLY:133    0
halogenbond:GLY:133    0
Name: 32, dtype: object

>  <hydroph_interaction:PHE:134>  (33) 
hydroph_interaction:PHE:134    0
hydroph_interaction:PHE:134    0
Name: 32, dtype: object

>  <hbond:PHE:134>  (33) 
hbond:PHE:134    0
hbond:PHE:134    0
Name: 32, dtype: object

>  <pistack:PHE:134>  (33) 
pistack:PHE:134    0
pistack:PHE:134    0
Name: 32, dtype: object

>  <pication:PHE:134>  (33) 
pication:PHE:134    0
pication:PHE:134    0
Name: 32, dtype: object

>  <hydroph_interaction:ALA:135>  (33) 
hydroph_interaction:ALA:135    0
hydroph_interaction:ALA:135    0
Name: 32, dtype: object

>  <hbond:ALA:135>  (33) 
hbond:ALA:135    0
hbond:ALA:135    0
Name: 32, dtype: object

$$$$
Z3620420712
     RDKit          3D

 26 26  0  0  0  0  0  0  0  0999 V2000
    9.8140    9.0250   22.7710 C   0  0  0  0  0  0  0  0  0  0  0  0
    9.5330   10.3350   23.2730 N   0  0  0  0  0  0  0  0  0  0  0  0
   10.2420   11.3840   22.8740 C   0  0  0  0  0  0  0  0  0  0  0  0
    9.7260   12.5830   23.5480 C   0  0  0  0  0  0  0  0  0  0  0  0
   10.3440   13.9460   23.2960 C   0  0  0  0  0  0  0  0  0  0  0  0
   10.8460   14.0300   21.9330 N   0  0  0  0  0  0  0  0  0  0  0  0
   12.1500   15.0110   21.6360 S   0  0  0  0  0  6  0  0  0  0  0  0
   11.6520   16.3630   21.6340 O   0  0  0  0  0  0  0  0  0  0  0  0
   13.2140   14.6510   22.5360 O   0  0  0  0  0  0  0  0  0  0  0  0
   12.4970   14.6330   19.9270 C   0  0  0  0  0  0  0  0  0  0  0  0
   11.1180   15.0780   18.9250 Cl  0  0  0  0  0  0  0  0  0  0  0  0
    8.6670   12.0640   24.3330 C   0  0  0  0  0  0  0  0  0  0  0  0
    7.7490   12.9030   25.2490 C   0  0  0  0  0  0  0  0  0  0  0  0
    6.7970   13.5540   24.5250 F   0  0  0  0  0  0  0  0  0  0  0  0
    7.0700   12.1150   26.1320 F   0  0  0  0  0  0  0  0  0  0  0  0
    8.5590   10.6920   24.1700 N   0  0  0  0  0  0  0  0  0  0  0  0
   10.4540    9.1360   21.8940 H   0  0  0  0  0  0  0  0  0  0  0  0
   10.3160    8.4180   23.5150 H   0  0  0  0  0  0  0  0  0  0  0  0
    8.8810    8.5620   22.4800 H   0  0  0  0  0  0  0  0  0  0  0  0
   11.0620   11.3620   22.1690 H   0  0  0  0  0  0  0  0  0  0  0  0
    9.5970   14.6950   23.5260 H   0  0  0  0  0  0  0  0  0  0  0  0
   11.1830   14.1220   23.9790 H   0  0  0  0  0  0  0  0  0  0  0  0
   10.8260   13.1830   21.3420 H   0  0  0  0  0  0  0  0  0  0  0  0
   12.7010   13.5720   19.8340 H   0  0  0  0  0  0  0  0  0  0  0  0
   13.3670   15.1900   19.6290 H   0  0  0  0  0  0  0  0  0  0  0  0
    8.3010   13.6540   25.8150 H   0  0  0  0  0  0  0  0  0  0  0  0
  1  2  1  0
  2  3  1  0
  3  4  2  0
  4  5  1  0
  5  6  1  0
  6  7  1  0
  7  8  2  0
  7  9  2  0
  7 10  1  0
 10 11  1  0
  4 12  1  0
 12 13  1  0
 13 14  1  0
 13 15  1  0
 12 16  2  0
 16  2  1  0
  1 17  1  0
  1 18  1  0
  1 19  1  0
  3 20  1  0
  5 21  1  0
  5 22  1  0
  6 23  1  0
 10 24  1  0
 10 25  1  0
 13 26  1  0
A    1
 C1 
A    2
 N1 
A    3
 C2 
A    4
 C3 
A    5
 C4 
A    6
 N2 
A    7
 S1 
A    8
 O1 
A    9
 O2 
A   10
 C5 
A   11
CL1 
A   12
 C6 
A   13
 C7 
A   14
 F1 
A   15
 F2 
A   16
 N3 
A   17
 H1 
A   18
 H2 
A   19
 H3 
A   20
 H4 
A   21
 H5 
A   22
 H6 
A   23
 H7 
A   24
 H8 
A   25
 H9 
A   26
 H10
M  END
>  <ref_pdb>  (34) 
x0310_0A

>  <ref_mols>  (34) 
x0451_0A,x0739_0A

>  <original SMILES>  (34) 
Cn1cc(CNS(=O)(=O)CCl)c(C(F)F)n1

>  <rationale>  (34) 
info halogenbond:Q95; hbond:S125+S87+Y90; 

>  <intxn_cluster>  (34) 
202

>  <intxn_cluster_rank>  (34) 
7

>  <N_interactions>  (34) 
4

>  <∆∆G>  (34) 
-7.358727

>  <$/mg>  (34) 
nan

>  <comRMSD>  (34) 
0.778581

>  <N_rotatable_bonds>  (34) 
6

>  <N_analogues_07>  (34) 
2

>  <deep_P1_sidechain>  (34) 
False

>  <farthest_distance_to_substrate>  (34) 
2.31287

>  <hbond:SER:7>  (34) 
hbond:SER:7    0
hbond:SER:7    0
Name: 33, dtype: object

>  <halogenbond:SER:7>  (34) 
halogenbond:SER:7    0
halogenbond:SER:7    0
Name: 33, dtype: object

>  <hbond:GLY:8>  (34) 
hbond:GLY:8    0
hbond:GLY:8    0
Name: 33, dtype: object

>  <hydroph_interaction:ASN:19>  (34) 
hydroph_interaction:ASN:19    0
hydroph_interaction:ASN:19    0
Name: 33, dtype: object

>  <hbond:ASN:19>  (34) 
hbond:ASN:19    0
hbond:ASN:19    0
Name: 33, dtype: object

>  <halogenbond:ASN:19>  (34) 
halogenbond:ASN:19    0
halogenbond:ASN:19    0
Name: 33, dtype: object

>  <hbond:ARG:20>  (34) 
hbond:ARG:20    0
hbond:ARG:20    0
Name: 33, dtype: object

>  <hydroph_interaction:ARG:20>  (34) 
hydroph_interaction:ARG:20    0
hydroph_interaction:ARG:20    0
Name: 33, dtype: object

>  <saltbridge:ARG:20>  (34) 
saltbridge:ARG:20    0
saltbridge:ARG:20    0
Name: 33, dtype: object

>  <halogenbond:ARG:20>  (34) 
halogenbond:ARG:20    0
halogenbond:ARG:20    0
Name: 33, dtype: object

>  <pication:ARG:20>  (34) 
pication:ARG:20    0
pication:ARG:20    0
Name: 33, dtype: object

>  <hbond:HIS:21>  (34) 
hbond:HIS:21    0
hbond:HIS:21    0
Name: 33, dtype: object

>  <hydroph_interaction:HIS:21>  (34) 
hydroph_interaction:HIS:21    0
hydroph_interaction:HIS:21    0
Name: 33, dtype: object

>  <saltbridge:HIS:21>  (34) 
saltbridge:HIS:21    0
saltbridge:HIS:21    0
Name: 33, dtype: object

>  <pistack:HIS:21>  (34) 
pistack:HIS:21    0
pistack:HIS:21    0
Name: 33, dtype: object

>  <pication:HIS:21>  (34) 
pication:HIS:21    0
pication:HIS:21    0
Name: 33, dtype: object

>  <halogenbond:HIS:21>  (34) 
halogenbond:HIS:21    0
halogenbond:HIS:21    0
Name: 33, dtype: object

>  <hydroph_interaction:LEU:22>  (34) 
hydroph_interaction:LEU:22    0
hydroph_interaction:LEU:22    0
Name: 33, dtype: object

>  <hbond:LEU:22>  (34) 
hbond:LEU:22    0
hbond:LEU:22    0
Name: 33, dtype: object

>  <hydroph_interaction:TRP:28>  (34) 
hydroph_interaction:TRP:28    0
hydroph_interaction:TRP:28    0
Name: 33, dtype: object

>  <hbond:SER:36>  (34) 
hbond:SER:36    0
hbond:SER:36    0
Name: 33, dtype: object

>  <halogenbond:SER:36>  (34) 
halogenbond:SER:36    0
halogenbond:SER:36    0
Name: 33, dtype: object

>  <hbond:ARG:38>  (34) 
hbond:ARG:38    0
hbond:ARG:38    0
Name: 33, dtype: object

>  <halogenbond:ARG:38>  (34) 
halogenbond:ARG:38    0
halogenbond:ARG:38    0
Name: 33, dtype: object

>  <hbond:ASP:39>  (34) 
hbond:ASP:39    0
hbond:ASP:39    0
Name: 33, dtype: object

>  <saltbridge:ASP:39>  (34) 
saltbridge:ASP:39    0
saltbridge:ASP:39    0
Name: 33, dtype: object

>  <hydroph_interaction:ASP:39>  (34) 
hydroph_interaction:ASP:39    0
hydroph_interaction:ASP:39    0
Name: 33, dtype: object

>  <halogenbond:ASP:39>  (34) 
halogenbond:ASP:39    0
halogenbond:ASP:39    0
Name: 33, dtype: object

>  <hydroph_interaction:LEU:40>  (34) 
hydroph_interaction:LEU:40    0
hydroph_interaction:LEU:40    0
Name: 33, dtype: object

>  <hydroph_interaction:TYR:63>  (34) 
hydroph_interaction:TYR:63    0
hydroph_interaction:TYR:63    0
Name: 33, dtype: object

>  <pistack:TYR:63>  (34) 
pistack:TYR:63    0
pistack:TYR:63    0
Name: 33, dtype: object

>  <hbond:TYR:63>  (34) 
hbond:TYR:63    0
hbond:TYR:63    0
Name: 33, dtype: object

>  <hbond:TYR:64>  (34) 
hbond:TYR:64    0
hbond:TYR:64    0
Name: 33, dtype: object

>  <halogenbond:TYR:64>  (34) 
halogenbond:TYR:64    0
halogenbond:TYR:64    0
Name: 33, dtype: object

>  <hydroph_interaction:TYR:64>  (34) 
hydroph_interaction:TYR:64    0
hydroph_interaction:TYR:64    0
Name: 33, dtype: object

>  <hbond:CYS:65>  (34) 
hbond:CYS:65    0
hbond:CYS:65    0
Name: 33, dtype: object

>  <halogenbond:CYS:65>  (34) 
halogenbond:CYS:65    0
halogenbond:CYS:65    0
Name: 33, dtype: object

>  <hbond:SER:66>  (34) 
hbond:SER:66    0
hbond:SER:66    0
Name: 33, dtype: object

>  <hbond:SER:67>  (34) 
hbond:SER:67    0
hbond:SER:67    0
Name: 33, dtype: object

>  <halogenbond:SER:67>  (34) 
halogenbond:SER:67    0
halogenbond:SER:67    0
Name: 33, dtype: object

>  <hydroph_interaction:ARG:68>  (34) 
hydroph_interaction:ARG:68    0
hydroph_interaction:ARG:68    0
Name: 33, dtype: object

>  <hbond:ARG:68>  (34) 
hbond:ARG:68    0
hbond:ARG:68    0
Name: 33, dtype: object

>  <saltbridge:ARG:68>  (34) 
saltbridge:ARG:68    0
saltbridge:ARG:68    0
Name: 33, dtype: object

>  <pication:ARG:68>  (34) 
pication:ARG:68    0
pication:ARG:68    0
Name: 33, dtype: object

>  <hydroph_interaction:TYR:72>  (34) 
hydroph_interaction:TYR:72    0
hydroph_interaction:TYR:72    0
Name: 33, dtype: object

>  <hydroph_interaction:VAL:74>  (34) 
hydroph_interaction:VAL:74    0
hydroph_interaction:VAL:74    0
Name: 33, dtype: object

>  <hydroph_interaction:PHE:76>  (34) 
hydroph_interaction:PHE:76    0
hydroph_interaction:PHE:76    0
Name: 33, dtype: object

>  <hbond:SER:77>  (34) 
hbond:SER:77    0
hbond:SER:77    0
Name: 33, dtype: object

>  <hbond:SER:80>  (34) 
hbond:SER:80    0
hbond:SER:80    0
Name: 33, dtype: object

>  <hbond:LEU:81>  (34) 
hbond:LEU:81    0
hbond:LEU:81    0
Name: 33, dtype: object

>  <halogenbond:LEU:81>  (34) 
halogenbond:LEU:81    0
halogenbond:LEU:81    0
Name: 33, dtype: object

>  <hydroph_interaction:LEU:81>  (34) 
hydroph_interaction:LEU:81    0
hydroph_interaction:LEU:81    0
Name: 33, dtype: object

>  <hydroph_interaction:ILE:82>  (34) 
hydroph_interaction:ILE:82    0
hydroph_interaction:ILE:82    0
Name: 33, dtype: object

>  <hbond:ILE:82>  (34) 
hbond:ILE:82    0
hbond:ILE:82    0
Name: 33, dtype: object

>  <hydroph_interaction:PHE:83>  (34) 
hydroph_interaction:PHE:83    0
hydroph_interaction:PHE:83    0
Name: 33, dtype: object

>  <hbond:PHE:83>  (34) 
hbond:PHE:83    0
hbond:PHE:83    0
Name: 33, dtype: object

>  <halogenbond:PHE:83>  (34) 
halogenbond:PHE:83    0
halogenbond:PHE:83    0
Name: 33, dtype: object

>  <pistack:PHE:83>  (34) 
pistack:PHE:83    0
pistack:PHE:83    0
Name: 33, dtype: object

>  <hydroph_interaction:VAL:84>  (34) 
hydroph_interaction:VAL:84    0
hydroph_interaction:VAL:84    0
Name: 33, dtype: object

>  <hbond:VAL:84>  (34) 
hbond:VAL:84    0
hbond:VAL:84    0
Name: 33, dtype: object

>  <halogenbond:VAL:84>  (34) 
halogenbond:VAL:84    0
halogenbond:VAL:84    0
Name: 33, dtype: object

>  <hydroph_interaction:GLU:85>  (34) 
hydroph_interaction:GLU:85    0
hydroph_interaction:GLU:85    0
Name: 33, dtype: object

>  <hbond:GLU:85>  (34) 
hbond:GLU:85    0
hbond:GLU:85    0
Name: 33, dtype: object

>  <saltbridge:GLU:85>  (34) 
saltbridge:GLU:85    0
saltbridge:GLU:85    0
Name: 33, dtype: object

>  <halogenbond:GLU:85>  (34) 
halogenbond:GLU:85    0
halogenbond:GLU:85    0
Name: 33, dtype: object

>  <hbond:ALA:86>  (34) 
hbond:ALA:86    0
hbond:ALA:86    0
Name: 33, dtype: object

>  <halogenbond:ALA:86>  (34) 
halogenbond:ALA:86    0
halogenbond:ALA:86    0
Name: 33, dtype: object

>  <hydroph_interaction:ALA:86>  (34) 
hydroph_interaction:ALA:86    0
hydroph_interaction:ALA:86    0
Name: 33, dtype: object

>  <hbond:SER:87>  (34) 
hbond:SER:87    1
hbond:SER:87    1
Name: 33, dtype: object

>  <halogenbond:SER:87>  (34) 
halogenbond:SER:87    0
halogenbond:SER:87    0
Name: 33, dtype: object

>  <hbond:GLU:88>  (34) 
hbond:GLU:88    0
hbond:GLU:88    0
Name: 33, dtype: object

>  <hydroph_interaction:GLU:88>  (34) 
hydroph_interaction:GLU:88    0
hydroph_interaction:GLU:88    0
Name: 33, dtype: object

>  <halogenbond:GLU:88>  (34) 
halogenbond:GLU:88    0
halogenbond:GLU:88    0
Name: 33, dtype: object

>  <saltbridge:GLU:88>  (34) 
saltbridge:GLU:88    0
saltbridge:GLU:88    0
Name: 33, dtype: object

>  <hydroph_interaction:TYR:89>  (34) 
hydroph_interaction:TYR:89    0
hydroph_interaction:TYR:89    0
Name: 33, dtype: object

>  <pistack:TYR:89>  (34) 
pistack:TYR:89    0
pistack:TYR:89    0
Name: 33, dtype: object

>  <hbond:TYR:89>  (34) 
hbond:TYR:89    0
hbond:TYR:89    0
Name: 33, dtype: object

>  <halogenbond:TYR:89>  (34) 
halogenbond:TYR:89    0
halogenbond:TYR:89    0
Name: 33, dtype: object

>  <hbond:TYR:90>  (34) 
hbond:TYR:90    1
hbond:TYR:90    1
Name: 33, dtype: object

>  <hydroph_interaction:TYR:90>  (34) 
hydroph_interaction:TYR:90    0
hydroph_interaction:TYR:90    0
Name: 33, dtype: object

>  <pistack:TYR:90>  (34) 
pistack:TYR:90    0
pistack:TYR:90    0
Name: 33, dtype: object

>  <halogenbond:TYR:90>  (34) 
halogenbond:TYR:90    0
halogenbond:TYR:90    0
Name: 33, dtype: object

>  <pication:TYR:90>  (34) 
pication:TYR:90    0
pication:TYR:90    0
Name: 33, dtype: object

>  <hydroph_interaction:PRO:91>  (34) 
hydroph_interaction:PRO:91    0
hydroph_interaction:PRO:91    0
Name: 33, dtype: object

>  <halogenbond:PRO:91>  (34) 
halogenbond:PRO:91    0
halogenbond:PRO:91    0
Name: 33, dtype: object

>  <hbond:PRO:91>  (34) 
hbond:PRO:91    0
hbond:PRO:91    0
Name: 33, dtype: object

>  <hydroph_interaction:ALA:92>  (34) 
hydroph_interaction:ALA:92    0
hydroph_interaction:ALA:92    0
Name: 33, dtype: object

>  <hbond:ARG:93>  (34) 
hbond:ARG:93    0
hbond:ARG:93    0
Name: 33, dtype: object

>  <pication:ARG:93>  (34) 
pication:ARG:93    0
pication:ARG:93    0
Name: 33, dtype: object

>  <saltbridge:ARG:93>  (34) 
saltbridge:ARG:93    0
saltbridge:ARG:93    0
Name: 33, dtype: object

>  <hydroph_interaction:ARG:93>  (34) 
hydroph_interaction:ARG:93    0
hydroph_interaction:ARG:93    0
Name: 33, dtype: object

>  <halogenbond:ARG:93>  (34) 
halogenbond:ARG:93    0
halogenbond:ARG:93    0
Name: 33, dtype: object

>  <hydroph_interaction:TYR:94>  (34) 
hydroph_interaction:TYR:94    0
hydroph_interaction:TYR:94    0
Name: 33, dtype: object

>  <hbond:TYR:94>  (34) 
hbond:TYR:94    0
hbond:TYR:94    0
Name: 33, dtype: object

>  <halogenbond:GLN:95>  (34) 
halogenbond:GLN:95    1
halogenbond:GLN:95    1
Name: 33, dtype: object

>  <hbond:GLN:95>  (34) 
hbond:GLN:95    0
hbond:GLN:95    0
Name: 33, dtype: object

>  <hydroph_interaction:GLN:95>  (34) 
hydroph_interaction:GLN:95    0
hydroph_interaction:GLN:95    0
Name: 33, dtype: object

>  <hbond:SER:96>  (34) 
hbond:SER:96    0
hbond:SER:96    0
Name: 33, dtype: object

>  <hydroph_interaction:LEU:98>  (34) 
hydroph_interaction:LEU:98    0
hydroph_interaction:LEU:98    0
Name: 33, dtype: object

>  <hbond:LEU:98>  (34) 
hbond:LEU:98    0
hbond:LEU:98    0
Name: 33, dtype: object

>  <hbond:MET:99>  (34) 
hbond:MET:99    0
hbond:MET:99    0
Name: 33, dtype: object

>  <hydroph_interaction:MET:99>  (34) 
hydroph_interaction:MET:99    0
hydroph_interaction:MET:99    0
Name: 33, dtype: object

>  <halogenbond:MET:99>  (34) 
halogenbond:MET:99    0
halogenbond:MET:99    0
Name: 33, dtype: object

>  <hydroph_interaction:LEU:100>  (34) 
hydroph_interaction:LEU:100    0
hydroph_interaction:LEU:100    0
Name: 33, dtype: object

>  <hbond:LEU:100>  (34) 
hbond:LEU:100    0
hbond:LEU:100    0
Name: 33, dtype: object

>  <hbond:ALA:101>  (34) 
hbond:ALA:101    0
hbond:ALA:101    0
Name: 33, dtype: object

>  <hydroph_interaction:ALA:101>  (34) 
hydroph_interaction:ALA:101    0
hydroph_interaction:ALA:101    0
Name: 33, dtype: object

>  <hydroph_interaction:VAL:102>  (34) 
hydroph_interaction:VAL:102    0
hydroph_interaction:VAL:102    0
Name: 33, dtype: object

>  <hbond:VAL:102>  (34) 
hbond:VAL:102    0
hbond:VAL:102    0
Name: 33, dtype: object

>  <hbond:GLY:103>  (34) 
hbond:GLY:103    0
hbond:GLY:103    0
Name: 33, dtype: object

>  <halogenbond:GLY:103>  (34) 
halogenbond:GLY:103    0
halogenbond:GLY:103    0
Name: 33, dtype: object

>  <hydroph_interaction:HIS:104>  (34) 
hydroph_interaction:HIS:104    0
hydroph_interaction:HIS:104    0
Name: 33, dtype: object

>  <hbond:HIS:104>  (34) 
hbond:HIS:104    0
hbond:HIS:104    0
Name: 33, dtype: object

>  <saltbridge:HIS:104>  (34) 
saltbridge:HIS:104    0
saltbridge:HIS:104    0
Name: 33, dtype: object

>  <pication:HIS:104>  (34) 
pication:HIS:104    0
pication:HIS:104    0
Name: 33, dtype: object

>  <pistack:HIS:104>  (34) 
pistack:HIS:104    0
pistack:HIS:104    0
Name: 33, dtype: object

>  <halogenbond:HIS:104>  (34) 
halogenbond:HIS:104    0
halogenbond:HIS:104    0
Name: 33, dtype: object

>  <hbond:SER:105>  (34) 
hbond:SER:105    0
hbond:SER:105    0
Name: 33, dtype: object

>  <halogenbond:SER:105>  (34) 
halogenbond:SER:105    0
halogenbond:SER:105    0
Name: 33, dtype: object

>  <hbond:GLU:106>  (34) 
hbond:GLU:106    0
hbond:GLU:106    0
Name: 33, dtype: object

>  <hydroph_interaction:GLU:106>  (34) 
hydroph_interaction:GLU:106    0
hydroph_interaction:GLU:106    0
Name: 33, dtype: object

>  <saltbridge:GLU:106>  (34) 
saltbridge:GLU:106    0
saltbridge:GLU:106    0
Name: 33, dtype: object

>  <halogenbond:GLU:106>  (34) 
halogenbond:GLU:106    0
halogenbond:GLU:106    0
Name: 33, dtype: object

>  <hydroph_interaction:PRO:107>  (34) 
hydroph_interaction:PRO:107    0
hydroph_interaction:PRO:107    0
Name: 33, dtype: object

>  <hbond:PRO:107>  (34) 
hbond:PRO:107    0
hbond:PRO:107    0
Name: 33, dtype: object

>  <halogenbond:PRO:107>  (34) 
halogenbond:PRO:107    0
halogenbond:PRO:107    0
Name: 33, dtype: object

>  <hbond:GLY:108>  (34) 
hbond:GLY:108    0
hbond:GLY:108    0
Name: 33, dtype: object

>  <halogenbond:GLY:108>  (34) 
halogenbond:GLY:108    0
halogenbond:GLY:108    0
Name: 33, dtype: object

>  <hbond:ASP:109>  (34) 
hbond:ASP:109    0
hbond:ASP:109    0
Name: 33, dtype: object

>  <hydroph_interaction:ASP:109>  (34) 
hydroph_interaction:ASP:109    0
hydroph_interaction:ASP:109    0
Name: 33, dtype: object

>  <saltbridge:ASP:109>  (34) 
saltbridge:ASP:109    0
saltbridge:ASP:109    0
Name: 33, dtype: object

>  <hbond:CYS:110>  (34) 
hbond:CYS:110    0
hbond:CYS:110    0
Name: 33, dtype: object

>  <halogenbond:CYS:110>  (34) 
halogenbond:CYS:110    0
halogenbond:CYS:110    0
Name: 33, dtype: object

>  <hbond:GLY:111>  (34) 
hbond:GLY:111    0
hbond:GLY:111    0
Name: 33, dtype: object

>  <hbond:GLY:112>  (34) 
hbond:GLY:112    0
hbond:GLY:112    0
Name: 33, dtype: object

>  <hbond:ILE:113>  (34) 
hbond:ILE:113    0
hbond:ILE:113    0
Name: 33, dtype: object

>  <hydroph_interaction:LEU:114>  (34) 
hydroph_interaction:LEU:114    0
hydroph_interaction:LEU:114    0
Name: 33, dtype: object

>  <hbond:LEU:114>  (34) 
hbond:LEU:114    0
hbond:LEU:114    0
Name: 33, dtype: object

>  <hydroph_interaction:ILE:123>  (34) 
hydroph_interaction:ILE:123    0
hydroph_interaction:ILE:123    0
Name: 33, dtype: object

>  <hbond:ILE:123>  (34) 
hbond:ILE:123    0
hbond:ILE:123    0
Name: 33, dtype: object

>  <hydroph_interaction:VAL:124>  (34) 
hydroph_interaction:VAL:124    0
hydroph_interaction:VAL:124    0
Name: 33, dtype: object

>  <hbond:VAL:124>  (34) 
hbond:VAL:124    0
hbond:VAL:124    0
Name: 33, dtype: object

>  <halogenbond:VAL:124>  (34) 
halogenbond:VAL:124    0
halogenbond:VAL:124    0
Name: 33, dtype: object

>  <hbond:SER:125>  (34) 
hbond:SER:125    1
hbond:SER:125    1
Name: 33, dtype: object

>  <halogenbond:SER:125>  (34) 
halogenbond:SER:125    0
halogenbond:SER:125    0
Name: 33, dtype: object

>  <hydroph_interaction:THR:126>  (34) 
hydroph_interaction:THR:126    0
hydroph_interaction:THR:126    0
Name: 33, dtype: object

>  <hbond:THR:126>  (34) 
hbond:THR:126    0
hbond:THR:126    0
Name: 33, dtype: object

>  <halogenbond:THR:126>  (34) 
halogenbond:THR:126    0
halogenbond:THR:126    0
Name: 33, dtype: object

>  <hbond:GLY:127>  (34) 
hbond:GLY:127    0
hbond:GLY:127    0
Name: 33, dtype: object

>  <halogenbond:GLY:127>  (34) 
halogenbond:GLY:127    0
halogenbond:GLY:127    0
Name: 33, dtype: object

>  <hydroph_interaction:GLY:127>  (34) 
hydroph_interaction:GLY:127    0
hydroph_interaction:GLY:127    0
Name: 33, dtype: object

>  <hbond:GLY:128>  (34) 
hbond:GLY:128    0
hbond:GLY:128    0
Name: 33, dtype: object

>  <halogenbond:GLY:128>  (34) 
halogenbond:GLY:128    0
halogenbond:GLY:128    0
Name: 33, dtype: object

>  <hydroph_interaction:GLY:128>  (34) 
hydroph_interaction:GLY:128    0
hydroph_interaction:GLY:128    0
Name: 33, dtype: object

>  <hbond:ASN:129>  (34) 
hbond:ASN:129    0
hbond:ASN:129    0
Name: 33, dtype: object

>  <hydroph_interaction:ASN:129>  (34) 
hydroph_interaction:ASN:129    0
hydroph_interaction:ASN:129    0
Name: 33, dtype: object

>  <halogenbond:ASN:129>  (34) 
halogenbond:ASN:129    0
halogenbond:ASN:129    0
Name: 33, dtype: object

>  <hbond:GLY:130>  (34) 
hbond:GLY:130    0
hbond:GLY:130    0
Name: 33, dtype: object

>  <hydroph_interaction:LEU:131>  (34) 
hydroph_interaction:LEU:131    0
hydroph_interaction:LEU:131    0
Name: 33, dtype: object

>  <hbond:LEU:131>  (34) 
hbond:LEU:131    0
hbond:LEU:131    0
Name: 33, dtype: object

>  <halogenbond:LEU:131>  (34) 
halogenbond:LEU:131    0
halogenbond:LEU:131    0
Name: 33, dtype: object

>  <hydroph_interaction:VAL:132>  (34) 
hydroph_interaction:VAL:132    0
hydroph_interaction:VAL:132    0
Name: 33, dtype: object

>  <hbond:VAL:132>  (34) 
hbond:VAL:132    0
hbond:VAL:132    0
Name: 33, dtype: object

>  <hbond:GLY:133>  (34) 
hbond:GLY:133    0
hbond:GLY:133    0
Name: 33, dtype: object

>  <halogenbond:GLY:133>  (34) 
halogenbond:GLY:133    0
halogenbond:GLY:133    0
Name: 33, dtype: object

>  <hydroph_interaction:PHE:134>  (34) 
hydroph_interaction:PHE:134    0
hydroph_interaction:PHE:134    0
Name: 33, dtype: object

>  <hbond:PHE:134>  (34) 
hbond:PHE:134    0
hbond:PHE:134    0
Name: 33, dtype: object

>  <pistack:PHE:134>  (34) 
pistack:PHE:134    0
pistack:PHE:134    0
Name: 33, dtype: object

>  <pication:PHE:134>  (34) 
pication:PHE:134    0
pication:PHE:134    0
Name: 33, dtype: object

>  <hydroph_interaction:ALA:135>  (34) 
hydroph_interaction:ALA:135    0
hydroph_interaction:ALA:135    0
Name: 33, dtype: object

>  <hbond:ALA:135>  (34) 
hbond:ALA:135    0
hbond:ALA:135    0
Name: 33, dtype: object

$$$$
Z4033980364
     RDKit          3D

 32 32  0  0  0  0  0  0  0  0999 V2000
    8.0310   11.9810   24.8610 C   0  0  0  0  0  0  0  0  0  0  0  0
    9.0270   12.7270   23.9760 C   0  0  0  0  0  0  0  0  0  0  0  0
    9.9550   11.8130   23.3010 N   0  0  0  0  0  0  0  0  0  0  0  0
   10.9750   12.3330   22.4850 N   0  0  0  0  0  0  0  0  0  0  0  0
   11.6510   13.3140   23.0620 C   0  0  0  0  0  0  0  0  0  0  0  0
   11.6670   13.4210   24.2750 O   0  0  0  0  0  0  0  0  0  0  0  0
   12.3860   14.4340   22.2710 C   0  0  0  0  0  0  0  0  0  0  0  0
   12.6450   15.5650   22.9600 C   0  0  0  0  0  0  0  0  0  0  0  0
   12.6990   14.2740   20.9670 C   0  0  0  0  0  0  0  0  0  0  0  0
   13.2480   15.3460   20.0710 C   0  0  0  0  0  0  0  0  0  0  0  0
   12.9490   15.5470   18.7210 C   0  0  0  0  0  0  0  0  0  0  0  0
   13.5070   16.6080   18.0910 C   0  0  0  0  0  0  0  0  0  0  0  0
   14.2720   17.1740   19.1520 C   0  0  0  0  0  0  0  0  0  0  0  0
   14.1120   16.4090   20.3280 O   0  0  0  0  0  0  0  0  0  0  0  0
    9.6660   10.4350   23.3430 C   0  0  0  0  0  0  0  0  0  0  0  0
   10.2960    9.6430   22.4600 N   0  0  0  0  0  0  0  0  0  0  0  0
    8.8750    9.8830   24.1040 O   0  0  0  0  0  0  0  0  0  0  0  0
    8.5160   11.1950   25.4440 H   0  0  0  0  0  0  0  0  0  0  0  0
    7.5230   12.6550   25.5580 H   0  0  0  0  0  0  0  0  0  0  0  0
    7.2690   11.5040   24.2470 H   0  0  0  0  0  0  0  0  0  0  0  0
    9.5560   13.4790   24.5670 H   0  0  0  0  0  0  0  0  0  0  0  0
    8.4740   13.2900   23.2130 H   0  0  0  0  0  0  0  0  0  0  0  0
   10.9420   12.1500   21.4880 H   0  0  0  0  0  0  0  0  0  0  0  0
   13.7180   15.6870   23.0120 H   0  0  0  0  0  0  0  0  0  0  0  0
   12.3120   15.5180   24.0010 H   0  0  0  0  0  0  0  0  0  0  0  0
   12.2280   16.4490   22.4720 H   0  0  0  0  0  0  0  0  0  0  0  0
   12.5230   13.3700   20.4650 H   0  0  0  0  0  0  0  0  0  0  0  0
   12.2950   14.9510   18.0780 H   0  0  0  0  0  0  0  0  0  0  0  0
   13.4190   16.9590   17.0780 H   0  0  0  0  0  0  0  0  0  0  0  0
   14.9170   18.0360   19.2220 H   0  0  0  0  0  0  0  0  0  0  0  0
   10.9920   10.1440   21.9150 H   0  0  0  0  0  0  0  0  0  0  0  0
    9.6470    9.0990   21.8970 H   0  0  0  0  0  0  0  0  0  0  0  0
  1  2  1  0
  2  3  1  0
  3  4  1  0
  4  5  1  0
  5  6  2  0
  5  7  1  0
  7  8  1  0
  7  9  2  3
  9 10  1  0
 10 11  2  0
 11 12  1  0
 12 13  2  0
 13 14  1  0
  3 15  1  0
 15 16  1  0
 15 17  2  0
 14 10  1  0
  1 18  1  0
  1 19  1  0
  1 20  1  0
  2 21  1  0
  2 22  1  0
  4 23  1  0
  8 24  1  0
  8 25  1  0
  8 26  1  0
  9 27  1  0
 11 28  1  0
 12 29  1  0
 13 30  1  0
 16 31  1  0
 16 32  1  0
A    1
 C1 
A    2
 C2 
A    3
 N1 
A    4
 N2 
A    5
 C3 
A    6
 O1 
A    7
 C4 
A    8
 C5 
A    9
 C6 
A   10
 C7 
A   11
 C8 
A   12
 C9 
A   13
 C10
A   14
 O2 
A   15
 C11
A   16
 N3 
A   17
 O3 
A   18
 H1 
A   19
 H2 
A   20
 H3 
A   21
 H4 
A   22
 H5 
A   23
 H6 
A   24
 H7 
A   25
 H8 
A   26
 H9 
A   27
 H10
A   28
 H11
A   29
 H12
A   30
 H13
A   31
 H14
A   32
 H15
M  END
>  <ref_pdb>  (35) 
x0310_0A

>  <ref_mols>  (35) 
x0554_0A,x0732_0A

>  <original SMILES>  (35) 
CCN(NC(=O)C(C)=Cc1ccco1)C(N)=O

>  <rationale>  (35) 
info hbond:S125+S105+S87; hydroph_interaction:P107+Y89+Y90+D39; pistack:Y90; 

>  <intxn_cluster>  (35) 
105

>  <intxn_cluster_rank>  (35) 
8

>  <N_interactions>  (35) 
9

>  <∆∆G>  (35) 
-6.235297

>  <$/mg>  (35) 
163.0

>  <comRMSD>  (35) 
0.968615

>  <N_rotatable_bonds>  (35) 
5

>  <N_analogues_07>  (35) 
0

>  <deep_P1_sidechain>  (35) 
True

>  <farthest_distance_to_substrate>  (35) 
2.22412

>  <hbond:SER:7>  (35) 
hbond:SER:7    0
hbond:SER:7    0
Name: 34, dtype: object

>  <halogenbond:SER:7>  (35) 
halogenbond:SER:7    0
halogenbond:SER:7    0
Name: 34, dtype: object

>  <hbond:GLY:8>  (35) 
hbond:GLY:8    0
hbond:GLY:8    0
Name: 34, dtype: object

>  <hydroph_interaction:ASN:19>  (35) 
hydroph_interaction:ASN:19    0
hydroph_interaction:ASN:19    0
Name: 34, dtype: object

>  <hbond:ASN:19>  (35) 
hbond:ASN:19    0
hbond:ASN:19    0
Name: 34, dtype: object

>  <halogenbond:ASN:19>  (35) 
halogenbond:ASN:19    0
halogenbond:ASN:19    0
Name: 34, dtype: object

>  <hbond:ARG:20>  (35) 
hbond:ARG:20    0
hbond:ARG:20    0
Name: 34, dtype: object

>  <hydroph_interaction:ARG:20>  (35) 
hydroph_interaction:ARG:20    0
hydroph_interaction:ARG:20    0
Name: 34, dtype: object

>  <saltbridge:ARG:20>  (35) 
saltbridge:ARG:20    0
saltbridge:ARG:20    0
Name: 34, dtype: object

>  <halogenbond:ARG:20>  (35) 
halogenbond:ARG:20    0
halogenbond:ARG:20    0
Name: 34, dtype: object

>  <pication:ARG:20>  (35) 
pication:ARG:20    0
pication:ARG:20    0
Name: 34, dtype: object

>  <hbond:HIS:21>  (35) 
hbond:HIS:21    0
hbond:HIS:21    0
Name: 34, dtype: object

>  <hydroph_interaction:HIS:21>  (35) 
hydroph_interaction:HIS:21    0
hydroph_interaction:HIS:21    0
Name: 34, dtype: object

>  <saltbridge:HIS:21>  (35) 
saltbridge:HIS:21    0
saltbridge:HIS:21    0
Name: 34, dtype: object

>  <pistack:HIS:21>  (35) 
pistack:HIS:21    0
pistack:HIS:21    0
Name: 34, dtype: object

>  <pication:HIS:21>  (35) 
pication:HIS:21    0
pication:HIS:21    0
Name: 34, dtype: object

>  <halogenbond:HIS:21>  (35) 
halogenbond:HIS:21    0
halogenbond:HIS:21    0
Name: 34, dtype: object

>  <hydroph_interaction:LEU:22>  (35) 
hydroph_interaction:LEU:22    0
hydroph_interaction:LEU:22    0
Name: 34, dtype: object

>  <hbond:LEU:22>  (35) 
hbond:LEU:22    0
hbond:LEU:22    0
Name: 34, dtype: object

>  <hydroph_interaction:TRP:28>  (35) 
hydroph_interaction:TRP:28    0
hydroph_interaction:TRP:28    0
Name: 34, dtype: object

>  <hbond:SER:36>  (35) 
hbond:SER:36    0
hbond:SER:36    0
Name: 34, dtype: object

>  <halogenbond:SER:36>  (35) 
halogenbond:SER:36    0
halogenbond:SER:36    0
Name: 34, dtype: object

>  <hbond:ARG:38>  (35) 
hbond:ARG:38    0
hbond:ARG:38    0
Name: 34, dtype: object

>  <halogenbond:ARG:38>  (35) 
halogenbond:ARG:38    0
halogenbond:ARG:38    0
Name: 34, dtype: object

>  <hbond:ASP:39>  (35) 
hbond:ASP:39    0
hbond:ASP:39    0
Name: 34, dtype: object

>  <saltbridge:ASP:39>  (35) 
saltbridge:ASP:39    0
saltbridge:ASP:39    0
Name: 34, dtype: object

>  <hydroph_interaction:ASP:39>  (35) 
hydroph_interaction:ASP:39    1
hydroph_interaction:ASP:39    1
Name: 34, dtype: object

>  <halogenbond:ASP:39>  (35) 
halogenbond:ASP:39    0
halogenbond:ASP:39    0
Name: 34, dtype: object

>  <hydroph_interaction:LEU:40>  (35) 
hydroph_interaction:LEU:40    0
hydroph_interaction:LEU:40    0
Name: 34, dtype: object

>  <hydroph_interaction:TYR:63>  (35) 
hydroph_interaction:TYR:63    0
hydroph_interaction:TYR:63    0
Name: 34, dtype: object

>  <pistack:TYR:63>  (35) 
pistack:TYR:63    0
pistack:TYR:63    0
Name: 34, dtype: object

>  <hbond:TYR:63>  (35) 
hbond:TYR:63    0
hbond:TYR:63    0
Name: 34, dtype: object

>  <hbond:TYR:64>  (35) 
hbond:TYR:64    0
hbond:TYR:64    0
Name: 34, dtype: object

>  <halogenbond:TYR:64>  (35) 
halogenbond:TYR:64    0
halogenbond:TYR:64    0
Name: 34, dtype: object

>  <hydroph_interaction:TYR:64>  (35) 
hydroph_interaction:TYR:64    0
hydroph_interaction:TYR:64    0
Name: 34, dtype: object

>  <hbond:CYS:65>  (35) 
hbond:CYS:65    0
hbond:CYS:65    0
Name: 34, dtype: object

>  <halogenbond:CYS:65>  (35) 
halogenbond:CYS:65    0
halogenbond:CYS:65    0
Name: 34, dtype: object

>  <hbond:SER:66>  (35) 
hbond:SER:66    0
hbond:SER:66    0
Name: 34, dtype: object

>  <hbond:SER:67>  (35) 
hbond:SER:67    0
hbond:SER:67    0
Name: 34, dtype: object

>  <halogenbond:SER:67>  (35) 
halogenbond:SER:67    0
halogenbond:SER:67    0
Name: 34, dtype: object

>  <hydroph_interaction:ARG:68>  (35) 
hydroph_interaction:ARG:68    0
hydroph_interaction:ARG:68    0
Name: 34, dtype: object

>  <hbond:ARG:68>  (35) 
hbond:ARG:68    0
hbond:ARG:68    0
Name: 34, dtype: object

>  <saltbridge:ARG:68>  (35) 
saltbridge:ARG:68    0
saltbridge:ARG:68    0
Name: 34, dtype: object

>  <pication:ARG:68>  (35) 
pication:ARG:68    0
pication:ARG:68    0
Name: 34, dtype: object

>  <hydroph_interaction:TYR:72>  (35) 
hydroph_interaction:TYR:72    0
hydroph_interaction:TYR:72    0
Name: 34, dtype: object

>  <hydroph_interaction:VAL:74>  (35) 
hydroph_interaction:VAL:74    0
hydroph_interaction:VAL:74    0
Name: 34, dtype: object

>  <hydroph_interaction:PHE:76>  (35) 
hydroph_interaction:PHE:76    0
hydroph_interaction:PHE:76    0
Name: 34, dtype: object

>  <hbond:SER:77>  (35) 
hbond:SER:77    0
hbond:SER:77    0
Name: 34, dtype: object

>  <hbond:SER:80>  (35) 
hbond:SER:80    0
hbond:SER:80    0
Name: 34, dtype: object

>  <hbond:LEU:81>  (35) 
hbond:LEU:81    0
hbond:LEU:81    0
Name: 34, dtype: object

>  <halogenbond:LEU:81>  (35) 
halogenbond:LEU:81    0
halogenbond:LEU:81    0
Name: 34, dtype: object

>  <hydroph_interaction:LEU:81>  (35) 
hydroph_interaction:LEU:81    0
hydroph_interaction:LEU:81    0
Name: 34, dtype: object

>  <hydroph_interaction:ILE:82>  (35) 
hydroph_interaction:ILE:82    0
hydroph_interaction:ILE:82    0
Name: 34, dtype: object

>  <hbond:ILE:82>  (35) 
hbond:ILE:82    0
hbond:ILE:82    0
Name: 34, dtype: object

>  <hydroph_interaction:PHE:83>  (35) 
hydroph_interaction:PHE:83    0
hydroph_interaction:PHE:83    0
Name: 34, dtype: object

>  <hbond:PHE:83>  (35) 
hbond:PHE:83    0
hbond:PHE:83    0
Name: 34, dtype: object

>  <halogenbond:PHE:83>  (35) 
halogenbond:PHE:83    0
halogenbond:PHE:83    0
Name: 34, dtype: object

>  <pistack:PHE:83>  (35) 
pistack:PHE:83    0
pistack:PHE:83    0
Name: 34, dtype: object

>  <hydroph_interaction:VAL:84>  (35) 
hydroph_interaction:VAL:84    0
hydroph_interaction:VAL:84    0
Name: 34, dtype: object

>  <hbond:VAL:84>  (35) 
hbond:VAL:84    0
hbond:VAL:84    0
Name: 34, dtype: object

>  <halogenbond:VAL:84>  (35) 
halogenbond:VAL:84    0
halogenbond:VAL:84    0
Name: 34, dtype: object

>  <hydroph_interaction:GLU:85>  (35) 
hydroph_interaction:GLU:85    0
hydroph_interaction:GLU:85    0
Name: 34, dtype: object

>  <hbond:GLU:85>  (35) 
hbond:GLU:85    0
hbond:GLU:85    0
Name: 34, dtype: object

>  <saltbridge:GLU:85>  (35) 
saltbridge:GLU:85    0
saltbridge:GLU:85    0
Name: 34, dtype: object

>  <halogenbond:GLU:85>  (35) 
halogenbond:GLU:85    0
halogenbond:GLU:85    0
Name: 34, dtype: object

>  <hbond:ALA:86>  (35) 
hbond:ALA:86    0
hbond:ALA:86    0
Name: 34, dtype: object

>  <halogenbond:ALA:86>  (35) 
halogenbond:ALA:86    0
halogenbond:ALA:86    0
Name: 34, dtype: object

>  <hydroph_interaction:ALA:86>  (35) 
hydroph_interaction:ALA:86    0
hydroph_interaction:ALA:86    0
Name: 34, dtype: object

>  <hbond:SER:87>  (35) 
hbond:SER:87    1
hbond:SER:87    1
Name: 34, dtype: object

>  <halogenbond:SER:87>  (35) 
halogenbond:SER:87    0
halogenbond:SER:87    0
Name: 34, dtype: object

>  <hbond:GLU:88>  (35) 
hbond:GLU:88    0
hbond:GLU:88    0
Name: 34, dtype: object

>  <hydroph_interaction:GLU:88>  (35) 
hydroph_interaction:GLU:88    0
hydroph_interaction:GLU:88    0
Name: 34, dtype: object

>  <halogenbond:GLU:88>  (35) 
halogenbond:GLU:88    0
halogenbond:GLU:88    0
Name: 34, dtype: object

>  <saltbridge:GLU:88>  (35) 
saltbridge:GLU:88    0
saltbridge:GLU:88    0
Name: 34, dtype: object

>  <hydroph_interaction:TYR:89>  (35) 
hydroph_interaction:TYR:89    1
hydroph_interaction:TYR:89    1
Name: 34, dtype: object

>  <pistack:TYR:89>  (35) 
pistack:TYR:89    0
pistack:TYR:89    0
Name: 34, dtype: object

>  <hbond:TYR:89>  (35) 
hbond:TYR:89    0
hbond:TYR:89    0
Name: 34, dtype: object

>  <halogenbond:TYR:89>  (35) 
halogenbond:TYR:89    0
halogenbond:TYR:89    0
Name: 34, dtype: object

>  <hbond:TYR:90>  (35) 
hbond:TYR:90    0
hbond:TYR:90    0
Name: 34, dtype: object

>  <hydroph_interaction:TYR:90>  (35) 
hydroph_interaction:TYR:90    1
hydroph_interaction:TYR:90    1
Name: 34, dtype: object

>  <pistack:TYR:90>  (35) 
pistack:TYR:90    1
pistack:TYR:90    1
Name: 34, dtype: object

>  <halogenbond:TYR:90>  (35) 
halogenbond:TYR:90    0
halogenbond:TYR:90    0
Name: 34, dtype: object

>  <pication:TYR:90>  (35) 
pication:TYR:90    0
pication:TYR:90    0
Name: 34, dtype: object

>  <hydroph_interaction:PRO:91>  (35) 
hydroph_interaction:PRO:91    0
hydroph_interaction:PRO:91    0
Name: 34, dtype: object

>  <halogenbond:PRO:91>  (35) 
halogenbond:PRO:91    0
halogenbond:PRO:91    0
Name: 34, dtype: object

>  <hbond:PRO:91>  (35) 
hbond:PRO:91    0
hbond:PRO:91    0
Name: 34, dtype: object

>  <hydroph_interaction:ALA:92>  (35) 
hydroph_interaction:ALA:92    0
hydroph_interaction:ALA:92    0
Name: 34, dtype: object

>  <hbond:ARG:93>  (35) 
hbond:ARG:93    0
hbond:ARG:93    0
Name: 34, dtype: object

>  <pication:ARG:93>  (35) 
pication:ARG:93    0
pication:ARG:93    0
Name: 34, dtype: object

>  <saltbridge:ARG:93>  (35) 
saltbridge:ARG:93    0
saltbridge:ARG:93    0
Name: 34, dtype: object

>  <hydroph_interaction:ARG:93>  (35) 
hydroph_interaction:ARG:93    0
hydroph_interaction:ARG:93    0
Name: 34, dtype: object

>  <halogenbond:ARG:93>  (35) 
halogenbond:ARG:93    0
halogenbond:ARG:93    0
Name: 34, dtype: object

>  <hydroph_interaction:TYR:94>  (35) 
hydroph_interaction:TYR:94    0
hydroph_interaction:TYR:94    0
Name: 34, dtype: object

>  <hbond:TYR:94>  (35) 
hbond:TYR:94    0
hbond:TYR:94    0
Name: 34, dtype: object

>  <halogenbond:GLN:95>  (35) 
halogenbond:GLN:95    0
halogenbond:GLN:95    0
Name: 34, dtype: object

>  <hbond:GLN:95>  (35) 
hbond:GLN:95    0
hbond:GLN:95    0
Name: 34, dtype: object

>  <hydroph_interaction:GLN:95>  (35) 
hydroph_interaction:GLN:95    0
hydroph_interaction:GLN:95    0
Name: 34, dtype: object

>  <hbond:SER:96>  (35) 
hbond:SER:96    0
hbond:SER:96    0
Name: 34, dtype: object

>  <hydroph_interaction:LEU:98>  (35) 
hydroph_interaction:LEU:98    0
hydroph_interaction:LEU:98    0
Name: 34, dtype: object

>  <hbond:LEU:98>  (35) 
hbond:LEU:98    0
hbond:LEU:98    0
Name: 34, dtype: object

>  <hbond:MET:99>  (35) 
hbond:MET:99    0
hbond:MET:99    0
Name: 34, dtype: object

>  <hydroph_interaction:MET:99>  (35) 
hydroph_interaction:MET:99    0
hydroph_interaction:MET:99    0
Name: 34, dtype: object

>  <halogenbond:MET:99>  (35) 
halogenbond:MET:99    0
halogenbond:MET:99    0
Name: 34, dtype: object

>  <hydroph_interaction:LEU:100>  (35) 
hydroph_interaction:LEU:100    0
hydroph_interaction:LEU:100    0
Name: 34, dtype: object

>  <hbond:LEU:100>  (35) 
hbond:LEU:100    0
hbond:LEU:100    0
Name: 34, dtype: object

>  <hbond:ALA:101>  (35) 
hbond:ALA:101    0
hbond:ALA:101    0
Name: 34, dtype: object

>  <hydroph_interaction:ALA:101>  (35) 
hydroph_interaction:ALA:101    0
hydroph_interaction:ALA:101    0
Name: 34, dtype: object

>  <hydroph_interaction:VAL:102>  (35) 
hydroph_interaction:VAL:102    0
hydroph_interaction:VAL:102    0
Name: 34, dtype: object

>  <hbond:VAL:102>  (35) 
hbond:VAL:102    0
hbond:VAL:102    0
Name: 34, dtype: object

>  <hbond:GLY:103>  (35) 
hbond:GLY:103    0
hbond:GLY:103    0
Name: 34, dtype: object

>  <halogenbond:GLY:103>  (35) 
halogenbond:GLY:103    0
halogenbond:GLY:103    0
Name: 34, dtype: object

>  <hydroph_interaction:HIS:104>  (35) 
hydroph_interaction:HIS:104    0
hydroph_interaction:HIS:104    0
Name: 34, dtype: object

>  <hbond:HIS:104>  (35) 
hbond:HIS:104    0
hbond:HIS:104    0
Name: 34, dtype: object

>  <saltbridge:HIS:104>  (35) 
saltbridge:HIS:104    0
saltbridge:HIS:104    0
Name: 34, dtype: object

>  <pication:HIS:104>  (35) 
pication:HIS:104    0
pication:HIS:104    0
Name: 34, dtype: object

>  <pistack:HIS:104>  (35) 
pistack:HIS:104    0
pistack:HIS:104    0
Name: 34, dtype: object

>  <halogenbond:HIS:104>  (35) 
halogenbond:HIS:104    0
halogenbond:HIS:104    0
Name: 34, dtype: object

>  <hbond:SER:105>  (35) 
hbond:SER:105    2
hbond:SER:105    2
Name: 34, dtype: object

>  <halogenbond:SER:105>  (35) 
halogenbond:SER:105    0
halogenbond:SER:105    0
Name: 34, dtype: object

>  <hbond:GLU:106>  (35) 
hbond:GLU:106    0
hbond:GLU:106    0
Name: 34, dtype: object

>  <hydroph_interaction:GLU:106>  (35) 
hydroph_interaction:GLU:106    0
hydroph_interaction:GLU:106    0
Name: 34, dtype: object

>  <saltbridge:GLU:106>  (35) 
saltbridge:GLU:106    0
saltbridge:GLU:106    0
Name: 34, dtype: object

>  <halogenbond:GLU:106>  (35) 
halogenbond:GLU:106    0
halogenbond:GLU:106    0
Name: 34, dtype: object

>  <hydroph_interaction:PRO:107>  (35) 
hydroph_interaction:PRO:107    1
hydroph_interaction:PRO:107    1
Name: 34, dtype: object

>  <hbond:PRO:107>  (35) 
hbond:PRO:107    0
hbond:PRO:107    0
Name: 34, dtype: object

>  <halogenbond:PRO:107>  (35) 
halogenbond:PRO:107    0
halogenbond:PRO:107    0
Name: 34, dtype: object

>  <hbond:GLY:108>  (35) 
hbond:GLY:108    0
hbond:GLY:108    0
Name: 34, dtype: object

>  <halogenbond:GLY:108>  (35) 
halogenbond:GLY:108    0
halogenbond:GLY:108    0
Name: 34, dtype: object

>  <hbond:ASP:109>  (35) 
hbond:ASP:109    0
hbond:ASP:109    0
Name: 34, dtype: object

>  <hydroph_interaction:ASP:109>  (35) 
hydroph_interaction:ASP:109    0
hydroph_interaction:ASP:109    0
Name: 34, dtype: object

>  <saltbridge:ASP:109>  (35) 
saltbridge:ASP:109    0
saltbridge:ASP:109    0
Name: 34, dtype: object

>  <hbond:CYS:110>  (35) 
hbond:CYS:110    0
hbond:CYS:110    0
Name: 34, dtype: object

>  <halogenbond:CYS:110>  (35) 
halogenbond:CYS:110    0
halogenbond:CYS:110    0
Name: 34, dtype: object

>  <hbond:GLY:111>  (35) 
hbond:GLY:111    0
hbond:GLY:111    0
Name: 34, dtype: object

>  <hbond:GLY:112>  (35) 
hbond:GLY:112    0
hbond:GLY:112    0
Name: 34, dtype: object

>  <hbond:ILE:113>  (35) 
hbond:ILE:113    0
hbond:ILE:113    0
Name: 34, dtype: object

>  <hydroph_interaction:LEU:114>  (35) 
hydroph_interaction:LEU:114    0
hydroph_interaction:LEU:114    0
Name: 34, dtype: object

>  <hbond:LEU:114>  (35) 
hbond:LEU:114    0
hbond:LEU:114    0
Name: 34, dtype: object

>  <hydroph_interaction:ILE:123>  (35) 
hydroph_interaction:ILE:123    0
hydroph_interaction:ILE:123    0
Name: 34, dtype: object

>  <hbond:ILE:123>  (35) 
hbond:ILE:123    0
hbond:ILE:123    0
Name: 34, dtype: object

>  <hydroph_interaction:VAL:124>  (35) 
hydroph_interaction:VAL:124    0
hydroph_interaction:VAL:124    0
Name: 34, dtype: object

>  <hbond:VAL:124>  (35) 
hbond:VAL:124    0
hbond:VAL:124    0
Name: 34, dtype: object

>  <halogenbond:VAL:124>  (35) 
halogenbond:VAL:124    0
halogenbond:VAL:124    0
Name: 34, dtype: object

>  <hbond:SER:125>  (35) 
hbond:SER:125    1
hbond:SER:125    1
Name: 34, dtype: object

>  <halogenbond:SER:125>  (35) 
halogenbond:SER:125    0
halogenbond:SER:125    0
Name: 34, dtype: object

>  <hydroph_interaction:THR:126>  (35) 
hydroph_interaction:THR:126    0
hydroph_interaction:THR:126    0
Name: 34, dtype: object

>  <hbond:THR:126>  (35) 
hbond:THR:126    0
hbond:THR:126    0
Name: 34, dtype: object

>  <halogenbond:THR:126>  (35) 
halogenbond:THR:126    0
halogenbond:THR:126    0
Name: 34, dtype: object

>  <hbond:GLY:127>  (35) 
hbond:GLY:127    0
hbond:GLY:127    0
Name: 34, dtype: object

>  <halogenbond:GLY:127>  (35) 
halogenbond:GLY:127    0
halogenbond:GLY:127    0
Name: 34, dtype: object

>  <hydroph_interaction:GLY:127>  (35) 
hydroph_interaction:GLY:127    0
hydroph_interaction:GLY:127    0
Name: 34, dtype: object

>  <hbond:GLY:128>  (35) 
hbond:GLY:128    0
hbond:GLY:128    0
Name: 34, dtype: object

>  <halogenbond:GLY:128>  (35) 
halogenbond:GLY:128    0
halogenbond:GLY:128    0
Name: 34, dtype: object

>  <hydroph_interaction:GLY:128>  (35) 
hydroph_interaction:GLY:128    0
hydroph_interaction:GLY:128    0
Name: 34, dtype: object

>  <hbond:ASN:129>  (35) 
hbond:ASN:129    0
hbond:ASN:129    0
Name: 34, dtype: object

>  <hydroph_interaction:ASN:129>  (35) 
hydroph_interaction:ASN:129    0
hydroph_interaction:ASN:129    0
Name: 34, dtype: object

>  <halogenbond:ASN:129>  (35) 
halogenbond:ASN:129    0
halogenbond:ASN:129    0
Name: 34, dtype: object

>  <hbond:GLY:130>  (35) 
hbond:GLY:130    0
hbond:GLY:130    0
Name: 34, dtype: object

>  <hydroph_interaction:LEU:131>  (35) 
hydroph_interaction:LEU:131    0
hydroph_interaction:LEU:131    0
Name: 34, dtype: object

>  <hbond:LEU:131>  (35) 
hbond:LEU:131    0
hbond:LEU:131    0
Name: 34, dtype: object

>  <halogenbond:LEU:131>  (35) 
halogenbond:LEU:131    0
halogenbond:LEU:131    0
Name: 34, dtype: object

>  <hydroph_interaction:VAL:132>  (35) 
hydroph_interaction:VAL:132    0
hydroph_interaction:VAL:132    0
Name: 34, dtype: object

>  <hbond:VAL:132>  (35) 
hbond:VAL:132    0
hbond:VAL:132    0
Name: 34, dtype: object

>  <hbond:GLY:133>  (35) 
hbond:GLY:133    0
hbond:GLY:133    0
Name: 34, dtype: object

>  <halogenbond:GLY:133>  (35) 
halogenbond:GLY:133    0
halogenbond:GLY:133    0
Name: 34, dtype: object

>  <hydroph_interaction:PHE:134>  (35) 
hydroph_interaction:PHE:134    0
hydroph_interaction:PHE:134    0
Name: 34, dtype: object

>  <hbond:PHE:134>  (35) 
hbond:PHE:134    0
hbond:PHE:134    0
Name: 34, dtype: object

>  <pistack:PHE:134>  (35) 
pistack:PHE:134    0
pistack:PHE:134    0
Name: 34, dtype: object

>  <pication:PHE:134>  (35) 
pication:PHE:134    0
pication:PHE:134    0
Name: 34, dtype: object

>  <hydroph_interaction:ALA:135>  (35) 
hydroph_interaction:ALA:135    0
hydroph_interaction:ALA:135    0
Name: 34, dtype: object

>  <hbond:ALA:135>  (35) 
hbond:ALA:135    0
hbond:ALA:135    0
Name: 34, dtype: object

$$$$
Z3475450457
     RDKit          3D

 43 43  0  0  0  0  0  0  0  0999 V2000
   10.1590    9.3960   22.8870 C   0  0  0  0  0  0  0  0  0  0  0  0
    9.2180   10.2780   23.6430 C   0  0  0  0  0  0  0  0  0  0  0  0
    8.3620    9.7790   24.5370 N   0  0  0  0  0  0  0  0  0  0  0  0
    7.6880   10.8490   24.9950 N   0  0  0  0  0  0  0  0  0  0  0  0
    6.6450   10.6930   25.9840 C   0  0  0  0  0  0  0  0  0  0  0  0
    8.0890   12.0190   24.4280 C   0  0  0  0  0  0  0  0  0  0  0  0
    9.0750   11.6810   23.5480 C   0  0  0  0  0  0  0  0  0  0  0  0
    9.7720   12.5220   22.7460 N   0  0  0  0  0  0  0  0  0  0  0  0
   10.6080   13.4240   23.2830 C   0  0  0  0  0  0  0  0  0  0  0  0
   10.4800   14.0570   24.3260 O   0  0  0  0  0  0  0  0  0  0  0  0
   11.7500   13.5090   22.3530 C   0  0  0  0  0  0  0  0  0  0  0  0
   12.8440   14.3010   22.8720 C   0  0  0  0  0  0  0  0  0  0  0  0
   12.7380   15.5900   23.2280 C   0  0  0  0  0  0  0  0  0  0  0  0
   14.0410   14.2030   21.8930 C   0  0  0  0  0  0  0  0  0  0  0  0
   13.6110   13.7490   20.5490 C   0  0  0  0  0  0  0  0  0  0  0  0
   15.2390   13.3920   22.3700 C   0  0  0  0  0  0  0  0  0  0  0  0
   16.2290   14.2100   23.0380 C   0  0  0  0  0  0  0  0  0  0  0  0
   15.8740   12.6510   21.1930 C   0  0  0  0  0  0  0  0  0  0  0  0
    9.6530    8.4830   22.5770 H   0  0  0  0  0  0  0  0  0  0  0  0
   10.5060    9.9070   21.9850 H   0  0  0  0  0  0  0  0  0  0  0  0
   11.0430    9.1120   23.4580 H   0  0  0  0  0  0  0  0  0  0  0  0
    6.0290    9.8560   25.6970 H   0  0  0  0  0  0  0  0  0  0  0  0
    7.0580   10.5200   26.9710 H   0  0  0  0  0  0  0  0  0  0  0  0
    6.0550   11.6120   25.9940 H   0  0  0  0  0  0  0  0  0  0  0  0
    7.6430   12.9670   24.6950 H   0  0  0  0  0  0  0  0  0  0  0  0
   10.0790   12.1480   21.8370 H   0  0  0  0  0  0  0  0  0  0  0  0
   11.4260   13.8340   21.3840 H   0  0  0  0  0  0  0  0  0  0  0  0
   12.0590   12.5180   22.2120 H   0  0  0  0  0  0  0  0  0  0  0  0
   13.1620   13.7840   23.7890 H   0  0  0  0  0  0  0  0  0  0  0  0
   12.1740   16.1860   22.5180 H   0  0  0  0  0  0  0  0  0  0  0  0
   13.7270   15.9720   23.2780 H   0  0  0  0  0  0  0  0  0  0  0  0
   12.3070   15.7030   24.2260 H   0  0  0  0  0  0  0  0  0  0  0  0
   14.4100   15.2260   21.7920 H   0  0  0  0  0  0  0  0  0  0  0  0
   14.4400   13.8290   19.8520 H   0  0  0  0  0  0  0  0  0  0  0  0
   12.7900   14.3560   20.1650 H   0  0  0  0  0  0  0  0  0  0  0  0
   13.2900   12.7200   20.5450 H   0  0  0  0  0  0  0  0  0  0  0  0
   14.9220   12.6500   23.1020 H   0  0  0  0  0  0  0  0  0  0  0  0
   15.9860   15.2250   22.8310 H   0  0  0  0  0  0  0  0  0  0  0  0
   17.2300   14.0540   22.6710 H   0  0  0  0  0  0  0  0  0  0  0  0
   16.2360   14.0590   24.1200 H   0  0  0  0  0  0  0  0  0  0  0  0
   15.1300   12.3670   20.4440 H   0  0  0  0  0  0  0  0  0  0  0  0
   16.3900   11.7600   21.5110 H   0  0  0  0  0  0  0  0  0  0  0  0
   16.6090   13.2570   20.6860 H   0  0  0  0  0  0  0  0  0  0  0  0
  1  2  1  0
  2  3  2  0
  3  4  1  0
  4  5  1  0
  4  6  1  0
  6  7  2  0
  7  8  1  0
  8  9  1  0
  9 10  2  0
  9 11  1  0
 11 12  1  0
 12 13  1  0
 12 14  1  0
 14 15  1  0
 14 16  1  0
 16 17  1  0
 16 18  1  0
  7  2  1  0
  1 19  1  0
  1 20  1  0
  1 21  1  0
  5 22  1  0
  5 23  1  0
  5 24  1  0
  6 25  1  0
  8 26  1  0
 11 27  1  0
 11 28  1  0
 12 29  1  0
 13 30  1  0
 13 31  1  0
 13 32  1  0
 14 33  1  0
 15 34  1  0
 15 35  1  0
 15 36  1  0
 16 37  1  0
 17 38  1  0
 17 39  1  0
 17 40  1  0
 18 41  1  0
 18 42  1  0
 18 43  1  0
A    1
 C1 
A    2
 C2 
A    3
 N1 
A    4
 N2 
A    5
 C3 
A    6
 C4 
A    7
 C5 
A    8
 N3 
A    9
 C6 
A   10
 O1 
A   11
 C7 
A   12
 C8 
A   13
 C9 
A   14
 C10
A   15
 C11
A   16
 C12
A   17
 C13
A   18
 C14
A   19
 H1 
A   20
 H2 
A   21
 H3 
A   22
 H4 
A   23
 H5 
A   24
 H6 
A   25
 H7 
A   26
 H8 
A   27
 H9 
A   28
 H10
A   29
 H11
A   30
 H12
A   31
 H13
A   32
 H14
A   33
 H15
A   34
 H16
A   35
 H17
A   36
 H18
A   37
 H19
A   38
 H20
A   39
 H21
A   40
 H22
A   41
 H23
A   42
 H24
A   43
 H25
M  END
>  <ref_pdb>  (36) 
x0310_0A

>  <ref_mols>  (36) 
x0310_0A,x0451_0A,x0365_0A

>  <original SMILES>  (36) 
Cc1nn(C)cc1NC(=O)CC(C)C(C)C(C)C

>  <rationale>  (36) 
info hbond:S125+G127+S87; hydroph_interaction:V124+Y89+H21+L22+N19; 

>  <intxn_cluster>  (36) 
103

>  <intxn_cluster_rank>  (36) 
8

>  <N_interactions>  (36) 
10

>  <∆∆G>  (36) 
-11.711206

>  <$/mg>  (36) 
0.0

>  <comRMSD>  (36) 
0.691164

>  <N_rotatable_bonds>  (36) 
11

>  <N_analogues_07>  (36) 
0

>  <deep_P1_sidechain>  (36) 
True

>  <farthest_distance_to_substrate>  (36) 
3.088747

>  <hbond:SER:7>  (36) 
hbond:SER:7    0
hbond:SER:7    0
Name: 35, dtype: object

>  <halogenbond:SER:7>  (36) 
halogenbond:SER:7    0
halogenbond:SER:7    0
Name: 35, dtype: object

>  <hbond:GLY:8>  (36) 
hbond:GLY:8    0
hbond:GLY:8    0
Name: 35, dtype: object

>  <hydroph_interaction:ASN:19>  (36) 
hydroph_interaction:ASN:19    1
hydroph_interaction:ASN:19    1
Name: 35, dtype: object

>  <hbond:ASN:19>  (36) 
hbond:ASN:19    0
hbond:ASN:19    0
Name: 35, dtype: object

>  <halogenbond:ASN:19>  (36) 
halogenbond:ASN:19    0
halogenbond:ASN:19    0
Name: 35, dtype: object

>  <hbond:ARG:20>  (36) 
hbond:ARG:20    0
hbond:ARG:20    0
Name: 35, dtype: object

>  <hydroph_interaction:ARG:20>  (36) 
hydroph_interaction:ARG:20    0
hydroph_interaction:ARG:20    0
Name: 35, dtype: object

>  <saltbridge:ARG:20>  (36) 
saltbridge:ARG:20    0
saltbridge:ARG:20    0
Name: 35, dtype: object

>  <halogenbond:ARG:20>  (36) 
halogenbond:ARG:20    0
halogenbond:ARG:20    0
Name: 35, dtype: object

>  <pication:ARG:20>  (36) 
pication:ARG:20    0
pication:ARG:20    0
Name: 35, dtype: object

>  <hbond:HIS:21>  (36) 
hbond:HIS:21    0
hbond:HIS:21    0
Name: 35, dtype: object

>  <hydroph_interaction:HIS:21>  (36) 
hydroph_interaction:HIS:21    1
hydroph_interaction:HIS:21    1
Name: 35, dtype: object

>  <saltbridge:HIS:21>  (36) 
saltbridge:HIS:21    0
saltbridge:HIS:21    0
Name: 35, dtype: object

>  <pistack:HIS:21>  (36) 
pistack:HIS:21    0
pistack:HIS:21    0
Name: 35, dtype: object

>  <pication:HIS:21>  (36) 
pication:HIS:21    0
pication:HIS:21    0
Name: 35, dtype: object

>  <halogenbond:HIS:21>  (36) 
halogenbond:HIS:21    0
halogenbond:HIS:21    0
Name: 35, dtype: object

>  <hydroph_interaction:LEU:22>  (36) 
hydroph_interaction:LEU:22    2
hydroph_interaction:LEU:22    2
Name: 35, dtype: object

>  <hbond:LEU:22>  (36) 
hbond:LEU:22    0
hbond:LEU:22    0
Name: 35, dtype: object

>  <hydroph_interaction:TRP:28>  (36) 
hydroph_interaction:TRP:28    0
hydroph_interaction:TRP:28    0
Name: 35, dtype: object

>  <hbond:SER:36>  (36) 
hbond:SER:36    0
hbond:SER:36    0
Name: 35, dtype: object

>  <halogenbond:SER:36>  (36) 
halogenbond:SER:36    0
halogenbond:SER:36    0
Name: 35, dtype: object

>  <hbond:ARG:38>  (36) 
hbond:ARG:38    0
hbond:ARG:38    0
Name: 35, dtype: object

>  <halogenbond:ARG:38>  (36) 
halogenbond:ARG:38    0
halogenbond:ARG:38    0
Name: 35, dtype: object

>  <hbond:ASP:39>  (36) 
hbond:ASP:39    0
hbond:ASP:39    0
Name: 35, dtype: object

>  <saltbridge:ASP:39>  (36) 
saltbridge:ASP:39    0
saltbridge:ASP:39    0
Name: 35, dtype: object

>  <hydroph_interaction:ASP:39>  (36) 
hydroph_interaction:ASP:39    0
hydroph_interaction:ASP:39    0
Name: 35, dtype: object

>  <halogenbond:ASP:39>  (36) 
halogenbond:ASP:39    0
halogenbond:ASP:39    0
Name: 35, dtype: object

>  <hydroph_interaction:LEU:40>  (36) 
hydroph_interaction:LEU:40    0
hydroph_interaction:LEU:40    0
Name: 35, dtype: object

>  <hydroph_interaction:TYR:63>  (36) 
hydroph_interaction:TYR:63    0
hydroph_interaction:TYR:63    0
Name: 35, dtype: object

>  <pistack:TYR:63>  (36) 
pistack:TYR:63    0
pistack:TYR:63    0
Name: 35, dtype: object

>  <hbond:TYR:63>  (36) 
hbond:TYR:63    0
hbond:TYR:63    0
Name: 35, dtype: object

>  <hbond:TYR:64>  (36) 
hbond:TYR:64    0
hbond:TYR:64    0
Name: 35, dtype: object

>  <halogenbond:TYR:64>  (36) 
halogenbond:TYR:64    0
halogenbond:TYR:64    0
Name: 35, dtype: object

>  <hydroph_interaction:TYR:64>  (36) 
hydroph_interaction:TYR:64    0
hydroph_interaction:TYR:64    0
Name: 35, dtype: object

>  <hbond:CYS:65>  (36) 
hbond:CYS:65    0
hbond:CYS:65    0
Name: 35, dtype: object

>  <halogenbond:CYS:65>  (36) 
halogenbond:CYS:65    0
halogenbond:CYS:65    0
Name: 35, dtype: object

>  <hbond:SER:66>  (36) 
hbond:SER:66    0
hbond:SER:66    0
Name: 35, dtype: object

>  <hbond:SER:67>  (36) 
hbond:SER:67    0
hbond:SER:67    0
Name: 35, dtype: object

>  <halogenbond:SER:67>  (36) 
halogenbond:SER:67    0
halogenbond:SER:67    0
Name: 35, dtype: object

>  <hydroph_interaction:ARG:68>  (36) 
hydroph_interaction:ARG:68    0
hydroph_interaction:ARG:68    0
Name: 35, dtype: object

>  <hbond:ARG:68>  (36) 
hbond:ARG:68    0
hbond:ARG:68    0
Name: 35, dtype: object

>  <saltbridge:ARG:68>  (36) 
saltbridge:ARG:68    0
saltbridge:ARG:68    0
Name: 35, dtype: object

>  <pication:ARG:68>  (36) 
pication:ARG:68    0
pication:ARG:68    0
Name: 35, dtype: object

>  <hydroph_interaction:TYR:72>  (36) 
hydroph_interaction:TYR:72    0
hydroph_interaction:TYR:72    0
Name: 35, dtype: object

>  <hydroph_interaction:VAL:74>  (36) 
hydroph_interaction:VAL:74    0
hydroph_interaction:VAL:74    0
Name: 35, dtype: object

>  <hydroph_interaction:PHE:76>  (36) 
hydroph_interaction:PHE:76    0
hydroph_interaction:PHE:76    0
Name: 35, dtype: object

>  <hbond:SER:77>  (36) 
hbond:SER:77    0
hbond:SER:77    0
Name: 35, dtype: object

>  <hbond:SER:80>  (36) 
hbond:SER:80    0
hbond:SER:80    0
Name: 35, dtype: object

>  <hbond:LEU:81>  (36) 
hbond:LEU:81    0
hbond:LEU:81    0
Name: 35, dtype: object

>  <halogenbond:LEU:81>  (36) 
halogenbond:LEU:81    0
halogenbond:LEU:81    0
Name: 35, dtype: object

>  <hydroph_interaction:LEU:81>  (36) 
hydroph_interaction:LEU:81    0
hydroph_interaction:LEU:81    0
Name: 35, dtype: object

>  <hydroph_interaction:ILE:82>  (36) 
hydroph_interaction:ILE:82    0
hydroph_interaction:ILE:82    0
Name: 35, dtype: object

>  <hbond:ILE:82>  (36) 
hbond:ILE:82    0
hbond:ILE:82    0
Name: 35, dtype: object

>  <hydroph_interaction:PHE:83>  (36) 
hydroph_interaction:PHE:83    0
hydroph_interaction:PHE:83    0
Name: 35, dtype: object

>  <hbond:PHE:83>  (36) 
hbond:PHE:83    0
hbond:PHE:83    0
Name: 35, dtype: object

>  <halogenbond:PHE:83>  (36) 
halogenbond:PHE:83    0
halogenbond:PHE:83    0
Name: 35, dtype: object

>  <pistack:PHE:83>  (36) 
pistack:PHE:83    0
pistack:PHE:83    0
Name: 35, dtype: object

>  <hydroph_interaction:VAL:84>  (36) 
hydroph_interaction:VAL:84    0
hydroph_interaction:VAL:84    0
Name: 35, dtype: object

>  <hbond:VAL:84>  (36) 
hbond:VAL:84    0
hbond:VAL:84    0
Name: 35, dtype: object

>  <halogenbond:VAL:84>  (36) 
halogenbond:VAL:84    0
halogenbond:VAL:84    0
Name: 35, dtype: object

>  <hydroph_interaction:GLU:85>  (36) 
hydroph_interaction:GLU:85    0
hydroph_interaction:GLU:85    0
Name: 35, dtype: object

>  <hbond:GLU:85>  (36) 
hbond:GLU:85    0
hbond:GLU:85    0
Name: 35, dtype: object

>  <saltbridge:GLU:85>  (36) 
saltbridge:GLU:85    0
saltbridge:GLU:85    0
Name: 35, dtype: object

>  <halogenbond:GLU:85>  (36) 
halogenbond:GLU:85    0
halogenbond:GLU:85    0
Name: 35, dtype: object

>  <hbond:ALA:86>  (36) 
hbond:ALA:86    0
hbond:ALA:86    0
Name: 35, dtype: object

>  <halogenbond:ALA:86>  (36) 
halogenbond:ALA:86    0
halogenbond:ALA:86    0
Name: 35, dtype: object

>  <hydroph_interaction:ALA:86>  (36) 
hydroph_interaction:ALA:86    0
hydroph_interaction:ALA:86    0
Name: 35, dtype: object

>  <hbond:SER:87>  (36) 
hbond:SER:87    1
hbond:SER:87    1
Name: 35, dtype: object

>  <halogenbond:SER:87>  (36) 
halogenbond:SER:87    0
halogenbond:SER:87    0
Name: 35, dtype: object

>  <hbond:GLU:88>  (36) 
hbond:GLU:88    0
hbond:GLU:88    0
Name: 35, dtype: object

>  <hydroph_interaction:GLU:88>  (36) 
hydroph_interaction:GLU:88    0
hydroph_interaction:GLU:88    0
Name: 35, dtype: object

>  <halogenbond:GLU:88>  (36) 
halogenbond:GLU:88    0
halogenbond:GLU:88    0
Name: 35, dtype: object

>  <saltbridge:GLU:88>  (36) 
saltbridge:GLU:88    0
saltbridge:GLU:88    0
Name: 35, dtype: object

>  <hydroph_interaction:TYR:89>  (36) 
hydroph_interaction:TYR:89    2
hydroph_interaction:TYR:89    2
Name: 35, dtype: object

>  <pistack:TYR:89>  (36) 
pistack:TYR:89    0
pistack:TYR:89    0
Name: 35, dtype: object

>  <hbond:TYR:89>  (36) 
hbond:TYR:89    0
hbond:TYR:89    0
Name: 35, dtype: object

>  <halogenbond:TYR:89>  (36) 
halogenbond:TYR:89    0
halogenbond:TYR:89    0
Name: 35, dtype: object

>  <hbond:TYR:90>  (36) 
hbond:TYR:90    0
hbond:TYR:90    0
Name: 35, dtype: object

>  <hydroph_interaction:TYR:90>  (36) 
hydroph_interaction:TYR:90    0
hydroph_interaction:TYR:90    0
Name: 35, dtype: object

>  <pistack:TYR:90>  (36) 
pistack:TYR:90    0
pistack:TYR:90    0
Name: 35, dtype: object

>  <halogenbond:TYR:90>  (36) 
halogenbond:TYR:90    0
halogenbond:TYR:90    0
Name: 35, dtype: object

>  <pication:TYR:90>  (36) 
pication:TYR:90    0
pication:TYR:90    0
Name: 35, dtype: object

>  <hydroph_interaction:PRO:91>  (36) 
hydroph_interaction:PRO:91    0
hydroph_interaction:PRO:91    0
Name: 35, dtype: object

>  <halogenbond:PRO:91>  (36) 
halogenbond:PRO:91    0
halogenbond:PRO:91    0
Name: 35, dtype: object

>  <hbond:PRO:91>  (36) 
hbond:PRO:91    0
hbond:PRO:91    0
Name: 35, dtype: object

>  <hydroph_interaction:ALA:92>  (36) 
hydroph_interaction:ALA:92    0
hydroph_interaction:ALA:92    0
Name: 35, dtype: object

>  <hbond:ARG:93>  (36) 
hbond:ARG:93    0
hbond:ARG:93    0
Name: 35, dtype: object

>  <pication:ARG:93>  (36) 
pication:ARG:93    0
pication:ARG:93    0
Name: 35, dtype: object

>  <saltbridge:ARG:93>  (36) 
saltbridge:ARG:93    0
saltbridge:ARG:93    0
Name: 35, dtype: object

>  <hydroph_interaction:ARG:93>  (36) 
hydroph_interaction:ARG:93    0
hydroph_interaction:ARG:93    0
Name: 35, dtype: object

>  <halogenbond:ARG:93>  (36) 
halogenbond:ARG:93    0
halogenbond:ARG:93    0
Name: 35, dtype: object

>  <hydroph_interaction:TYR:94>  (36) 
hydroph_interaction:TYR:94    0
hydroph_interaction:TYR:94    0
Name: 35, dtype: object

>  <hbond:TYR:94>  (36) 
hbond:TYR:94    0
hbond:TYR:94    0
Name: 35, dtype: object

>  <halogenbond:GLN:95>  (36) 
halogenbond:GLN:95    0
halogenbond:GLN:95    0
Name: 35, dtype: object

>  <hbond:GLN:95>  (36) 
hbond:GLN:95    0
hbond:GLN:95    0
Name: 35, dtype: object

>  <hydroph_interaction:GLN:95>  (36) 
hydroph_interaction:GLN:95    0
hydroph_interaction:GLN:95    0
Name: 35, dtype: object

>  <hbond:SER:96>  (36) 
hbond:SER:96    0
hbond:SER:96    0
Name: 35, dtype: object

>  <hydroph_interaction:LEU:98>  (36) 
hydroph_interaction:LEU:98    0
hydroph_interaction:LEU:98    0
Name: 35, dtype: object

>  <hbond:LEU:98>  (36) 
hbond:LEU:98    0
hbond:LEU:98    0
Name: 35, dtype: object

>  <hbond:MET:99>  (36) 
hbond:MET:99    0
hbond:MET:99    0
Name: 35, dtype: object

>  <hydroph_interaction:MET:99>  (36) 
hydroph_interaction:MET:99    0
hydroph_interaction:MET:99    0
Name: 35, dtype: object

>  <halogenbond:MET:99>  (36) 
halogenbond:MET:99    0
halogenbond:MET:99    0
Name: 35, dtype: object

>  <hydroph_interaction:LEU:100>  (36) 
hydroph_interaction:LEU:100    0
hydroph_interaction:LEU:100    0
Name: 35, dtype: object

>  <hbond:LEU:100>  (36) 
hbond:LEU:100    0
hbond:LEU:100    0
Name: 35, dtype: object

>  <hbond:ALA:101>  (36) 
hbond:ALA:101    0
hbond:ALA:101    0
Name: 35, dtype: object

>  <hydroph_interaction:ALA:101>  (36) 
hydroph_interaction:ALA:101    0
hydroph_interaction:ALA:101    0
Name: 35, dtype: object

>  <hydroph_interaction:VAL:102>  (36) 
hydroph_interaction:VAL:102    0
hydroph_interaction:VAL:102    0
Name: 35, dtype: object

>  <hbond:VAL:102>  (36) 
hbond:VAL:102    0
hbond:VAL:102    0
Name: 35, dtype: object

>  <hbond:GLY:103>  (36) 
hbond:GLY:103    0
hbond:GLY:103    0
Name: 35, dtype: object

>  <halogenbond:GLY:103>  (36) 
halogenbond:GLY:103    0
halogenbond:GLY:103    0
Name: 35, dtype: object

>  <hydroph_interaction:HIS:104>  (36) 
hydroph_interaction:HIS:104    0
hydroph_interaction:HIS:104    0
Name: 35, dtype: object

>  <hbond:HIS:104>  (36) 
hbond:HIS:104    0
hbond:HIS:104    0
Name: 35, dtype: object

>  <saltbridge:HIS:104>  (36) 
saltbridge:HIS:104    0
saltbridge:HIS:104    0
Name: 35, dtype: object

>  <pication:HIS:104>  (36) 
pication:HIS:104    0
pication:HIS:104    0
Name: 35, dtype: object

>  <pistack:HIS:104>  (36) 
pistack:HIS:104    0
pistack:HIS:104    0
Name: 35, dtype: object

>  <halogenbond:HIS:104>  (36) 
halogenbond:HIS:104    0
halogenbond:HIS:104    0
Name: 35, dtype: object

>  <hbond:SER:105>  (36) 
hbond:SER:105    0
hbond:SER:105    0
Name: 35, dtype: object

>  <halogenbond:SER:105>  (36) 
halogenbond:SER:105    0
halogenbond:SER:105    0
Name: 35, dtype: object

>  <hbond:GLU:106>  (36) 
hbond:GLU:106    0
hbond:GLU:106    0
Name: 35, dtype: object

>  <hydroph_interaction:GLU:106>  (36) 
hydroph_interaction:GLU:106    0
hydroph_interaction:GLU:106    0
Name: 35, dtype: object

>  <saltbridge:GLU:106>  (36) 
saltbridge:GLU:106    0
saltbridge:GLU:106    0
Name: 35, dtype: object

>  <halogenbond:GLU:106>  (36) 
halogenbond:GLU:106    0
halogenbond:GLU:106    0
Name: 35, dtype: object

>  <hydroph_interaction:PRO:107>  (36) 
hydroph_interaction:PRO:107    0
hydroph_interaction:PRO:107    0
Name: 35, dtype: object

>  <hbond:PRO:107>  (36) 
hbond:PRO:107    0
hbond:PRO:107    0
Name: 35, dtype: object

>  <halogenbond:PRO:107>  (36) 
halogenbond:PRO:107    0
halogenbond:PRO:107    0
Name: 35, dtype: object

>  <hbond:GLY:108>  (36) 
hbond:GLY:108    0
hbond:GLY:108    0
Name: 35, dtype: object

>  <halogenbond:GLY:108>  (36) 
halogenbond:GLY:108    0
halogenbond:GLY:108    0
Name: 35, dtype: object

>  <hbond:ASP:109>  (36) 
hbond:ASP:109    0
hbond:ASP:109    0
Name: 35, dtype: object

>  <hydroph_interaction:ASP:109>  (36) 
hydroph_interaction:ASP:109    0
hydroph_interaction:ASP:109    0
Name: 35, dtype: object

>  <saltbridge:ASP:109>  (36) 
saltbridge:ASP:109    0
saltbridge:ASP:109    0
Name: 35, dtype: object

>  <hbond:CYS:110>  (36) 
hbond:CYS:110    0
hbond:CYS:110    0
Name: 35, dtype: object

>  <halogenbond:CYS:110>  (36) 
halogenbond:CYS:110    0
halogenbond:CYS:110    0
Name: 35, dtype: object

>  <hbond:GLY:111>  (36) 
hbond:GLY:111    0
hbond:GLY:111    0
Name: 35, dtype: object

>  <hbond:GLY:112>  (36) 
hbond:GLY:112    0
hbond:GLY:112    0
Name: 35, dtype: object

>  <hbond:ILE:113>  (36) 
hbond:ILE:113    0
hbond:ILE:113    0
Name: 35, dtype: object

>  <hydroph_interaction:LEU:114>  (36) 
hydroph_interaction:LEU:114    0
hydroph_interaction:LEU:114    0
Name: 35, dtype: object

>  <hbond:LEU:114>  (36) 
hbond:LEU:114    0
hbond:LEU:114    0
Name: 35, dtype: object

>  <hydroph_interaction:ILE:123>  (36) 
hydroph_interaction:ILE:123    0
hydroph_interaction:ILE:123    0
Name: 35, dtype: object

>  <hbond:ILE:123>  (36) 
hbond:ILE:123    0
hbond:ILE:123    0
Name: 35, dtype: object

>  <hydroph_interaction:VAL:124>  (36) 
hydroph_interaction:VAL:124    1
hydroph_interaction:VAL:124    1
Name: 35, dtype: object

>  <hbond:VAL:124>  (36) 
hbond:VAL:124    0
hbond:VAL:124    0
Name: 35, dtype: object

>  <halogenbond:VAL:124>  (36) 
halogenbond:VAL:124    0
halogenbond:VAL:124    0
Name: 35, dtype: object

>  <hbond:SER:125>  (36) 
hbond:SER:125    1
hbond:SER:125    1
Name: 35, dtype: object

>  <halogenbond:SER:125>  (36) 
halogenbond:SER:125    0
halogenbond:SER:125    0
Name: 35, dtype: object

>  <hydroph_interaction:THR:126>  (36) 
hydroph_interaction:THR:126    0
hydroph_interaction:THR:126    0
Name: 35, dtype: object

>  <hbond:THR:126>  (36) 
hbond:THR:126    0
hbond:THR:126    0
Name: 35, dtype: object

>  <halogenbond:THR:126>  (36) 
halogenbond:THR:126    0
halogenbond:THR:126    0
Name: 35, dtype: object

>  <hbond:GLY:127>  (36) 
hbond:GLY:127    1
hbond:GLY:127    1
Name: 35, dtype: object

>  <halogenbond:GLY:127>  (36) 
halogenbond:GLY:127    0
halogenbond:GLY:127    0
Name: 35, dtype: object

>  <hydroph_interaction:GLY:127>  (36) 
hydroph_interaction:GLY:127    0
hydroph_interaction:GLY:127    0
Name: 35, dtype: object

>  <hbond:GLY:128>  (36) 
hbond:GLY:128    0
hbond:GLY:128    0
Name: 35, dtype: object

>  <halogenbond:GLY:128>  (36) 
halogenbond:GLY:128    0
halogenbond:GLY:128    0
Name: 35, dtype: object

>  <hydroph_interaction:GLY:128>  (36) 
hydroph_interaction:GLY:128    0
hydroph_interaction:GLY:128    0
Name: 35, dtype: object

>  <hbond:ASN:129>  (36) 
hbond:ASN:129    0
hbond:ASN:129    0
Name: 35, dtype: object

>  <hydroph_interaction:ASN:129>  (36) 
hydroph_interaction:ASN:129    0
hydroph_interaction:ASN:129    0
Name: 35, dtype: object

>  <halogenbond:ASN:129>  (36) 
halogenbond:ASN:129    0
halogenbond:ASN:129    0
Name: 35, dtype: object

>  <hbond:GLY:130>  (36) 
hbond:GLY:130    0
hbond:GLY:130    0
Name: 35, dtype: object

>  <hydroph_interaction:LEU:131>  (36) 
hydroph_interaction:LEU:131    0
hydroph_interaction:LEU:131    0
Name: 35, dtype: object

>  <hbond:LEU:131>  (36) 
hbond:LEU:131    0
hbond:LEU:131    0
Name: 35, dtype: object

>  <halogenbond:LEU:131>  (36) 
halogenbond:LEU:131    0
halogenbond:LEU:131    0
Name: 35, dtype: object

>  <hydroph_interaction:VAL:132>  (36) 
hydroph_interaction:VAL:132    0
hydroph_interaction:VAL:132    0
Name: 35, dtype: object

>  <hbond:VAL:132>  (36) 
hbond:VAL:132    0
hbond:VAL:132    0
Name: 35, dtype: object

>  <hbond:GLY:133>  (36) 
hbond:GLY:133    0
hbond:GLY:133    0
Name: 35, dtype: object

>  <halogenbond:GLY:133>  (36) 
halogenbond:GLY:133    0
halogenbond:GLY:133    0
Name: 35, dtype: object

>  <hydroph_interaction:PHE:134>  (36) 
hydroph_interaction:PHE:134    0
hydroph_interaction:PHE:134    0
Name: 35, dtype: object

>  <hbond:PHE:134>  (36) 
hbond:PHE:134    0
hbond:PHE:134    0
Name: 35, dtype: object

>  <pistack:PHE:134>  (36) 
pistack:PHE:134    0
pistack:PHE:134    0
Name: 35, dtype: object

>  <pication:PHE:134>  (36) 
pication:PHE:134    0
pication:PHE:134    0
Name: 35, dtype: object

>  <hydroph_interaction:ALA:135>  (36) 
hydroph_interaction:ALA:135    0
hydroph_interaction:ALA:135    0
Name: 35, dtype: object

>  <hbond:ALA:135>  (36) 
hbond:ALA:135    0
hbond:ALA:135    0
Name: 35, dtype: object

$$$$
Z3612982914
     RDKit          3D

 32 33  0  0  0  0  0  0  0  0999 V2000
   13.1450   16.0710   21.0800 C   0  0  0  0  0  0  0  0  0  0  0  0
   13.2370   15.2140   22.2580 C   0  0  0  0  0  0  0  0  0  0  0  0
   14.2360   15.2840   23.1200 N   0  0  0  0  0  0  0  0  0  0  0  0
   13.9830   14.3550   24.0510 N   0  0  0  0  0  0  0  0  0  0  0  0
   14.9080   14.1630   25.1790 C   0  0  0  0  0  0  0  0  0  0  0  0
   14.4190   14.6650   26.3430 F   0  0  0  0  0  0  0  0  0  0  0  0
   15.2020   12.8540   25.4060 F   0  0  0  0  0  0  0  0  0  0  0  0
   12.8360   13.7040   23.7840 C   0  0  0  0  0  0  0  0  0  0  0  0
   12.3340   14.2500   22.6420 C   0  0  0  0  0  0  0  0  0  0  0  0
   11.1770   13.8940   22.0710 N   0  0  0  0  0  0  0  0  0  0  0  0
   10.2390   13.8030   23.0310 C   0  0  0  0  0  0  0  0  0  0  0  0
    9.8370   14.6590   23.7480 O   0  0  0  0  0  0  0  0  0  0  0  0
    9.7450   12.5310   23.3040 C   0  0  0  0  0  0  0  0  0  0  0  0
   10.1830   11.4520   22.7030 N   0  0  0  0  0  0  0  0  0  0  0  0
    9.4650   10.5080   23.2640 N   0  0  0  0  0  0  0  0  0  0  0  0
    9.7250    9.2030   22.7930 C   0  0  0  0  0  0  0  0  0  0  0  0
    8.5830   10.9790   24.2120 C   0  0  0  0  0  0  0  0  0  0  0  0
    7.6490   10.2380   25.0220 C   0  0  0  0  0  0  0  0  0  0  0  0
    8.7550   12.2900   24.2450 C   0  0  0  0  0  0  0  0  0  0  0  0
   12.5500   16.9620   21.3060 H   0  0  0  0  0  0  0  0  0  0  0  0
   14.1290   16.3870   20.7300 H   0  0  0  0  0  0  0  0  0  0  0  0
   12.6620   15.5160   20.2690 H   0  0  0  0  0  0  0  0  0  0  0  0
   15.8220   14.7000   24.9220 H   0  0  0  0  0  0  0  0  0  0  0  0
   12.4710   12.9180   24.4270 H   0  0  0  0  0  0  0  0  0  0  0  0
   11.2170   13.1800   21.3390 H   0  0  0  0  0  0  0  0  0  0  0  0
   10.3390    8.6810   23.5170 H   0  0  0  0  0  0  0  0  0  0  0  0
   10.2900    9.2730   21.8590 H   0  0  0  0  0  0  0  0  0  0  0  0
    8.7780    8.7100   22.6260 H   0  0  0  0  0  0  0  0  0  0  0  0
    7.8850   10.3430   26.0490 H   0  0  0  0  0  0  0  0  0  0  0  0
    6.6370   10.6090   24.9120 H   0  0  0  0  0  0  0  0  0  0  0  0
    7.6870    9.2050   24.7230 H   0  0  0  0  0  0  0  0  0  0  0  0
    8.2240   13.0010   24.8830 H   0  0  0  0  0  0  0  0  0  0  0  0
  1  2  1  0
  2  3  2  0
  3  4  1  0
  4  5  1  0
  5  6  1  0
  5  7  1  0
  4  8  1  0
  8  9  2  0
  9 10  1  0
 10 11  1  0
 11 12  2  0
 11 13  1  0
 13 14  2  0
 14 15  1  0
 15 16  1  0
 15 17  1  0
 17 18  1  0
 17 19  2  0
  9  2  1  0
 19 13  1  0
  1 20  1  0
  1 21  1  0
  1 22  1  0
  5 23  1  0
  8 24  1  0
 10 25  1  0
 16 26  1  0
 16 27  1  0
 16 28  1  0
 18 29  1  0
 18 30  1  0
 18 31  1  0
 19 32  1  0
A    1
 C1 
A    2
 C2 
A    3
 N1 
A    4
 N2 
A    5
 C3 
A    6
 F1 
A    7
 F2 
A    8
 C4 
A    9
 C5 
A   10
 N3 
A   11
 C6 
A   12
 O1 
A   13
 C7 
A   14
 N4 
A   15
 N5 
A   16
 C8 
A   17
 C9 
A   18
 C10
A   19
 C11
A   20
 H1 
A   21
 H2 
A   22
 H3 
A   23
 H4 
A   24
 H5 
A   25
 H6 
A   26
 H7 
A   27
 H8 
A   28
 H9 
A   29
 H10
A   30
 H11
A   31
 H12
A   32
 H13
M  END
>  <ref_pdb>  (37) 
x0310_0A

>  <ref_mols>  (37) 
x0451_0A,x0416_0A

>  <original SMILES>  (37) 
Cc1nn(C(F)F)cc1NC(=O)c1cc(C)n(C)n1

>  <rationale>  (37) 
info halogenbond:P107; hbond:S125; hydroph_interaction:P107+Y89+Y90; pication:H21; 

>  <intxn_cluster>  (37) 
207

>  <intxn_cluster_rank>  (37) 
8

>  <N_interactions>  (37) 
6

>  <∆∆G>  (37) 
-7.560999

>  <$/mg>  (37) 
nan

>  <comRMSD>  (37) 
0.583088

>  <N_rotatable_bonds>  (37) 
6

>  <N_analogues_07>  (37) 
11

>  <deep_P1_sidechain>  (37) 
False

>  <farthest_distance_to_substrate>  (37) 
2.92278

>  <hbond:SER:7>  (37) 
hbond:SER:7    0
hbond:SER:7    0
Name: 36, dtype: object

>  <halogenbond:SER:7>  (37) 
halogenbond:SER:7    0
halogenbond:SER:7    0
Name: 36, dtype: object

>  <hbond:GLY:8>  (37) 
hbond:GLY:8    0
hbond:GLY:8    0
Name: 36, dtype: object

>  <hydroph_interaction:ASN:19>  (37) 
hydroph_interaction:ASN:19    0
hydroph_interaction:ASN:19    0
Name: 36, dtype: object

>  <hbond:ASN:19>  (37) 
hbond:ASN:19    0
hbond:ASN:19    0
Name: 36, dtype: object

>  <halogenbond:ASN:19>  (37) 
halogenbond:ASN:19    0
halogenbond:ASN:19    0
Name: 36, dtype: object

>  <hbond:ARG:20>  (37) 
hbond:ARG:20    0
hbond:ARG:20    0
Name: 36, dtype: object

>  <hydroph_interaction:ARG:20>  (37) 
hydroph_interaction:ARG:20    0
hydroph_interaction:ARG:20    0
Name: 36, dtype: object

>  <saltbridge:ARG:20>  (37) 
saltbridge:ARG:20    0
saltbridge:ARG:20    0
Name: 36, dtype: object

>  <halogenbond:ARG:20>  (37) 
halogenbond:ARG:20    0
halogenbond:ARG:20    0
Name: 36, dtype: object

>  <pication:ARG:20>  (37) 
pication:ARG:20    0
pication:ARG:20    0
Name: 36, dtype: object

>  <hbond:HIS:21>  (37) 
hbond:HIS:21    0
hbond:HIS:21    0
Name: 36, dtype: object

>  <hydroph_interaction:HIS:21>  (37) 
hydroph_interaction:HIS:21    0
hydroph_interaction:HIS:21    0
Name: 36, dtype: object

>  <saltbridge:HIS:21>  (37) 
saltbridge:HIS:21    0
saltbridge:HIS:21    0
Name: 36, dtype: object

>  <pistack:HIS:21>  (37) 
pistack:HIS:21    0
pistack:HIS:21    0
Name: 36, dtype: object

>  <pication:HIS:21>  (37) 
pication:HIS:21    1
pication:HIS:21    1
Name: 36, dtype: object

>  <halogenbond:HIS:21>  (37) 
halogenbond:HIS:21    0
halogenbond:HIS:21    0
Name: 36, dtype: object

>  <hydroph_interaction:LEU:22>  (37) 
hydroph_interaction:LEU:22    0
hydroph_interaction:LEU:22    0
Name: 36, dtype: object

>  <hbond:LEU:22>  (37) 
hbond:LEU:22    0
hbond:LEU:22    0
Name: 36, dtype: object

>  <hydroph_interaction:TRP:28>  (37) 
hydroph_interaction:TRP:28    0
hydroph_interaction:TRP:28    0
Name: 36, dtype: object

>  <hbond:SER:36>  (37) 
hbond:SER:36    0
hbond:SER:36    0
Name: 36, dtype: object

>  <halogenbond:SER:36>  (37) 
halogenbond:SER:36    0
halogenbond:SER:36    0
Name: 36, dtype: object

>  <hbond:ARG:38>  (37) 
hbond:ARG:38    0
hbond:ARG:38    0
Name: 36, dtype: object

>  <halogenbond:ARG:38>  (37) 
halogenbond:ARG:38    0
halogenbond:ARG:38    0
Name: 36, dtype: object

>  <hbond:ASP:39>  (37) 
hbond:ASP:39    0
hbond:ASP:39    0
Name: 36, dtype: object

>  <saltbridge:ASP:39>  (37) 
saltbridge:ASP:39    0
saltbridge:ASP:39    0
Name: 36, dtype: object

>  <hydroph_interaction:ASP:39>  (37) 
hydroph_interaction:ASP:39    0
hydroph_interaction:ASP:39    0
Name: 36, dtype: object

>  <halogenbond:ASP:39>  (37) 
halogenbond:ASP:39    0
halogenbond:ASP:39    0
Name: 36, dtype: object

>  <hydroph_interaction:LEU:40>  (37) 
hydroph_interaction:LEU:40    0
hydroph_interaction:LEU:40    0
Name: 36, dtype: object

>  <hydroph_interaction:TYR:63>  (37) 
hydroph_interaction:TYR:63    0
hydroph_interaction:TYR:63    0
Name: 36, dtype: object

>  <pistack:TYR:63>  (37) 
pistack:TYR:63    0
pistack:TYR:63    0
Name: 36, dtype: object

>  <hbond:TYR:63>  (37) 
hbond:TYR:63    0
hbond:TYR:63    0
Name: 36, dtype: object

>  <hbond:TYR:64>  (37) 
hbond:TYR:64    0
hbond:TYR:64    0
Name: 36, dtype: object

>  <halogenbond:TYR:64>  (37) 
halogenbond:TYR:64    0
halogenbond:TYR:64    0
Name: 36, dtype: object

>  <hydroph_interaction:TYR:64>  (37) 
hydroph_interaction:TYR:64    0
hydroph_interaction:TYR:64    0
Name: 36, dtype: object

>  <hbond:CYS:65>  (37) 
hbond:CYS:65    0
hbond:CYS:65    0
Name: 36, dtype: object

>  <halogenbond:CYS:65>  (37) 
halogenbond:CYS:65    0
halogenbond:CYS:65    0
Name: 36, dtype: object

>  <hbond:SER:66>  (37) 
hbond:SER:66    0
hbond:SER:66    0
Name: 36, dtype: object

>  <hbond:SER:67>  (37) 
hbond:SER:67    0
hbond:SER:67    0
Name: 36, dtype: object

>  <halogenbond:SER:67>  (37) 
halogenbond:SER:67    0
halogenbond:SER:67    0
Name: 36, dtype: object

>  <hydroph_interaction:ARG:68>  (37) 
hydroph_interaction:ARG:68    0
hydroph_interaction:ARG:68    0
Name: 36, dtype: object

>  <hbond:ARG:68>  (37) 
hbond:ARG:68    0
hbond:ARG:68    0
Name: 36, dtype: object

>  <saltbridge:ARG:68>  (37) 
saltbridge:ARG:68    0
saltbridge:ARG:68    0
Name: 36, dtype: object

>  <pication:ARG:68>  (37) 
pication:ARG:68    0
pication:ARG:68    0
Name: 36, dtype: object

>  <hydroph_interaction:TYR:72>  (37) 
hydroph_interaction:TYR:72    0
hydroph_interaction:TYR:72    0
Name: 36, dtype: object

>  <hydroph_interaction:VAL:74>  (37) 
hydroph_interaction:VAL:74    0
hydroph_interaction:VAL:74    0
Name: 36, dtype: object

>  <hydroph_interaction:PHE:76>  (37) 
hydroph_interaction:PHE:76    0
hydroph_interaction:PHE:76    0
Name: 36, dtype: object

>  <hbond:SER:77>  (37) 
hbond:SER:77    0
hbond:SER:77    0
Name: 36, dtype: object

>  <hbond:SER:80>  (37) 
hbond:SER:80    0
hbond:SER:80    0
Name: 36, dtype: object

>  <hbond:LEU:81>  (37) 
hbond:LEU:81    0
hbond:LEU:81    0
Name: 36, dtype: object

>  <halogenbond:LEU:81>  (37) 
halogenbond:LEU:81    0
halogenbond:LEU:81    0
Name: 36, dtype: object

>  <hydroph_interaction:LEU:81>  (37) 
hydroph_interaction:LEU:81    0
hydroph_interaction:LEU:81    0
Name: 36, dtype: object

>  <hydroph_interaction:ILE:82>  (37) 
hydroph_interaction:ILE:82    0
hydroph_interaction:ILE:82    0
Name: 36, dtype: object

>  <hbond:ILE:82>  (37) 
hbond:ILE:82    0
hbond:ILE:82    0
Name: 36, dtype: object

>  <hydroph_interaction:PHE:83>  (37) 
hydroph_interaction:PHE:83    0
hydroph_interaction:PHE:83    0
Name: 36, dtype: object

>  <hbond:PHE:83>  (37) 
hbond:PHE:83    0
hbond:PHE:83    0
Name: 36, dtype: object

>  <halogenbond:PHE:83>  (37) 
halogenbond:PHE:83    0
halogenbond:PHE:83    0
Name: 36, dtype: object

>  <pistack:PHE:83>  (37) 
pistack:PHE:83    0
pistack:PHE:83    0
Name: 36, dtype: object

>  <hydroph_interaction:VAL:84>  (37) 
hydroph_interaction:VAL:84    0
hydroph_interaction:VAL:84    0
Name: 36, dtype: object

>  <hbond:VAL:84>  (37) 
hbond:VAL:84    0
hbond:VAL:84    0
Name: 36, dtype: object

>  <halogenbond:VAL:84>  (37) 
halogenbond:VAL:84    0
halogenbond:VAL:84    0
Name: 36, dtype: object

>  <hydroph_interaction:GLU:85>  (37) 
hydroph_interaction:GLU:85    0
hydroph_interaction:GLU:85    0
Name: 36, dtype: object

>  <hbond:GLU:85>  (37) 
hbond:GLU:85    0
hbond:GLU:85    0
Name: 36, dtype: object

>  <saltbridge:GLU:85>  (37) 
saltbridge:GLU:85    0
saltbridge:GLU:85    0
Name: 36, dtype: object

>  <halogenbond:GLU:85>  (37) 
halogenbond:GLU:85    0
halogenbond:GLU:85    0
Name: 36, dtype: object

>  <hbond:ALA:86>  (37) 
hbond:ALA:86    0
hbond:ALA:86    0
Name: 36, dtype: object

>  <halogenbond:ALA:86>  (37) 
halogenbond:ALA:86    0
halogenbond:ALA:86    0
Name: 36, dtype: object

>  <hydroph_interaction:ALA:86>  (37) 
hydroph_interaction:ALA:86    0
hydroph_interaction:ALA:86    0
Name: 36, dtype: object

>  <hbond:SER:87>  (37) 
hbond:SER:87    0
hbond:SER:87    0
Name: 36, dtype: object

>  <halogenbond:SER:87>  (37) 
halogenbond:SER:87    0
halogenbond:SER:87    0
Name: 36, dtype: object

>  <hbond:GLU:88>  (37) 
hbond:GLU:88    0
hbond:GLU:88    0
Name: 36, dtype: object

>  <hydroph_interaction:GLU:88>  (37) 
hydroph_interaction:GLU:88    0
hydroph_interaction:GLU:88    0
Name: 36, dtype: object

>  <halogenbond:GLU:88>  (37) 
halogenbond:GLU:88    0
halogenbond:GLU:88    0
Name: 36, dtype: object

>  <saltbridge:GLU:88>  (37) 
saltbridge:GLU:88    0
saltbridge:GLU:88    0
Name: 36, dtype: object

>  <hydroph_interaction:TYR:89>  (37) 
hydroph_interaction:TYR:89    1
hydroph_interaction:TYR:89    1
Name: 36, dtype: object

>  <pistack:TYR:89>  (37) 
pistack:TYR:89    0
pistack:TYR:89    0
Name: 36, dtype: object

>  <hbond:TYR:89>  (37) 
hbond:TYR:89    0
hbond:TYR:89    0
Name: 36, dtype: object

>  <halogenbond:TYR:89>  (37) 
halogenbond:TYR:89    0
halogenbond:TYR:89    0
Name: 36, dtype: object

>  <hbond:TYR:90>  (37) 
hbond:TYR:90    0
hbond:TYR:90    0
Name: 36, dtype: object

>  <hydroph_interaction:TYR:90>  (37) 
hydroph_interaction:TYR:90    1
hydroph_interaction:TYR:90    1
Name: 36, dtype: object

>  <pistack:TYR:90>  (37) 
pistack:TYR:90    0
pistack:TYR:90    0
Name: 36, dtype: object

>  <halogenbond:TYR:90>  (37) 
halogenbond:TYR:90    0
halogenbond:TYR:90    0
Name: 36, dtype: object

>  <pication:TYR:90>  (37) 
pication:TYR:90    0
pication:TYR:90    0
Name: 36, dtype: object

>  <hydroph_interaction:PRO:91>  (37) 
hydroph_interaction:PRO:91    0
hydroph_interaction:PRO:91    0
Name: 36, dtype: object

>  <halogenbond:PRO:91>  (37) 
halogenbond:PRO:91    0
halogenbond:PRO:91    0
Name: 36, dtype: object

>  <hbond:PRO:91>  (37) 
hbond:PRO:91    0
hbond:PRO:91    0
Name: 36, dtype: object

>  <hydroph_interaction:ALA:92>  (37) 
hydroph_interaction:ALA:92    0
hydroph_interaction:ALA:92    0
Name: 36, dtype: object

>  <hbond:ARG:93>  (37) 
hbond:ARG:93    0
hbond:ARG:93    0
Name: 36, dtype: object

>  <pication:ARG:93>  (37) 
pication:ARG:93    0
pication:ARG:93    0
Name: 36, dtype: object

>  <saltbridge:ARG:93>  (37) 
saltbridge:ARG:93    0
saltbridge:ARG:93    0
Name: 36, dtype: object

>  <hydroph_interaction:ARG:93>  (37) 
hydroph_interaction:ARG:93    0
hydroph_interaction:ARG:93    0
Name: 36, dtype: object

>  <halogenbond:ARG:93>  (37) 
halogenbond:ARG:93    0
halogenbond:ARG:93    0
Name: 36, dtype: object

>  <hydroph_interaction:TYR:94>  (37) 
hydroph_interaction:TYR:94    0
hydroph_interaction:TYR:94    0
Name: 36, dtype: object

>  <hbond:TYR:94>  (37) 
hbond:TYR:94    0
hbond:TYR:94    0
Name: 36, dtype: object

>  <halogenbond:GLN:95>  (37) 
halogenbond:GLN:95    0
halogenbond:GLN:95    0
Name: 36, dtype: object

>  <hbond:GLN:95>  (37) 
hbond:GLN:95    0
hbond:GLN:95    0
Name: 36, dtype: object

>  <hydroph_interaction:GLN:95>  (37) 
hydroph_interaction:GLN:95    0
hydroph_interaction:GLN:95    0
Name: 36, dtype: object

>  <hbond:SER:96>  (37) 
hbond:SER:96    0
hbond:SER:96    0
Name: 36, dtype: object

>  <hydroph_interaction:LEU:98>  (37) 
hydroph_interaction:LEU:98    0
hydroph_interaction:LEU:98    0
Name: 36, dtype: object

>  <hbond:LEU:98>  (37) 
hbond:LEU:98    0
hbond:LEU:98    0
Name: 36, dtype: object

>  <hbond:MET:99>  (37) 
hbond:MET:99    0
hbond:MET:99    0
Name: 36, dtype: object

>  <hydroph_interaction:MET:99>  (37) 
hydroph_interaction:MET:99    0
hydroph_interaction:MET:99    0
Name: 36, dtype: object

>  <halogenbond:MET:99>  (37) 
halogenbond:MET:99    0
halogenbond:MET:99    0
Name: 36, dtype: object

>  <hydroph_interaction:LEU:100>  (37) 
hydroph_interaction:LEU:100    0
hydroph_interaction:LEU:100    0
Name: 36, dtype: object

>  <hbond:LEU:100>  (37) 
hbond:LEU:100    0
hbond:LEU:100    0
Name: 36, dtype: object

>  <hbond:ALA:101>  (37) 
hbond:ALA:101    0
hbond:ALA:101    0
Name: 36, dtype: object

>  <hydroph_interaction:ALA:101>  (37) 
hydroph_interaction:ALA:101    0
hydroph_interaction:ALA:101    0
Name: 36, dtype: object

>  <hydroph_interaction:VAL:102>  (37) 
hydroph_interaction:VAL:102    0
hydroph_interaction:VAL:102    0
Name: 36, dtype: object

>  <hbond:VAL:102>  (37) 
hbond:VAL:102    0
hbond:VAL:102    0
Name: 36, dtype: object

>  <hbond:GLY:103>  (37) 
hbond:GLY:103    0
hbond:GLY:103    0
Name: 36, dtype: object

>  <halogenbond:GLY:103>  (37) 
halogenbond:GLY:103    0
halogenbond:GLY:103    0
Name: 36, dtype: object

>  <hydroph_interaction:HIS:104>  (37) 
hydroph_interaction:HIS:104    0
hydroph_interaction:HIS:104    0
Name: 36, dtype: object

>  <hbond:HIS:104>  (37) 
hbond:HIS:104    0
hbond:HIS:104    0
Name: 36, dtype: object

>  <saltbridge:HIS:104>  (37) 
saltbridge:HIS:104    0
saltbridge:HIS:104    0
Name: 36, dtype: object

>  <pication:HIS:104>  (37) 
pication:HIS:104    0
pication:HIS:104    0
Name: 36, dtype: object

>  <pistack:HIS:104>  (37) 
pistack:HIS:104    0
pistack:HIS:104    0
Name: 36, dtype: object

>  <halogenbond:HIS:104>  (37) 
halogenbond:HIS:104    0
halogenbond:HIS:104    0
Name: 36, dtype: object

>  <hbond:SER:105>  (37) 
hbond:SER:105    0
hbond:SER:105    0
Name: 36, dtype: object

>  <halogenbond:SER:105>  (37) 
halogenbond:SER:105    0
halogenbond:SER:105    0
Name: 36, dtype: object

>  <hbond:GLU:106>  (37) 
hbond:GLU:106    0
hbond:GLU:106    0
Name: 36, dtype: object

>  <hydroph_interaction:GLU:106>  (37) 
hydroph_interaction:GLU:106    0
hydroph_interaction:GLU:106    0
Name: 36, dtype: object

>  <saltbridge:GLU:106>  (37) 
saltbridge:GLU:106    0
saltbridge:GLU:106    0
Name: 36, dtype: object

>  <halogenbond:GLU:106>  (37) 
halogenbond:GLU:106    0
halogenbond:GLU:106    0
Name: 36, dtype: object

>  <hydroph_interaction:PRO:107>  (37) 
hydroph_interaction:PRO:107    1
hydroph_interaction:PRO:107    1
Name: 36, dtype: object

>  <hbond:PRO:107>  (37) 
hbond:PRO:107    0
hbond:PRO:107    0
Name: 36, dtype: object

>  <halogenbond:PRO:107>  (37) 
halogenbond:PRO:107    1
halogenbond:PRO:107    1
Name: 36, dtype: object

>  <hbond:GLY:108>  (37) 
hbond:GLY:108    0
hbond:GLY:108    0
Name: 36, dtype: object

>  <halogenbond:GLY:108>  (37) 
halogenbond:GLY:108    0
halogenbond:GLY:108    0
Name: 36, dtype: object

>  <hbond:ASP:109>  (37) 
hbond:ASP:109    0
hbond:ASP:109    0
Name: 36, dtype: object

>  <hydroph_interaction:ASP:109>  (37) 
hydroph_interaction:ASP:109    0
hydroph_interaction:ASP:109    0
Name: 36, dtype: object

>  <saltbridge:ASP:109>  (37) 
saltbridge:ASP:109    0
saltbridge:ASP:109    0
Name: 36, dtype: object

>  <hbond:CYS:110>  (37) 
hbond:CYS:110    0
hbond:CYS:110    0
Name: 36, dtype: object

>  <halogenbond:CYS:110>  (37) 
halogenbond:CYS:110    0
halogenbond:CYS:110    0
Name: 36, dtype: object

>  <hbond:GLY:111>  (37) 
hbond:GLY:111    0
hbond:GLY:111    0
Name: 36, dtype: object

>  <hbond:GLY:112>  (37) 
hbond:GLY:112    0
hbond:GLY:112    0
Name: 36, dtype: object

>  <hbond:ILE:113>  (37) 
hbond:ILE:113    0
hbond:ILE:113    0
Name: 36, dtype: object

>  <hydroph_interaction:LEU:114>  (37) 
hydroph_interaction:LEU:114    0
hydroph_interaction:LEU:114    0
Name: 36, dtype: object

>  <hbond:LEU:114>  (37) 
hbond:LEU:114    0
hbond:LEU:114    0
Name: 36, dtype: object

>  <hydroph_interaction:ILE:123>  (37) 
hydroph_interaction:ILE:123    0
hydroph_interaction:ILE:123    0
Name: 36, dtype: object

>  <hbond:ILE:123>  (37) 
hbond:ILE:123    0
hbond:ILE:123    0
Name: 36, dtype: object

>  <hydroph_interaction:VAL:124>  (37) 
hydroph_interaction:VAL:124    0
hydroph_interaction:VAL:124    0
Name: 36, dtype: object

>  <hbond:VAL:124>  (37) 
hbond:VAL:124    0
hbond:VAL:124    0
Name: 36, dtype: object

>  <halogenbond:VAL:124>  (37) 
halogenbond:VAL:124    0
halogenbond:VAL:124    0
Name: 36, dtype: object

>  <hbond:SER:125>  (37) 
hbond:SER:125    1
hbond:SER:125    1
Name: 36, dtype: object

>  <halogenbond:SER:125>  (37) 
halogenbond:SER:125    0
halogenbond:SER:125    0
Name: 36, dtype: object

>  <hydroph_interaction:THR:126>  (37) 
hydroph_interaction:THR:126    0
hydroph_interaction:THR:126    0
Name: 36, dtype: object

>  <hbond:THR:126>  (37) 
hbond:THR:126    0
hbond:THR:126    0
Name: 36, dtype: object

>  <halogenbond:THR:126>  (37) 
halogenbond:THR:126    0
halogenbond:THR:126    0
Name: 36, dtype: object

>  <hbond:GLY:127>  (37) 
hbond:GLY:127    0
hbond:GLY:127    0
Name: 36, dtype: object

>  <halogenbond:GLY:127>  (37) 
halogenbond:GLY:127    0
halogenbond:GLY:127    0
Name: 36, dtype: object

>  <hydroph_interaction:GLY:127>  (37) 
hydroph_interaction:GLY:127    0
hydroph_interaction:GLY:127    0
Name: 36, dtype: object

>  <hbond:GLY:128>  (37) 
hbond:GLY:128    0
hbond:GLY:128    0
Name: 36, dtype: object

>  <halogenbond:GLY:128>  (37) 
halogenbond:GLY:128    0
halogenbond:GLY:128    0
Name: 36, dtype: object

>  <hydroph_interaction:GLY:128>  (37) 
hydroph_interaction:GLY:128    0
hydroph_interaction:GLY:128    0
Name: 36, dtype: object

>  <hbond:ASN:129>  (37) 
hbond:ASN:129    0
hbond:ASN:129    0
Name: 36, dtype: object

>  <hydroph_interaction:ASN:129>  (37) 
hydroph_interaction:ASN:129    0
hydroph_interaction:ASN:129    0
Name: 36, dtype: object

>  <halogenbond:ASN:129>  (37) 
halogenbond:ASN:129    0
halogenbond:ASN:129    0
Name: 36, dtype: object

>  <hbond:GLY:130>  (37) 
hbond:GLY:130    0
hbond:GLY:130    0
Name: 36, dtype: object

>  <hydroph_interaction:LEU:131>  (37) 
hydroph_interaction:LEU:131    0
hydroph_interaction:LEU:131    0
Name: 36, dtype: object

>  <hbond:LEU:131>  (37) 
hbond:LEU:131    0
hbond:LEU:131    0
Name: 36, dtype: object

>  <halogenbond:LEU:131>  (37) 
halogenbond:LEU:131    0
halogenbond:LEU:131    0
Name: 36, dtype: object

>  <hydroph_interaction:VAL:132>  (37) 
hydroph_interaction:VAL:132    0
hydroph_interaction:VAL:132    0
Name: 36, dtype: object

>  <hbond:VAL:132>  (37) 
hbond:VAL:132    0
hbond:VAL:132    0
Name: 36, dtype: object

>  <hbond:GLY:133>  (37) 
hbond:GLY:133    0
hbond:GLY:133    0
Name: 36, dtype: object

>  <halogenbond:GLY:133>  (37) 
halogenbond:GLY:133    0
halogenbond:GLY:133    0
Name: 36, dtype: object

>  <hydroph_interaction:PHE:134>  (37) 
hydroph_interaction:PHE:134    0
hydroph_interaction:PHE:134    0
Name: 36, dtype: object

>  <hbond:PHE:134>  (37) 
hbond:PHE:134    0
hbond:PHE:134    0
Name: 36, dtype: object

>  <pistack:PHE:134>  (37) 
pistack:PHE:134    0
pistack:PHE:134    0
Name: 36, dtype: object

>  <pication:PHE:134>  (37) 
pication:PHE:134    0
pication:PHE:134    0
Name: 36, dtype: object

>  <hydroph_interaction:ALA:135>  (37) 
hydroph_interaction:ALA:135    0
hydroph_interaction:ALA:135    0
Name: 36, dtype: object

>  <hbond:ALA:135>  (37) 
hbond:ALA:135    0
hbond:ALA:135    0
Name: 36, dtype: object

$$$$
Z3060016155
     RDKit          3D

 36 36  0  0  0  0  0  0  0  0999 V2000
    0.5790   14.3300   18.6640 C   0  0  0  0  0  0  0  0  0  0  0  0
    1.2440   13.3010   19.5660 C   0  0  0  0  0  0  0  0  0  0  0  0
    0.2830   12.6800   20.5220 N   0  0  0  0  0  0  0  0  0  0  0  0
   -0.1520   13.4310   21.6460 C   0  0  0  0  0  0  0  0  0  0  0  0
    0.5710   13.6550   22.6140 O   0  0  0  0  0  0  0  0  0  0  0  0
   -1.5200   13.9020   21.5420 C   0  0  0  0  0  0  0  0  0  0  0  0
   -2.1650   14.9530   22.1490 C   0  0  0  0  0  0  0  0  0  0  0  0
   -3.5090   15.0440   21.7520 C   0  0  0  0  0  0  0  0  0  0  0  0
   -3.6930   14.0050   20.8650 C   0  0  0  0  0  0  0  0  0  0  0  0
   -2.4970   13.3240   20.7440 N   0  0  0  0  0  0  0  0  0  0  0  0
   -2.3060   12.1650   19.8900 C   0  0  0  0  0  0  0  0  0  0  0  0
    2.1160   12.2680   18.8560 C   0  0  0  0  0  0  0  0  0  0  0  0
    3.1690   12.8850   17.9410 C   0  0  0  0  0  0  0  0  0  0  0  0
    1.3410   11.4000   17.8740 C   0  0  0  0  0  0  0  0  0  0  0  0
    2.8780   11.4160   19.9030 C   0  0  0  0  0  0  0  0  0  0  0  0
    3.7490   10.4840   19.2620 O   0  0  0  0  0  0  0  0  0  0  0  0
    0.6610   14.0500   17.6090 H   0  0  0  0  0  0  0  0  0  0  0  0
    1.0150   15.3250   18.7960 H   0  0  0  0  0  0  0  0  0  0  0  0
   -0.4910   14.3950   18.8850 H   0  0  0  0  0  0  0  0  0  0  0  0
    1.9340   13.8820   20.1950 H   0  0  0  0  0  0  0  0  0  0  0  0
    0.3460   11.6830   20.6560 H   0  0  0  0  0  0  0  0  0  0  0  0
   -1.7070   15.6380   22.8490 H   0  0  0  0  0  0  0  0  0  0  0  0
   -4.2550   15.7640   22.0620 H   0  0  0  0  0  0  0  0  0  0  0  0
   -4.5760   13.6930   20.3100 H   0  0  0  0  0  0  0  0  0  0  0  0
   -1.7290   12.4700   19.0130 H   0  0  0  0  0  0  0  0  0  0  0  0
   -1.7500   11.4020   20.4410 H   0  0  0  0  0  0  0  0  0  0  0  0
   -3.2840   11.7730   19.6120 H   0  0  0  0  0  0  0  0  0  0  0  0
    2.8640   13.8650   17.5870 H   0  0  0  0  0  0  0  0  0  0  0  0
    3.3310   12.2760   17.0460 H   0  0  0  0  0  0  0  0  0  0  0  0
    4.1270   12.9660   18.4510 H   0  0  0  0  0  0  0  0  0  0  0  0
    0.2640   11.5770   17.9320 H   0  0  0  0  0  0  0  0  0  0  0  0
    1.6500   11.6110   16.8490 H   0  0  0  0  0  0  0  0  0  0  0  0
    1.5280   10.3380   18.0520 H   0  0  0  0  0  0  0  0  0  0  0  0
    2.2030   10.8520   20.5460 H   0  0  0  0  0  0  0  0  0  0  0  0
    3.4930   12.0560   20.5420 H   0  0  0  0  0  0  0  0  0  0  0  0
    3.9600    9.7840   19.9140 H   0  0  0  0  0  0  0  0  0  0  0  0
  1  2  1  0
  2  3  1  0
  3  4  1  0
  4  5  2  0
  4  6  1  0
  6  7  2  0
  7  8  1  0
  8  9  2  0
  9 10  1  0
 10 11  1  0
  2 12  1  0
 12 13  1  0
 12 14  1  0
 12 15  1  0
 15 16  1  0
 10  6  1  0
  1 17  1  0
  1 18  1  0
  1 19  1  0
  2 20  1  0
  3 21  1  0
  7 22  1  0
  8 23  1  0
  9 24  1  0
 11 25  1  0
 11 26  1  0
 11 27  1  0
 13 28  1  0
 13 29  1  0
 13 30  1  0
 14 31  1  0
 14 32  1  0
 14 33  1  0
 15 34  1  0
 15 35  1  0
 16 36  1  0
A    1
 C1 
A    2
 C2 
A    3
 N1 
A    4
 C3 
A    5
 O1 
A    6
 C4 
A    7
 C5 
A    8
 C6 
A    9
 C7 
A   10
 N2 
A   11
 C8 
A   12
 C9 
A   13
 C10
A   14
 C11
A   15
 C12
A   16
 O2 
A   17
 H1 
A   18
 H2 
A   19
 H3 
A   20
 H4 
A   21
 H5 
A   22
 H6 
A   23
 H7 
A   24
 H8 
A   25
 H9 
A   26
 H10
A   27
 H11
A   28
 H12
A   29
 H13
A   30
 H14
A   31
 H15
A   32
 H16
A   33
 H17
A   34
 H18
A   35
 H19
A   36
 H20
M  END
>  <ref_pdb>  (38) 
x0310_0A

>  <ref_mols>  (38) 
x0473_0A,x0416_0A

>  <original SMILES>  (38) 
CC(NC(=O)c1cccn1C)C(C)(C)CO

>  <rationale>  (38) 
info hbond:G128+L131; hydroph_interaction:V84+L100+L131; 

>  <intxn_cluster>  (38) 
201

>  <intxn_cluster_rank>  (38) 
8

>  <N_interactions>  (38) 
5

>  <∆∆G>  (38) 
-8.034316

>  <$/mg>  (38) 
nan

>  <comRMSD>  (38) 
0.886324

>  <N_rotatable_bonds>  (38) 
9

>  <N_analogues_07>  (38) 
0

>  <deep_P1_sidechain>  (38) 
False

>  <farthest_distance_to_substrate>  (38) 
4.676594

>  <hbond:SER:7>  (38) 
hbond:SER:7    0
hbond:SER:7    0
Name: 37, dtype: object

>  <halogenbond:SER:7>  (38) 
halogenbond:SER:7    0
halogenbond:SER:7    0
Name: 37, dtype: object

>  <hbond:GLY:8>  (38) 
hbond:GLY:8    0
hbond:GLY:8    0
Name: 37, dtype: object

>  <hydroph_interaction:ASN:19>  (38) 
hydroph_interaction:ASN:19    0
hydroph_interaction:ASN:19    0
Name: 37, dtype: object

>  <hbond:ASN:19>  (38) 
hbond:ASN:19    0
hbond:ASN:19    0
Name: 37, dtype: object

>  <halogenbond:ASN:19>  (38) 
halogenbond:ASN:19    0
halogenbond:ASN:19    0
Name: 37, dtype: object

>  <hbond:ARG:20>  (38) 
hbond:ARG:20    0
hbond:ARG:20    0
Name: 37, dtype: object

>  <hydroph_interaction:ARG:20>  (38) 
hydroph_interaction:ARG:20    0
hydroph_interaction:ARG:20    0
Name: 37, dtype: object

>  <saltbridge:ARG:20>  (38) 
saltbridge:ARG:20    0
saltbridge:ARG:20    0
Name: 37, dtype: object

>  <halogenbond:ARG:20>  (38) 
halogenbond:ARG:20    0
halogenbond:ARG:20    0
Name: 37, dtype: object

>  <pication:ARG:20>  (38) 
pication:ARG:20    0
pication:ARG:20    0
Name: 37, dtype: object

>  <hbond:HIS:21>  (38) 
hbond:HIS:21    0
hbond:HIS:21    0
Name: 37, dtype: object

>  <hydroph_interaction:HIS:21>  (38) 
hydroph_interaction:HIS:21    0
hydroph_interaction:HIS:21    0
Name: 37, dtype: object

>  <saltbridge:HIS:21>  (38) 
saltbridge:HIS:21    0
saltbridge:HIS:21    0
Name: 37, dtype: object

>  <pistack:HIS:21>  (38) 
pistack:HIS:21    0
pistack:HIS:21    0
Name: 37, dtype: object

>  <pication:HIS:21>  (38) 
pication:HIS:21    0
pication:HIS:21    0
Name: 37, dtype: object

>  <halogenbond:HIS:21>  (38) 
halogenbond:HIS:21    0
halogenbond:HIS:21    0
Name: 37, dtype: object

>  <hydroph_interaction:LEU:22>  (38) 
hydroph_interaction:LEU:22    0
hydroph_interaction:LEU:22    0
Name: 37, dtype: object

>  <hbond:LEU:22>  (38) 
hbond:LEU:22    0
hbond:LEU:22    0
Name: 37, dtype: object

>  <hydroph_interaction:TRP:28>  (38) 
hydroph_interaction:TRP:28    0
hydroph_interaction:TRP:28    0
Name: 37, dtype: object

>  <hbond:SER:36>  (38) 
hbond:SER:36    0
hbond:SER:36    0
Name: 37, dtype: object

>  <halogenbond:SER:36>  (38) 
halogenbond:SER:36    0
halogenbond:SER:36    0
Name: 37, dtype: object

>  <hbond:ARG:38>  (38) 
hbond:ARG:38    0
hbond:ARG:38    0
Name: 37, dtype: object

>  <halogenbond:ARG:38>  (38) 
halogenbond:ARG:38    0
halogenbond:ARG:38    0
Name: 37, dtype: object

>  <hbond:ASP:39>  (38) 
hbond:ASP:39    0
hbond:ASP:39    0
Name: 37, dtype: object

>  <saltbridge:ASP:39>  (38) 
saltbridge:ASP:39    0
saltbridge:ASP:39    0
Name: 37, dtype: object

>  <hydroph_interaction:ASP:39>  (38) 
hydroph_interaction:ASP:39    0
hydroph_interaction:ASP:39    0
Name: 37, dtype: object

>  <halogenbond:ASP:39>  (38) 
halogenbond:ASP:39    0
halogenbond:ASP:39    0
Name: 37, dtype: object

>  <hydroph_interaction:LEU:40>  (38) 
hydroph_interaction:LEU:40    0
hydroph_interaction:LEU:40    0
Name: 37, dtype: object

>  <hydroph_interaction:TYR:63>  (38) 
hydroph_interaction:TYR:63    0
hydroph_interaction:TYR:63    0
Name: 37, dtype: object

>  <pistack:TYR:63>  (38) 
pistack:TYR:63    0
pistack:TYR:63    0
Name: 37, dtype: object

>  <hbond:TYR:63>  (38) 
hbond:TYR:63    0
hbond:TYR:63    0
Name: 37, dtype: object

>  <hbond:TYR:64>  (38) 
hbond:TYR:64    0
hbond:TYR:64    0
Name: 37, dtype: object

>  <halogenbond:TYR:64>  (38) 
halogenbond:TYR:64    0
halogenbond:TYR:64    0
Name: 37, dtype: object

>  <hydroph_interaction:TYR:64>  (38) 
hydroph_interaction:TYR:64    0
hydroph_interaction:TYR:64    0
Name: 37, dtype: object

>  <hbond:CYS:65>  (38) 
hbond:CYS:65    0
hbond:CYS:65    0
Name: 37, dtype: object

>  <halogenbond:CYS:65>  (38) 
halogenbond:CYS:65    0
halogenbond:CYS:65    0
Name: 37, dtype: object

>  <hbond:SER:66>  (38) 
hbond:SER:66    0
hbond:SER:66    0
Name: 37, dtype: object

>  <hbond:SER:67>  (38) 
hbond:SER:67    0
hbond:SER:67    0
Name: 37, dtype: object

>  <halogenbond:SER:67>  (38) 
halogenbond:SER:67    0
halogenbond:SER:67    0
Name: 37, dtype: object

>  <hydroph_interaction:ARG:68>  (38) 
hydroph_interaction:ARG:68    0
hydroph_interaction:ARG:68    0
Name: 37, dtype: object

>  <hbond:ARG:68>  (38) 
hbond:ARG:68    0
hbond:ARG:68    0
Name: 37, dtype: object

>  <saltbridge:ARG:68>  (38) 
saltbridge:ARG:68    0
saltbridge:ARG:68    0
Name: 37, dtype: object

>  <pication:ARG:68>  (38) 
pication:ARG:68    0
pication:ARG:68    0
Name: 37, dtype: object

>  <hydroph_interaction:TYR:72>  (38) 
hydroph_interaction:TYR:72    0
hydroph_interaction:TYR:72    0
Name: 37, dtype: object

>  <hydroph_interaction:VAL:74>  (38) 
hydroph_interaction:VAL:74    0
hydroph_interaction:VAL:74    0
Name: 37, dtype: object

>  <hydroph_interaction:PHE:76>  (38) 
hydroph_interaction:PHE:76    0
hydroph_interaction:PHE:76    0
Name: 37, dtype: object

>  <hbond:SER:77>  (38) 
hbond:SER:77    0
hbond:SER:77    0
Name: 37, dtype: object

>  <hbond:SER:80>  (38) 
hbond:SER:80    0
hbond:SER:80    0
Name: 37, dtype: object

>  <hbond:LEU:81>  (38) 
hbond:LEU:81    0
hbond:LEU:81    0
Name: 37, dtype: object

>  <halogenbond:LEU:81>  (38) 
halogenbond:LEU:81    0
halogenbond:LEU:81    0
Name: 37, dtype: object

>  <hydroph_interaction:LEU:81>  (38) 
hydroph_interaction:LEU:81    0
hydroph_interaction:LEU:81    0
Name: 37, dtype: object

>  <hydroph_interaction:ILE:82>  (38) 
hydroph_interaction:ILE:82    0
hydroph_interaction:ILE:82    0
Name: 37, dtype: object

>  <hbond:ILE:82>  (38) 
hbond:ILE:82    0
hbond:ILE:82    0
Name: 37, dtype: object

>  <hydroph_interaction:PHE:83>  (38) 
hydroph_interaction:PHE:83    0
hydroph_interaction:PHE:83    0
Name: 37, dtype: object

>  <hbond:PHE:83>  (38) 
hbond:PHE:83    0
hbond:PHE:83    0
Name: 37, dtype: object

>  <halogenbond:PHE:83>  (38) 
halogenbond:PHE:83    0
halogenbond:PHE:83    0
Name: 37, dtype: object

>  <pistack:PHE:83>  (38) 
pistack:PHE:83    0
pistack:PHE:83    0
Name: 37, dtype: object

>  <hydroph_interaction:VAL:84>  (38) 
hydroph_interaction:VAL:84    1
hydroph_interaction:VAL:84    1
Name: 37, dtype: object

>  <hbond:VAL:84>  (38) 
hbond:VAL:84    0
hbond:VAL:84    0
Name: 37, dtype: object

>  <halogenbond:VAL:84>  (38) 
halogenbond:VAL:84    0
halogenbond:VAL:84    0
Name: 37, dtype: object

>  <hydroph_interaction:GLU:85>  (38) 
hydroph_interaction:GLU:85    0
hydroph_interaction:GLU:85    0
Name: 37, dtype: object

>  <hbond:GLU:85>  (38) 
hbond:GLU:85    0
hbond:GLU:85    0
Name: 37, dtype: object

>  <saltbridge:GLU:85>  (38) 
saltbridge:GLU:85    0
saltbridge:GLU:85    0
Name: 37, dtype: object

>  <halogenbond:GLU:85>  (38) 
halogenbond:GLU:85    0
halogenbond:GLU:85    0
Name: 37, dtype: object

>  <hbond:ALA:86>  (38) 
hbond:ALA:86    0
hbond:ALA:86    0
Name: 37, dtype: object

>  <halogenbond:ALA:86>  (38) 
halogenbond:ALA:86    0
halogenbond:ALA:86    0
Name: 37, dtype: object

>  <hydroph_interaction:ALA:86>  (38) 
hydroph_interaction:ALA:86    0
hydroph_interaction:ALA:86    0
Name: 37, dtype: object

>  <hbond:SER:87>  (38) 
hbond:SER:87    0
hbond:SER:87    0
Name: 37, dtype: object

>  <halogenbond:SER:87>  (38) 
halogenbond:SER:87    0
halogenbond:SER:87    0
Name: 37, dtype: object

>  <hbond:GLU:88>  (38) 
hbond:GLU:88    0
hbond:GLU:88    0
Name: 37, dtype: object

>  <hydroph_interaction:GLU:88>  (38) 
hydroph_interaction:GLU:88    0
hydroph_interaction:GLU:88    0
Name: 37, dtype: object

>  <halogenbond:GLU:88>  (38) 
halogenbond:GLU:88    0
halogenbond:GLU:88    0
Name: 37, dtype: object

>  <saltbridge:GLU:88>  (38) 
saltbridge:GLU:88    0
saltbridge:GLU:88    0
Name: 37, dtype: object

>  <hydroph_interaction:TYR:89>  (38) 
hydroph_interaction:TYR:89    0
hydroph_interaction:TYR:89    0
Name: 37, dtype: object

>  <pistack:TYR:89>  (38) 
pistack:TYR:89    0
pistack:TYR:89    0
Name: 37, dtype: object

>  <hbond:TYR:89>  (38) 
hbond:TYR:89    0
hbond:TYR:89    0
Name: 37, dtype: object

>  <halogenbond:TYR:89>  (38) 
halogenbond:TYR:89    0
halogenbond:TYR:89    0
Name: 37, dtype: object

>  <hbond:TYR:90>  (38) 
hbond:TYR:90    0
hbond:TYR:90    0
Name: 37, dtype: object

>  <hydroph_interaction:TYR:90>  (38) 
hydroph_interaction:TYR:90    0
hydroph_interaction:TYR:90    0
Name: 37, dtype: object

>  <pistack:TYR:90>  (38) 
pistack:TYR:90    0
pistack:TYR:90    0
Name: 37, dtype: object

>  <halogenbond:TYR:90>  (38) 
halogenbond:TYR:90    0
halogenbond:TYR:90    0
Name: 37, dtype: object

>  <pication:TYR:90>  (38) 
pication:TYR:90    0
pication:TYR:90    0
Name: 37, dtype: object

>  <hydroph_interaction:PRO:91>  (38) 
hydroph_interaction:PRO:91    0
hydroph_interaction:PRO:91    0
Name: 37, dtype: object

>  <halogenbond:PRO:91>  (38) 
halogenbond:PRO:91    0
halogenbond:PRO:91    0
Name: 37, dtype: object

>  <hbond:PRO:91>  (38) 
hbond:PRO:91    0
hbond:PRO:91    0
Name: 37, dtype: object

>  <hydroph_interaction:ALA:92>  (38) 
hydroph_interaction:ALA:92    0
hydroph_interaction:ALA:92    0
Name: 37, dtype: object

>  <hbond:ARG:93>  (38) 
hbond:ARG:93    0
hbond:ARG:93    0
Name: 37, dtype: object

>  <pication:ARG:93>  (38) 
pication:ARG:93    0
pication:ARG:93    0
Name: 37, dtype: object

>  <saltbridge:ARG:93>  (38) 
saltbridge:ARG:93    0
saltbridge:ARG:93    0
Name: 37, dtype: object

>  <hydroph_interaction:ARG:93>  (38) 
hydroph_interaction:ARG:93    0
hydroph_interaction:ARG:93    0
Name: 37, dtype: object

>  <halogenbond:ARG:93>  (38) 
halogenbond:ARG:93    0
halogenbond:ARG:93    0
Name: 37, dtype: object

>  <hydroph_interaction:TYR:94>  (38) 
hydroph_interaction:TYR:94    0
hydroph_interaction:TYR:94    0
Name: 37, dtype: object

>  <hbond:TYR:94>  (38) 
hbond:TYR:94    0
hbond:TYR:94    0
Name: 37, dtype: object

>  <halogenbond:GLN:95>  (38) 
halogenbond:GLN:95    0
halogenbond:GLN:95    0
Name: 37, dtype: object

>  <hbond:GLN:95>  (38) 
hbond:GLN:95    0
hbond:GLN:95    0
Name: 37, dtype: object

>  <hydroph_interaction:GLN:95>  (38) 
hydroph_interaction:GLN:95    0
hydroph_interaction:GLN:95    0
Name: 37, dtype: object

>  <hbond:SER:96>  (38) 
hbond:SER:96    0
hbond:SER:96    0
Name: 37, dtype: object

>  <hydroph_interaction:LEU:98>  (38) 
hydroph_interaction:LEU:98    0
hydroph_interaction:LEU:98    0
Name: 37, dtype: object

>  <hbond:LEU:98>  (38) 
hbond:LEU:98    0
hbond:LEU:98    0
Name: 37, dtype: object

>  <hbond:MET:99>  (38) 
hbond:MET:99    0
hbond:MET:99    0
Name: 37, dtype: object

>  <hydroph_interaction:MET:99>  (38) 
hydroph_interaction:MET:99    0
hydroph_interaction:MET:99    0
Name: 37, dtype: object

>  <halogenbond:MET:99>  (38) 
halogenbond:MET:99    0
halogenbond:MET:99    0
Name: 37, dtype: object

>  <hydroph_interaction:LEU:100>  (38) 
hydroph_interaction:LEU:100    1
hydroph_interaction:LEU:100    1
Name: 37, dtype: object

>  <hbond:LEU:100>  (38) 
hbond:LEU:100    0
hbond:LEU:100    0
Name: 37, dtype: object

>  <hbond:ALA:101>  (38) 
hbond:ALA:101    0
hbond:ALA:101    0
Name: 37, dtype: object

>  <hydroph_interaction:ALA:101>  (38) 
hydroph_interaction:ALA:101    0
hydroph_interaction:ALA:101    0
Name: 37, dtype: object

>  <hydroph_interaction:VAL:102>  (38) 
hydroph_interaction:VAL:102    0
hydroph_interaction:VAL:102    0
Name: 37, dtype: object

>  <hbond:VAL:102>  (38) 
hbond:VAL:102    0
hbond:VAL:102    0
Name: 37, dtype: object

>  <hbond:GLY:103>  (38) 
hbond:GLY:103    0
hbond:GLY:103    0
Name: 37, dtype: object

>  <halogenbond:GLY:103>  (38) 
halogenbond:GLY:103    0
halogenbond:GLY:103    0
Name: 37, dtype: object

>  <hydroph_interaction:HIS:104>  (38) 
hydroph_interaction:HIS:104    0
hydroph_interaction:HIS:104    0
Name: 37, dtype: object

>  <hbond:HIS:104>  (38) 
hbond:HIS:104    0
hbond:HIS:104    0
Name: 37, dtype: object

>  <saltbridge:HIS:104>  (38) 
saltbridge:HIS:104    0
saltbridge:HIS:104    0
Name: 37, dtype: object

>  <pication:HIS:104>  (38) 
pication:HIS:104    0
pication:HIS:104    0
Name: 37, dtype: object

>  <pistack:HIS:104>  (38) 
pistack:HIS:104    0
pistack:HIS:104    0
Name: 37, dtype: object

>  <halogenbond:HIS:104>  (38) 
halogenbond:HIS:104    0
halogenbond:HIS:104    0
Name: 37, dtype: object

>  <hbond:SER:105>  (38) 
hbond:SER:105    0
hbond:SER:105    0
Name: 37, dtype: object

>  <halogenbond:SER:105>  (38) 
halogenbond:SER:105    0
halogenbond:SER:105    0
Name: 37, dtype: object

>  <hbond:GLU:106>  (38) 
hbond:GLU:106    0
hbond:GLU:106    0
Name: 37, dtype: object

>  <hydroph_interaction:GLU:106>  (38) 
hydroph_interaction:GLU:106    0
hydroph_interaction:GLU:106    0
Name: 37, dtype: object

>  <saltbridge:GLU:106>  (38) 
saltbridge:GLU:106    0
saltbridge:GLU:106    0
Name: 37, dtype: object

>  <halogenbond:GLU:106>  (38) 
halogenbond:GLU:106    0
halogenbond:GLU:106    0
Name: 37, dtype: object

>  <hydroph_interaction:PRO:107>  (38) 
hydroph_interaction:PRO:107    0
hydroph_interaction:PRO:107    0
Name: 37, dtype: object

>  <hbond:PRO:107>  (38) 
hbond:PRO:107    0
hbond:PRO:107    0
Name: 37, dtype: object

>  <halogenbond:PRO:107>  (38) 
halogenbond:PRO:107    0
halogenbond:PRO:107    0
Name: 37, dtype: object

>  <hbond:GLY:108>  (38) 
hbond:GLY:108    0
hbond:GLY:108    0
Name: 37, dtype: object

>  <halogenbond:GLY:108>  (38) 
halogenbond:GLY:108    0
halogenbond:GLY:108    0
Name: 37, dtype: object

>  <hbond:ASP:109>  (38) 
hbond:ASP:109    0
hbond:ASP:109    0
Name: 37, dtype: object

>  <hydroph_interaction:ASP:109>  (38) 
hydroph_interaction:ASP:109    0
hydroph_interaction:ASP:109    0
Name: 37, dtype: object

>  <saltbridge:ASP:109>  (38) 
saltbridge:ASP:109    0
saltbridge:ASP:109    0
Name: 37, dtype: object

>  <hbond:CYS:110>  (38) 
hbond:CYS:110    0
hbond:CYS:110    0
Name: 37, dtype: object

>  <halogenbond:CYS:110>  (38) 
halogenbond:CYS:110    0
halogenbond:CYS:110    0
Name: 37, dtype: object

>  <hbond:GLY:111>  (38) 
hbond:GLY:111    0
hbond:GLY:111    0
Name: 37, dtype: object

>  <hbond:GLY:112>  (38) 
hbond:GLY:112    0
hbond:GLY:112    0
Name: 37, dtype: object

>  <hbond:ILE:113>  (38) 
hbond:ILE:113    0
hbond:ILE:113    0
Name: 37, dtype: object

>  <hydroph_interaction:LEU:114>  (38) 
hydroph_interaction:LEU:114    0
hydroph_interaction:LEU:114    0
Name: 37, dtype: object

>  <hbond:LEU:114>  (38) 
hbond:LEU:114    0
hbond:LEU:114    0
Name: 37, dtype: object

>  <hydroph_interaction:ILE:123>  (38) 
hydroph_interaction:ILE:123    0
hydroph_interaction:ILE:123    0
Name: 37, dtype: object

>  <hbond:ILE:123>  (38) 
hbond:ILE:123    0
hbond:ILE:123    0
Name: 37, dtype: object

>  <hydroph_interaction:VAL:124>  (38) 
hydroph_interaction:VAL:124    0
hydroph_interaction:VAL:124    0
Name: 37, dtype: object

>  <hbond:VAL:124>  (38) 
hbond:VAL:124    0
hbond:VAL:124    0
Name: 37, dtype: object

>  <halogenbond:VAL:124>  (38) 
halogenbond:VAL:124    0
halogenbond:VAL:124    0
Name: 37, dtype: object

>  <hbond:SER:125>  (38) 
hbond:SER:125    0
hbond:SER:125    0
Name: 37, dtype: object

>  <halogenbond:SER:125>  (38) 
halogenbond:SER:125    0
halogenbond:SER:125    0
Name: 37, dtype: object

>  <hydroph_interaction:THR:126>  (38) 
hydroph_interaction:THR:126    0
hydroph_interaction:THR:126    0
Name: 37, dtype: object

>  <hbond:THR:126>  (38) 
hbond:THR:126    0
hbond:THR:126    0
Name: 37, dtype: object

>  <halogenbond:THR:126>  (38) 
halogenbond:THR:126    0
halogenbond:THR:126    0
Name: 37, dtype: object

>  <hbond:GLY:127>  (38) 
hbond:GLY:127    0
hbond:GLY:127    0
Name: 37, dtype: object

>  <halogenbond:GLY:127>  (38) 
halogenbond:GLY:127    0
halogenbond:GLY:127    0
Name: 37, dtype: object

>  <hydroph_interaction:GLY:127>  (38) 
hydroph_interaction:GLY:127    0
hydroph_interaction:GLY:127    0
Name: 37, dtype: object

>  <hbond:GLY:128>  (38) 
hbond:GLY:128    1
hbond:GLY:128    1
Name: 37, dtype: object

>  <halogenbond:GLY:128>  (38) 
halogenbond:GLY:128    0
halogenbond:GLY:128    0
Name: 37, dtype: object

>  <hydroph_interaction:GLY:128>  (38) 
hydroph_interaction:GLY:128    0
hydroph_interaction:GLY:128    0
Name: 37, dtype: object

>  <hbond:ASN:129>  (38) 
hbond:ASN:129    0
hbond:ASN:129    0
Name: 37, dtype: object

>  <hydroph_interaction:ASN:129>  (38) 
hydroph_interaction:ASN:129    0
hydroph_interaction:ASN:129    0
Name: 37, dtype: object

>  <halogenbond:ASN:129>  (38) 
halogenbond:ASN:129    0
halogenbond:ASN:129    0
Name: 37, dtype: object

>  <hbond:GLY:130>  (38) 
hbond:GLY:130    0
hbond:GLY:130    0
Name: 37, dtype: object

>  <hydroph_interaction:LEU:131>  (38) 
hydroph_interaction:LEU:131    1
hydroph_interaction:LEU:131    1
Name: 37, dtype: object

>  <hbond:LEU:131>  (38) 
hbond:LEU:131    1
hbond:LEU:131    1
Name: 37, dtype: object

>  <halogenbond:LEU:131>  (38) 
halogenbond:LEU:131    0
halogenbond:LEU:131    0
Name: 37, dtype: object

>  <hydroph_interaction:VAL:132>  (38) 
hydroph_interaction:VAL:132    0
hydroph_interaction:VAL:132    0
Name: 37, dtype: object

>  <hbond:VAL:132>  (38) 
hbond:VAL:132    0
hbond:VAL:132    0
Name: 37, dtype: object

>  <hbond:GLY:133>  (38) 
hbond:GLY:133    0
hbond:GLY:133    0
Name: 37, dtype: object

>  <halogenbond:GLY:133>  (38) 
halogenbond:GLY:133    0
halogenbond:GLY:133    0
Name: 37, dtype: object

>  <hydroph_interaction:PHE:134>  (38) 
hydroph_interaction:PHE:134    0
hydroph_interaction:PHE:134    0
Name: 37, dtype: object

>  <hbond:PHE:134>  (38) 
hbond:PHE:134    0
hbond:PHE:134    0
Name: 37, dtype: object

>  <pistack:PHE:134>  (38) 
pistack:PHE:134    0
pistack:PHE:134    0
Name: 37, dtype: object

>  <pication:PHE:134>  (38) 
pication:PHE:134    0
pication:PHE:134    0
Name: 37, dtype: object

>  <hydroph_interaction:ALA:135>  (38) 
hydroph_interaction:ALA:135    0
hydroph_interaction:ALA:135    0
Name: 37, dtype: object

>  <hbond:ALA:135>  (38) 
hbond:ALA:135    0
hbond:ALA:135    0
Name: 37, dtype: object

$$$$
Z5533271424
     RDKit          3D

 39 41  0  0  0  0  0  0  0  0999 V2000
   10.4280    8.1550   21.4230 C   0  0  0  0  0  0  0  0  0  0  0  0
    9.4690    8.6710   22.2870 O   0  0  0  0  0  0  0  0  0  0  0  0
   10.1680    9.4650   23.0900 C   0  0  0  0  0  0  0  0  0  0  0  0
   11.3140    9.1840   23.3530 O   0  0  0  0  0  0  0  0  0  0  0  0
    9.4710   10.6240   23.6050 C   0  0  0  0  0  0  0  0  0  0  0  0
    8.4550   10.4040   24.4360 N   0  0  0  0  0  0  0  0  0  0  0  0
    8.0170   11.6130   24.7310 N   0  0  0  0  0  0  0  0  0  0  0  0
    6.8990   11.6970   25.6280 C   0  0  0  0  0  0  0  0  0  0  0  0
    8.7160   12.6270   24.1200 C   0  0  0  0  0  0  0  0  0  0  0  0
    9.7040   12.0280   23.3540 C   0  0  0  0  0  0  0  0  0  0  0  0
   10.7120   12.5850   22.5120 N   0  0  0  0  0  0  0  0  0  0  0  0
   11.1960   13.9020   22.3590 C   0  0  0  0  0  0  0  0  0  0  0  0
   10.8490   14.6900   21.5090 O   0  0  0  0  0  0  0  0  0  0  0  0
   12.2870   14.4070   23.3030 C   0  0  1  0  0  0  0  0  0  0  0  0
   12.6550   15.7230   23.0980 F   0  0  0  0  0  0  0  0  0  0  0  0
   11.8110   14.1510   24.5700 C   0  0  0  0  0  0  0  0  0  0  0  0
   13.1910   13.4330   24.1320 C   0  0  2  0  0  0  0  0  0  0  0  0
   14.3320   13.7550   25.1110 C   0  0  0  0  0  0  0  0  0  0  0  0
   14.1780   14.9850   25.9480 C   0  0  0  0  0  0  0  0  0  0  0  0
   15.1700   15.2840   26.8820 C   0  0  0  0  0  0  0  0  0  0  0  0
   16.2800   14.4360   27.0180 C   0  0  0  0  0  0  0  0  0  0  0  0
   16.4180   13.2890   26.2210 C   0  0  0  0  0  0  0  0  0  0  0  0
   15.4520   12.9480   25.2740 C   0  0  0  0  0  0  0  0  0  0  0  0
   10.8540    7.2630   21.8770 H   0  0  0  0  0  0  0  0  0  0  0  0
   11.2150    8.8820   21.2500 H   0  0  0  0  0  0  0  0  0  0  0  0
    9.9270    7.9300   20.4820 H   0  0  0  0  0  0  0  0  0  0  0  0
    6.1260   12.3320   25.1880 H   0  0  0  0  0  0  0  0  0  0  0  0
    6.5100   10.6920   25.7870 H   0  0  0  0  0  0  0  0  0  0  0  0
    7.2400   12.1310   26.5700 H   0  0  0  0  0  0  0  0  0  0  0  0
    8.4580   13.6680   24.2770 H   0  0  0  0  0  0  0  0  0  0  0  0
   10.7840   12.0860   21.6260 H   0  0  0  0  0  0  0  0  0  0  0  0
   11.8580   14.9670   25.2890 H   0  0  0  0  0  0  0  0  0  0  0  0
   10.9110   13.5580   24.6470 H   0  0  0  0  0  0  0  0  0  0  0  0
   13.0450   12.3760   23.9510 H   0  0  0  0  0  0  0  0  0  0  0  0
   13.3280   15.6430   25.8610 H   0  0  0  0  0  0  0  0  0  0  0  0
   15.0800   16.1680   27.5020 H   0  0  0  0  0  0  0  0  0  0  0  0
   17.0460   14.6760   27.7490 H   0  0  0  0  0  0  0  0  0  0  0  0
   17.2890   12.6560   26.3480 H   0  0  0  0  0  0  0  0  0  0  0  0
   15.5780   12.0510   24.6760 H   0  0  0  0  0  0  0  0  0  0  0  0
  1  2  1  0
  2  3  1  0
  3  4  2  0
  3  5  1  0
  5  6  2  0
  6  7  1  0
  7  8  1  0
  7  9  1  0
  9 10  2  0
 10 11  1  0
 11 12  1  0
 12 13  2  0
 12 14  1  0
 14 15  1  1
 14 16  1  0
 16 17  1  0
 17 18  1  0
 18 19  2  0
 19 20  1  0
 20 21  2  0
 21 22  1  0
 22 23  2  0
 10  5  1  0
 17 14  1  0
 23 18  1  0
  1 24  1  0
  1 25  1  0
  1 26  1  0
  8 27  1  0
  8 28  1  0
  8 29  1  0
  9 30  1  0
 11 31  1  0
 16 32  1  0
 16 33  1  0
 17 34  1  6
 19 35  1  0
 20 36  1  0
 21 37  1  0
 22 38  1  0
 23 39  1  0
A    1
 C1 
A    2
 O1 
A    3
 C2 
A    4
 O2 
A    5
 C3 
A    6
 N1 
A    7
 N2 
A    8
 C4 
A    9
 C5 
A   10
 C6 
A   11
 N3 
A   12
 C7 
A   13
 O3 
A   14
 C8 
A   15
 F1 
A   16
 C9 
A   17
 C10
A   18
 C11
A   19
 C12
A   20
 C13
A   21
 C14
A   22
 C15
A   23
 C16
A   24
 H1 
A   25
 H2 
A   26
 H3 
A   27
 H4 
A   28
 H5 
A   29
 H6 
A   30
 H7 
A   31
 H8 
A   32
 H9 
A   33
 H10
A   34
 H11
A   35
 H12
A   36
 H13
A   37
 H14
A   38
 H15
A   39
 H16
M  END
>  <ref_pdb>  (39) 
x0310_0A

>  <ref_mols>  (39) 
x0310_0A,x0375_0A

>  <original SMILES>  (39) 
COC(=O)c1nn(C)cc1NC(=O)[C@@]1(F)C[C@@H]1c1ccccc1

>  <rationale>  (39) 
info halogenbond:E88; hbond:S125+S87+C110; hydroph_interaction:P107+Y89+L22; 

>  <intxn_cluster>  (39) 
205

>  <intxn_cluster_rank>  (39) 
8

>  <N_interactions>  (39) 
8

>  <∆∆G>  (39) 
-9.943186

>  <$/mg>  (39) 
nan

>  <comRMSD>  (39) 
0.957849

>  <N_rotatable_bonds>  (39) 
6

>  <N_analogues_07>  (39) 
2

>  <deep_P1_sidechain>  (39) 
False

>  <farthest_distance_to_substrate>  (39) 
3.711034

>  <hbond:SER:7>  (39) 
hbond:SER:7    0
hbond:SER:7    0
Name: 38, dtype: object

>  <halogenbond:SER:7>  (39) 
halogenbond:SER:7    0
halogenbond:SER:7    0
Name: 38, dtype: object

>  <hbond:GLY:8>  (39) 
hbond:GLY:8    0
hbond:GLY:8    0
Name: 38, dtype: object

>  <hydroph_interaction:ASN:19>  (39) 
hydroph_interaction:ASN:19    0
hydroph_interaction:ASN:19    0
Name: 38, dtype: object

>  <hbond:ASN:19>  (39) 
hbond:ASN:19    0
hbond:ASN:19    0
Name: 38, dtype: object

>  <halogenbond:ASN:19>  (39) 
halogenbond:ASN:19    0
halogenbond:ASN:19    0
Name: 38, dtype: object

>  <hbond:ARG:20>  (39) 
hbond:ARG:20    0
hbond:ARG:20    0
Name: 38, dtype: object

>  <hydroph_interaction:ARG:20>  (39) 
hydroph_interaction:ARG:20    0
hydroph_interaction:ARG:20    0
Name: 38, dtype: object

>  <saltbridge:ARG:20>  (39) 
saltbridge:ARG:20    0
saltbridge:ARG:20    0
Name: 38, dtype: object

>  <halogenbond:ARG:20>  (39) 
halogenbond:ARG:20    0
halogenbond:ARG:20    0
Name: 38, dtype: object

>  <pication:ARG:20>  (39) 
pication:ARG:20    0
pication:ARG:20    0
Name: 38, dtype: object

>  <hbond:HIS:21>  (39) 
hbond:HIS:21    0
hbond:HIS:21    0
Name: 38, dtype: object

>  <hydroph_interaction:HIS:21>  (39) 
hydroph_interaction:HIS:21    0
hydroph_interaction:HIS:21    0
Name: 38, dtype: object

>  <saltbridge:HIS:21>  (39) 
saltbridge:HIS:21    0
saltbridge:HIS:21    0
Name: 38, dtype: object

>  <pistack:HIS:21>  (39) 
pistack:HIS:21    0
pistack:HIS:21    0
Name: 38, dtype: object

>  <pication:HIS:21>  (39) 
pication:HIS:21    0
pication:HIS:21    0
Name: 38, dtype: object

>  <halogenbond:HIS:21>  (39) 
halogenbond:HIS:21    0
halogenbond:HIS:21    0
Name: 38, dtype: object

>  <hydroph_interaction:LEU:22>  (39) 
hydroph_interaction:LEU:22    1
hydroph_interaction:LEU:22    1
Name: 38, dtype: object

>  <hbond:LEU:22>  (39) 
hbond:LEU:22    0
hbond:LEU:22    0
Name: 38, dtype: object

>  <hydroph_interaction:TRP:28>  (39) 
hydroph_interaction:TRP:28    0
hydroph_interaction:TRP:28    0
Name: 38, dtype: object

>  <hbond:SER:36>  (39) 
hbond:SER:36    0
hbond:SER:36    0
Name: 38, dtype: object

>  <halogenbond:SER:36>  (39) 
halogenbond:SER:36    0
halogenbond:SER:36    0
Name: 38, dtype: object

>  <hbond:ARG:38>  (39) 
hbond:ARG:38    0
hbond:ARG:38    0
Name: 38, dtype: object

>  <halogenbond:ARG:38>  (39) 
halogenbond:ARG:38    0
halogenbond:ARG:38    0
Name: 38, dtype: object

>  <hbond:ASP:39>  (39) 
hbond:ASP:39    0
hbond:ASP:39    0
Name: 38, dtype: object

>  <saltbridge:ASP:39>  (39) 
saltbridge:ASP:39    0
saltbridge:ASP:39    0
Name: 38, dtype: object

>  <hydroph_interaction:ASP:39>  (39) 
hydroph_interaction:ASP:39    0
hydroph_interaction:ASP:39    0
Name: 38, dtype: object

>  <halogenbond:ASP:39>  (39) 
halogenbond:ASP:39    0
halogenbond:ASP:39    0
Name: 38, dtype: object

>  <hydroph_interaction:LEU:40>  (39) 
hydroph_interaction:LEU:40    0
hydroph_interaction:LEU:40    0
Name: 38, dtype: object

>  <hydroph_interaction:TYR:63>  (39) 
hydroph_interaction:TYR:63    0
hydroph_interaction:TYR:63    0
Name: 38, dtype: object

>  <pistack:TYR:63>  (39) 
pistack:TYR:63    0
pistack:TYR:63    0
Name: 38, dtype: object

>  <hbond:TYR:63>  (39) 
hbond:TYR:63    0
hbond:TYR:63    0
Name: 38, dtype: object

>  <hbond:TYR:64>  (39) 
hbond:TYR:64    0
hbond:TYR:64    0
Name: 38, dtype: object

>  <halogenbond:TYR:64>  (39) 
halogenbond:TYR:64    0
halogenbond:TYR:64    0
Name: 38, dtype: object

>  <hydroph_interaction:TYR:64>  (39) 
hydroph_interaction:TYR:64    0
hydroph_interaction:TYR:64    0
Name: 38, dtype: object

>  <hbond:CYS:65>  (39) 
hbond:CYS:65    0
hbond:CYS:65    0
Name: 38, dtype: object

>  <halogenbond:CYS:65>  (39) 
halogenbond:CYS:65    0
halogenbond:CYS:65    0
Name: 38, dtype: object

>  <hbond:SER:66>  (39) 
hbond:SER:66    0
hbond:SER:66    0
Name: 38, dtype: object

>  <hbond:SER:67>  (39) 
hbond:SER:67    0
hbond:SER:67    0
Name: 38, dtype: object

>  <halogenbond:SER:67>  (39) 
halogenbond:SER:67    0
halogenbond:SER:67    0
Name: 38, dtype: object

>  <hydroph_interaction:ARG:68>  (39) 
hydroph_interaction:ARG:68    0
hydroph_interaction:ARG:68    0
Name: 38, dtype: object

>  <hbond:ARG:68>  (39) 
hbond:ARG:68    0
hbond:ARG:68    0
Name: 38, dtype: object

>  <saltbridge:ARG:68>  (39) 
saltbridge:ARG:68    0
saltbridge:ARG:68    0
Name: 38, dtype: object

>  <pication:ARG:68>  (39) 
pication:ARG:68    0
pication:ARG:68    0
Name: 38, dtype: object

>  <hydroph_interaction:TYR:72>  (39) 
hydroph_interaction:TYR:72    0
hydroph_interaction:TYR:72    0
Name: 38, dtype: object

>  <hydroph_interaction:VAL:74>  (39) 
hydroph_interaction:VAL:74    0
hydroph_interaction:VAL:74    0
Name: 38, dtype: object

>  <hydroph_interaction:PHE:76>  (39) 
hydroph_interaction:PHE:76    0
hydroph_interaction:PHE:76    0
Name: 38, dtype: object

>  <hbond:SER:77>  (39) 
hbond:SER:77    0
hbond:SER:77    0
Name: 38, dtype: object

>  <hbond:SER:80>  (39) 
hbond:SER:80    0
hbond:SER:80    0
Name: 38, dtype: object

>  <hbond:LEU:81>  (39) 
hbond:LEU:81    0
hbond:LEU:81    0
Name: 38, dtype: object

>  <halogenbond:LEU:81>  (39) 
halogenbond:LEU:81    0
halogenbond:LEU:81    0
Name: 38, dtype: object

>  <hydroph_interaction:LEU:81>  (39) 
hydroph_interaction:LEU:81    0
hydroph_interaction:LEU:81    0
Name: 38, dtype: object

>  <hydroph_interaction:ILE:82>  (39) 
hydroph_interaction:ILE:82    0
hydroph_interaction:ILE:82    0
Name: 38, dtype: object

>  <hbond:ILE:82>  (39) 
hbond:ILE:82    0
hbond:ILE:82    0
Name: 38, dtype: object

>  <hydroph_interaction:PHE:83>  (39) 
hydroph_interaction:PHE:83    0
hydroph_interaction:PHE:83    0
Name: 38, dtype: object

>  <hbond:PHE:83>  (39) 
hbond:PHE:83    0
hbond:PHE:83    0
Name: 38, dtype: object

>  <halogenbond:PHE:83>  (39) 
halogenbond:PHE:83    0
halogenbond:PHE:83    0
Name: 38, dtype: object

>  <pistack:PHE:83>  (39) 
pistack:PHE:83    0
pistack:PHE:83    0
Name: 38, dtype: object

>  <hydroph_interaction:VAL:84>  (39) 
hydroph_interaction:VAL:84    0
hydroph_interaction:VAL:84    0
Name: 38, dtype: object

>  <hbond:VAL:84>  (39) 
hbond:VAL:84    0
hbond:VAL:84    0
Name: 38, dtype: object

>  <halogenbond:VAL:84>  (39) 
halogenbond:VAL:84    0
halogenbond:VAL:84    0
Name: 38, dtype: object

>  <hydroph_interaction:GLU:85>  (39) 
hydroph_interaction:GLU:85    0
hydroph_interaction:GLU:85    0
Name: 38, dtype: object

>  <hbond:GLU:85>  (39) 
hbond:GLU:85    0
hbond:GLU:85    0
Name: 38, dtype: object

>  <saltbridge:GLU:85>  (39) 
saltbridge:GLU:85    0
saltbridge:GLU:85    0
Name: 38, dtype: object

>  <halogenbond:GLU:85>  (39) 
halogenbond:GLU:85    0
halogenbond:GLU:85    0
Name: 38, dtype: object

>  <hbond:ALA:86>  (39) 
hbond:ALA:86    0
hbond:ALA:86    0
Name: 38, dtype: object

>  <halogenbond:ALA:86>  (39) 
halogenbond:ALA:86    0
halogenbond:ALA:86    0
Name: 38, dtype: object

>  <hydroph_interaction:ALA:86>  (39) 
hydroph_interaction:ALA:86    0
hydroph_interaction:ALA:86    0
Name: 38, dtype: object

>  <hbond:SER:87>  (39) 
hbond:SER:87    1
hbond:SER:87    1
Name: 38, dtype: object

>  <halogenbond:SER:87>  (39) 
halogenbond:SER:87    0
halogenbond:SER:87    0
Name: 38, dtype: object

>  <hbond:GLU:88>  (39) 
hbond:GLU:88    0
hbond:GLU:88    0
Name: 38, dtype: object

>  <hydroph_interaction:GLU:88>  (39) 
hydroph_interaction:GLU:88    0
hydroph_interaction:GLU:88    0
Name: 38, dtype: object

>  <halogenbond:GLU:88>  (39) 
halogenbond:GLU:88    1
halogenbond:GLU:88    1
Name: 38, dtype: object

>  <saltbridge:GLU:88>  (39) 
saltbridge:GLU:88    0
saltbridge:GLU:88    0
Name: 38, dtype: object

>  <hydroph_interaction:TYR:89>  (39) 
hydroph_interaction:TYR:89    2
hydroph_interaction:TYR:89    2
Name: 38, dtype: object

>  <pistack:TYR:89>  (39) 
pistack:TYR:89    0
pistack:TYR:89    0
Name: 38, dtype: object

>  <hbond:TYR:89>  (39) 
hbond:TYR:89    0
hbond:TYR:89    0
Name: 38, dtype: object

>  <halogenbond:TYR:89>  (39) 
halogenbond:TYR:89    0
halogenbond:TYR:89    0
Name: 38, dtype: object

>  <hbond:TYR:90>  (39) 
hbond:TYR:90    0
hbond:TYR:90    0
Name: 38, dtype: object

>  <hydroph_interaction:TYR:90>  (39) 
hydroph_interaction:TYR:90    0
hydroph_interaction:TYR:90    0
Name: 38, dtype: object

>  <pistack:TYR:90>  (39) 
pistack:TYR:90    0
pistack:TYR:90    0
Name: 38, dtype: object

>  <halogenbond:TYR:90>  (39) 
halogenbond:TYR:90    0
halogenbond:TYR:90    0
Name: 38, dtype: object

>  <pication:TYR:90>  (39) 
pication:TYR:90    0
pication:TYR:90    0
Name: 38, dtype: object

>  <hydroph_interaction:PRO:91>  (39) 
hydroph_interaction:PRO:91    0
hydroph_interaction:PRO:91    0
Name: 38, dtype: object

>  <halogenbond:PRO:91>  (39) 
halogenbond:PRO:91    0
halogenbond:PRO:91    0
Name: 38, dtype: object

>  <hbond:PRO:91>  (39) 
hbond:PRO:91    0
hbond:PRO:91    0
Name: 38, dtype: object

>  <hydroph_interaction:ALA:92>  (39) 
hydroph_interaction:ALA:92    0
hydroph_interaction:ALA:92    0
Name: 38, dtype: object

>  <hbond:ARG:93>  (39) 
hbond:ARG:93    0
hbond:ARG:93    0
Name: 38, dtype: object

>  <pication:ARG:93>  (39) 
pication:ARG:93    0
pication:ARG:93    0
Name: 38, dtype: object

>  <saltbridge:ARG:93>  (39) 
saltbridge:ARG:93    0
saltbridge:ARG:93    0
Name: 38, dtype: object

>  <hydroph_interaction:ARG:93>  (39) 
hydroph_interaction:ARG:93    0
hydroph_interaction:ARG:93    0
Name: 38, dtype: object

>  <halogenbond:ARG:93>  (39) 
halogenbond:ARG:93    0
halogenbond:ARG:93    0
Name: 38, dtype: object

>  <hydroph_interaction:TYR:94>  (39) 
hydroph_interaction:TYR:94    0
hydroph_interaction:TYR:94    0
Name: 38, dtype: object

>  <hbond:TYR:94>  (39) 
hbond:TYR:94    0
hbond:TYR:94    0
Name: 38, dtype: object

>  <halogenbond:GLN:95>  (39) 
halogenbond:GLN:95    0
halogenbond:GLN:95    0
Name: 38, dtype: object

>  <hbond:GLN:95>  (39) 
hbond:GLN:95    0
hbond:GLN:95    0
Name: 38, dtype: object

>  <hydroph_interaction:GLN:95>  (39) 
hydroph_interaction:GLN:95    0
hydroph_interaction:GLN:95    0
Name: 38, dtype: object

>  <hbond:SER:96>  (39) 
hbond:SER:96    0
hbond:SER:96    0
Name: 38, dtype: object

>  <hydroph_interaction:LEU:98>  (39) 
hydroph_interaction:LEU:98    0
hydroph_interaction:LEU:98    0
Name: 38, dtype: object

>  <hbond:LEU:98>  (39) 
hbond:LEU:98    0
hbond:LEU:98    0
Name: 38, dtype: object

>  <hbond:MET:99>  (39) 
hbond:MET:99    0
hbond:MET:99    0
Name: 38, dtype: object

>  <hydroph_interaction:MET:99>  (39) 
hydroph_interaction:MET:99    0
hydroph_interaction:MET:99    0
Name: 38, dtype: object

>  <halogenbond:MET:99>  (39) 
halogenbond:MET:99    0
halogenbond:MET:99    0
Name: 38, dtype: object

>  <hydroph_interaction:LEU:100>  (39) 
hydroph_interaction:LEU:100    0
hydroph_interaction:LEU:100    0
Name: 38, dtype: object

>  <hbond:LEU:100>  (39) 
hbond:LEU:100    0
hbond:LEU:100    0
Name: 38, dtype: object

>  <hbond:ALA:101>  (39) 
hbond:ALA:101    0
hbond:ALA:101    0
Name: 38, dtype: object

>  <hydroph_interaction:ALA:101>  (39) 
hydroph_interaction:ALA:101    0
hydroph_interaction:ALA:101    0
Name: 38, dtype: object

>  <hydroph_interaction:VAL:102>  (39) 
hydroph_interaction:VAL:102    0
hydroph_interaction:VAL:102    0
Name: 38, dtype: object

>  <hbond:VAL:102>  (39) 
hbond:VAL:102    0
hbond:VAL:102    0
Name: 38, dtype: object

>  <hbond:GLY:103>  (39) 
hbond:GLY:103    0
hbond:GLY:103    0
Name: 38, dtype: object

>  <halogenbond:GLY:103>  (39) 
halogenbond:GLY:103    0
halogenbond:GLY:103    0
Name: 38, dtype: object

>  <hydroph_interaction:HIS:104>  (39) 
hydroph_interaction:HIS:104    0
hydroph_interaction:HIS:104    0
Name: 38, dtype: object

>  <hbond:HIS:104>  (39) 
hbond:HIS:104    0
hbond:HIS:104    0
Name: 38, dtype: object

>  <saltbridge:HIS:104>  (39) 
saltbridge:HIS:104    0
saltbridge:HIS:104    0
Name: 38, dtype: object

>  <pication:HIS:104>  (39) 
pication:HIS:104    0
pication:HIS:104    0
Name: 38, dtype: object

>  <pistack:HIS:104>  (39) 
pistack:HIS:104    0
pistack:HIS:104    0
Name: 38, dtype: object

>  <halogenbond:HIS:104>  (39) 
halogenbond:HIS:104    0
halogenbond:HIS:104    0
Name: 38, dtype: object

>  <hbond:SER:105>  (39) 
hbond:SER:105    0
hbond:SER:105    0
Name: 38, dtype: object

>  <halogenbond:SER:105>  (39) 
halogenbond:SER:105    0
halogenbond:SER:105    0
Name: 38, dtype: object

>  <hbond:GLU:106>  (39) 
hbond:GLU:106    0
hbond:GLU:106    0
Name: 38, dtype: object

>  <hydroph_interaction:GLU:106>  (39) 
hydroph_interaction:GLU:106    0
hydroph_interaction:GLU:106    0
Name: 38, dtype: object

>  <saltbridge:GLU:106>  (39) 
saltbridge:GLU:106    0
saltbridge:GLU:106    0
Name: 38, dtype: object

>  <halogenbond:GLU:106>  (39) 
halogenbond:GLU:106    0
halogenbond:GLU:106    0
Name: 38, dtype: object

>  <hydroph_interaction:PRO:107>  (39) 
hydroph_interaction:PRO:107    1
hydroph_interaction:PRO:107    1
Name: 38, dtype: object

>  <hbond:PRO:107>  (39) 
hbond:PRO:107    0
hbond:PRO:107    0
Name: 38, dtype: object

>  <halogenbond:PRO:107>  (39) 
halogenbond:PRO:107    0
halogenbond:PRO:107    0
Name: 38, dtype: object

>  <hbond:GLY:108>  (39) 
hbond:GLY:108    0
hbond:GLY:108    0
Name: 38, dtype: object

>  <halogenbond:GLY:108>  (39) 
halogenbond:GLY:108    0
halogenbond:GLY:108    0
Name: 38, dtype: object

>  <hbond:ASP:109>  (39) 
hbond:ASP:109    0
hbond:ASP:109    0
Name: 38, dtype: object

>  <hydroph_interaction:ASP:109>  (39) 
hydroph_interaction:ASP:109    0
hydroph_interaction:ASP:109    0
Name: 38, dtype: object

>  <saltbridge:ASP:109>  (39) 
saltbridge:ASP:109    0
saltbridge:ASP:109    0
Name: 38, dtype: object

>  <hbond:CYS:110>  (39) 
hbond:CYS:110    1
hbond:CYS:110    1
Name: 38, dtype: object

>  <halogenbond:CYS:110>  (39) 
halogenbond:CYS:110    0
halogenbond:CYS:110    0
Name: 38, dtype: object

>  <hbond:GLY:111>  (39) 
hbond:GLY:111    0
hbond:GLY:111    0
Name: 38, dtype: object

>  <hbond:GLY:112>  (39) 
hbond:GLY:112    0
hbond:GLY:112    0
Name: 38, dtype: object

>  <hbond:ILE:113>  (39) 
hbond:ILE:113    0
hbond:ILE:113    0
Name: 38, dtype: object

>  <hydroph_interaction:LEU:114>  (39) 
hydroph_interaction:LEU:114    0
hydroph_interaction:LEU:114    0
Name: 38, dtype: object

>  <hbond:LEU:114>  (39) 
hbond:LEU:114    0
hbond:LEU:114    0
Name: 38, dtype: object

>  <hydroph_interaction:ILE:123>  (39) 
hydroph_interaction:ILE:123    0
hydroph_interaction:ILE:123    0
Name: 38, dtype: object

>  <hbond:ILE:123>  (39) 
hbond:ILE:123    0
hbond:ILE:123    0
Name: 38, dtype: object

>  <hydroph_interaction:VAL:124>  (39) 
hydroph_interaction:VAL:124    0
hydroph_interaction:VAL:124    0
Name: 38, dtype: object

>  <hbond:VAL:124>  (39) 
hbond:VAL:124    0
hbond:VAL:124    0
Name: 38, dtype: object

>  <halogenbond:VAL:124>  (39) 
halogenbond:VAL:124    0
halogenbond:VAL:124    0
Name: 38, dtype: object

>  <hbond:SER:125>  (39) 
hbond:SER:125    1
hbond:SER:125    1
Name: 38, dtype: object

>  <halogenbond:SER:125>  (39) 
halogenbond:SER:125    0
halogenbond:SER:125    0
Name: 38, dtype: object

>  <hydroph_interaction:THR:126>  (39) 
hydroph_interaction:THR:126    0
hydroph_interaction:THR:126    0
Name: 38, dtype: object

>  <hbond:THR:126>  (39) 
hbond:THR:126    0
hbond:THR:126    0
Name: 38, dtype: object

>  <halogenbond:THR:126>  (39) 
halogenbond:THR:126    0
halogenbond:THR:126    0
Name: 38, dtype: object

>  <hbond:GLY:127>  (39) 
hbond:GLY:127    0
hbond:GLY:127    0
Name: 38, dtype: object

>  <halogenbond:GLY:127>  (39) 
halogenbond:GLY:127    0
halogenbond:GLY:127    0
Name: 38, dtype: object

>  <hydroph_interaction:GLY:127>  (39) 
hydroph_interaction:GLY:127    0
hydroph_interaction:GLY:127    0
Name: 38, dtype: object

>  <hbond:GLY:128>  (39) 
hbond:GLY:128    0
hbond:GLY:128    0
Name: 38, dtype: object

>  <halogenbond:GLY:128>  (39) 
halogenbond:GLY:128    0
halogenbond:GLY:128    0
Name: 38, dtype: object

>  <hydroph_interaction:GLY:128>  (39) 
hydroph_interaction:GLY:128    0
hydroph_interaction:GLY:128    0
Name: 38, dtype: object

>  <hbond:ASN:129>  (39) 
hbond:ASN:129    0
hbond:ASN:129    0
Name: 38, dtype: object

>  <hydroph_interaction:ASN:129>  (39) 
hydroph_interaction:ASN:129    0
hydroph_interaction:ASN:129    0
Name: 38, dtype: object

>  <halogenbond:ASN:129>  (39) 
halogenbond:ASN:129    0
halogenbond:ASN:129    0
Name: 38, dtype: object

>  <hbond:GLY:130>  (39) 
hbond:GLY:130    0
hbond:GLY:130    0
Name: 38, dtype: object

>  <hydroph_interaction:LEU:131>  (39) 
hydroph_interaction:LEU:131    0
hydroph_interaction:LEU:131    0
Name: 38, dtype: object

>  <hbond:LEU:131>  (39) 
hbond:LEU:131    0
hbond:LEU:131    0
Name: 38, dtype: object

>  <halogenbond:LEU:131>  (39) 
halogenbond:LEU:131    0
halogenbond:LEU:131    0
Name: 38, dtype: object

>  <hydroph_interaction:VAL:132>  (39) 
hydroph_interaction:VAL:132    0
hydroph_interaction:VAL:132    0
Name: 38, dtype: object

>  <hbond:VAL:132>  (39) 
hbond:VAL:132    0
hbond:VAL:132    0
Name: 38, dtype: object

>  <hbond:GLY:133>  (39) 
hbond:GLY:133    0
hbond:GLY:133    0
Name: 38, dtype: object

>  <halogenbond:GLY:133>  (39) 
halogenbond:GLY:133    0
halogenbond:GLY:133    0
Name: 38, dtype: object

>  <hydroph_interaction:PHE:134>  (39) 
hydroph_interaction:PHE:134    0
hydroph_interaction:PHE:134    0
Name: 38, dtype: object

>  <hbond:PHE:134>  (39) 
hbond:PHE:134    0
hbond:PHE:134    0
Name: 38, dtype: object

>  <pistack:PHE:134>  (39) 
pistack:PHE:134    0
pistack:PHE:134    0
Name: 38, dtype: object

>  <pication:PHE:134>  (39) 
pication:PHE:134    0
pication:PHE:134    0
Name: 38, dtype: object

>  <hydroph_interaction:ALA:135>  (39) 
hydroph_interaction:ALA:135    0
hydroph_interaction:ALA:135    0
Name: 38, dtype: object

>  <hbond:ALA:135>  (39) 
hbond:ALA:135    0
hbond:ALA:135    0
Name: 38, dtype: object

$$$$
Z2769837291
     RDKit          3D

 36 37  0  0  0  0  0  0  0  0999 V2000
    6.7120   10.3970   25.6710 C   0  0  0  0  0  0  0  0  0  0  0  0
    7.8270   10.8490   24.8220 C   0  0  0  0  0  0  0  0  0  0  0  0
    8.7480   10.0500   24.0990 C   0  0  0  0  0  0  0  0  0  0  0  0
    9.7510   10.6580   23.3210 C   0  0  0  0  0  0  0  0  0  0  0  0
    9.8330   12.0610   23.2720 C   0  0  0  0  0  0  0  0  0  0  0  0
   10.8080   12.8980   22.5190 C   0  0  0  0  0  0  0  0  0  0  0  0
   11.3610   13.9850   23.3340 N   0  0  0  0  0  0  0  0  0  0  0  0
   12.4890   14.6190   22.6490 C   0  0  0  0  0  0  0  0  0  0  0  0
   13.7980   14.1980   23.2440 C   0  0  0  0  0  0  0  0  0  0  0  0
   14.7750   13.5340   22.3730 C   0  0  0  0  0  0  0  0  0  0  0  0
   15.9220   13.2420   23.2120 C   0  0  0  0  0  0  0  0  0  0  0  0
   17.2090   12.5660   22.8320 C   0  0  0  0  0  0  0  0  0  0  0  0
   15.6780   13.6890   24.4630 N   0  0  0  0  0  0  0  0  0  0  0  0
   14.4220   14.2660   24.4740 N   0  0  0  0  0  0  0  0  0  0  0  0
   13.9550   14.8510   25.7120 C   0  0  0  0  0  0  0  0  0  0  0  0
    8.8950   12.7650   24.0080 C   0  0  0  0  0  0  0  0  0  0  0  0
    8.8950   14.0810   24.0190 F   0  0  0  0  0  0  0  0  0  0  0  0
    7.9280   12.1900   24.7560 C   0  0  0  0  0  0  0  0  0  0  0  0
    6.1900    9.5680   25.2150 H   0  0  0  0  0  0  0  0  0  0  0  0
    5.9910   11.2140   25.7680 H   0  0  0  0  0  0  0  0  0  0  0  0
    7.0100   10.1260   26.6730 H   0  0  0  0  0  0  0  0  0  0  0  0
    8.6880    8.9660   24.1340 H   0  0  0  0  0  0  0  0  0  0  0  0
   10.4520   10.0410   22.7670 H   0  0  0  0  0  0  0  0  0  0  0  0
   11.6410   12.4010   22.0700 H   0  0  0  0  0  0  0  0  0  0  0  0
   10.2670   13.3710   21.6910 H   0  0  0  0  0  0  0  0  0  0  0  0
   10.6500   14.7090   23.4420 H   0  0  0  0  0  0  0  0  0  0  0  0
   12.4990   14.3100   21.5990 H   0  0  0  0  0  0  0  0  0  0  0  0
   12.4020   15.7130   22.6720 H   0  0  0  0  0  0  0  0  0  0  0  0
   14.6560   13.3100   21.3260 H   0  0  0  0  0  0  0  0  0  0  0  0
   17.2930   11.5770   23.3040 H   0  0  0  0  0  0  0  0  0  0  0  0
   18.0810   13.1610   23.1220 H   0  0  0  0  0  0  0  0  0  0  0  0
   17.2410   12.4220   21.7430 H   0  0  0  0  0  0  0  0  0  0  0  0
   14.4400   15.8260   25.8040 H   0  0  0  0  0  0  0  0  0  0  0  0
   14.1760   14.2880   26.6250 H   0  0  0  0  0  0  0  0  0  0  0  0
   12.8750   15.0030   25.6420 H   0  0  0  0  0  0  0  0  0  0  0  0
    7.2410   12.8330   25.2930 H   0  0  0  0  0  0  0  0  0  0  0  0
  1  2  1  0
  2  3  2  0
  3  4  1  0
  4  5  2  0
  5  6  1  0
  6  7  1  0
  7  8  1  0
  8  9  1  0
  9 10  2  0
 10 11  1  0
 11 12  1  0
 11 13  2  0
 13 14  1  0
 14 15  1  0
  5 16  1  0
 16 17  1  0
 16 18  2  0
 18  2  1  0
 14  9  1  0
  1 19  1  0
  1 20  1  0
  1 21  1  0
  3 22  1  0
  4 23  1  0
  6 24  1  0
  6 25  1  0
  7 26  1  0
  8 27  1  0
  8 28  1  0
 10 29  1  0
 12 30  1  0
 12 31  1  0
 12 32  1  0
 15 33  1  0
 15 34  1  0
 15 35  1  0
 18 36  1  0
A    1
 C1 
A    2
 C2 
A    3
 C3 
A    4
 C4 
A    5
 C5 
A    6
 C6 
A    7
 N1 
A    8
 C7 
A    9
 C8 
A   10
 C9 
A   11
 C10
A   12
 C11
A   13
 N2 
A   14
 N3 
A   15
 C12
A   16
 C13
A   17
 F1 
A   18
 C14
A   19
 H1 
A   20
 H2 
A   21
 H3 
A   22
 H4 
A   23
 H5 
A   24
 H6 
A   25
 H7 
A   26
 H8 
A   27
 H9 
A   28
 H10
A   29
 H11
A   30
 H12
A   31
 H13
A   32
 H14
A   33
 H15
A   34
 H16
A   35
 H17
A   36
 H18
M  END
>  <ref_pdb>  (40) 
x0310_0A

>  <ref_mols>  (40) 
x0554_0A,x0554_0A

>  <original SMILES>  (40) 
Cc1ccc(CNCc2cc(C)nn2C)c(F)c1

>  <rationale>  (40) 
info halogenbond:S87; hbond:S87; hydroph_interaction:L22; pistack:Y89; 

>  <intxn_cluster>  (40) 
204

>  <intxn_cluster_rank>  (40) 
8

>  <N_interactions>  (40) 
4

>  <∆∆G>  (40) 
-10.095889

>  <$/mg>  (40) 
163.0

>  <comRMSD>  (40) 
0.815047

>  <N_rotatable_bonds>  (40) 
7

>  <N_analogues_07>  (40) 
0

>  <deep_P1_sidechain>  (40) 
False

>  <farthest_distance_to_substrate>  (40) 
3.089888

>  <hbond:SER:7>  (40) 
hbond:SER:7    0
hbond:SER:7    0
Name: 39, dtype: object

>  <halogenbond:SER:7>  (40) 
halogenbond:SER:7    0
halogenbond:SER:7    0
Name: 39, dtype: object

>  <hbond:GLY:8>  (40) 
hbond:GLY:8    0
hbond:GLY:8    0
Name: 39, dtype: object

>  <hydroph_interaction:ASN:19>  (40) 
hydroph_interaction:ASN:19    0
hydroph_interaction:ASN:19    0
Name: 39, dtype: object

>  <hbond:ASN:19>  (40) 
hbond:ASN:19    0
hbond:ASN:19    0
Name: 39, dtype: object

>  <halogenbond:ASN:19>  (40) 
halogenbond:ASN:19    0
halogenbond:ASN:19    0
Name: 39, dtype: object

>  <hbond:ARG:20>  (40) 
hbond:ARG:20    0
hbond:ARG:20    0
Name: 39, dtype: object

>  <hydroph_interaction:ARG:20>  (40) 
hydroph_interaction:ARG:20    0
hydroph_interaction:ARG:20    0
Name: 39, dtype: object

>  <saltbridge:ARG:20>  (40) 
saltbridge:ARG:20    0
saltbridge:ARG:20    0
Name: 39, dtype: object

>  <halogenbond:ARG:20>  (40) 
halogenbond:ARG:20    0
halogenbond:ARG:20    0
Name: 39, dtype: object

>  <pication:ARG:20>  (40) 
pication:ARG:20    0
pication:ARG:20    0
Name: 39, dtype: object

>  <hbond:HIS:21>  (40) 
hbond:HIS:21    0
hbond:HIS:21    0
Name: 39, dtype: object

>  <hydroph_interaction:HIS:21>  (40) 
hydroph_interaction:HIS:21    0
hydroph_interaction:HIS:21    0
Name: 39, dtype: object

>  <saltbridge:HIS:21>  (40) 
saltbridge:HIS:21    0
saltbridge:HIS:21    0
Name: 39, dtype: object

>  <pistack:HIS:21>  (40) 
pistack:HIS:21    0
pistack:HIS:21    0
Name: 39, dtype: object

>  <pication:HIS:21>  (40) 
pication:HIS:21    0
pication:HIS:21    0
Name: 39, dtype: object

>  <halogenbond:HIS:21>  (40) 
halogenbond:HIS:21    0
halogenbond:HIS:21    0
Name: 39, dtype: object

>  <hydroph_interaction:LEU:22>  (40) 
hydroph_interaction:LEU:22    1
hydroph_interaction:LEU:22    1
Name: 39, dtype: object

>  <hbond:LEU:22>  (40) 
hbond:LEU:22    0
hbond:LEU:22    0
Name: 39, dtype: object

>  <hydroph_interaction:TRP:28>  (40) 
hydroph_interaction:TRP:28    0
hydroph_interaction:TRP:28    0
Name: 39, dtype: object

>  <hbond:SER:36>  (40) 
hbond:SER:36    0
hbond:SER:36    0
Name: 39, dtype: object

>  <halogenbond:SER:36>  (40) 
halogenbond:SER:36    0
halogenbond:SER:36    0
Name: 39, dtype: object

>  <hbond:ARG:38>  (40) 
hbond:ARG:38    0
hbond:ARG:38    0
Name: 39, dtype: object

>  <halogenbond:ARG:38>  (40) 
halogenbond:ARG:38    0
halogenbond:ARG:38    0
Name: 39, dtype: object

>  <hbond:ASP:39>  (40) 
hbond:ASP:39    0
hbond:ASP:39    0
Name: 39, dtype: object

>  <saltbridge:ASP:39>  (40) 
saltbridge:ASP:39    0
saltbridge:ASP:39    0
Name: 39, dtype: object

>  <hydroph_interaction:ASP:39>  (40) 
hydroph_interaction:ASP:39    0
hydroph_interaction:ASP:39    0
Name: 39, dtype: object

>  <halogenbond:ASP:39>  (40) 
halogenbond:ASP:39    0
halogenbond:ASP:39    0
Name: 39, dtype: object

>  <hydroph_interaction:LEU:40>  (40) 
hydroph_interaction:LEU:40    0
hydroph_interaction:LEU:40    0
Name: 39, dtype: object

>  <hydroph_interaction:TYR:63>  (40) 
hydroph_interaction:TYR:63    0
hydroph_interaction:TYR:63    0
Name: 39, dtype: object

>  <pistack:TYR:63>  (40) 
pistack:TYR:63    0
pistack:TYR:63    0
Name: 39, dtype: object

>  <hbond:TYR:63>  (40) 
hbond:TYR:63    0
hbond:TYR:63    0
Name: 39, dtype: object

>  <hbond:TYR:64>  (40) 
hbond:TYR:64    0
hbond:TYR:64    0
Name: 39, dtype: object

>  <halogenbond:TYR:64>  (40) 
halogenbond:TYR:64    0
halogenbond:TYR:64    0
Name: 39, dtype: object

>  <hydroph_interaction:TYR:64>  (40) 
hydroph_interaction:TYR:64    0
hydroph_interaction:TYR:64    0
Name: 39, dtype: object

>  <hbond:CYS:65>  (40) 
hbond:CYS:65    0
hbond:CYS:65    0
Name: 39, dtype: object

>  <halogenbond:CYS:65>  (40) 
halogenbond:CYS:65    0
halogenbond:CYS:65    0
Name: 39, dtype: object

>  <hbond:SER:66>  (40) 
hbond:SER:66    0
hbond:SER:66    0
Name: 39, dtype: object

>  <hbond:SER:67>  (40) 
hbond:SER:67    0
hbond:SER:67    0
Name: 39, dtype: object

>  <halogenbond:SER:67>  (40) 
halogenbond:SER:67    0
halogenbond:SER:67    0
Name: 39, dtype: object

>  <hydroph_interaction:ARG:68>  (40) 
hydroph_interaction:ARG:68    0
hydroph_interaction:ARG:68    0
Name: 39, dtype: object

>  <hbond:ARG:68>  (40) 
hbond:ARG:68    0
hbond:ARG:68    0
Name: 39, dtype: object

>  <saltbridge:ARG:68>  (40) 
saltbridge:ARG:68    0
saltbridge:ARG:68    0
Name: 39, dtype: object

>  <pication:ARG:68>  (40) 
pication:ARG:68    0
pication:ARG:68    0
Name: 39, dtype: object

>  <hydroph_interaction:TYR:72>  (40) 
hydroph_interaction:TYR:72    0
hydroph_interaction:TYR:72    0
Name: 39, dtype: object

>  <hydroph_interaction:VAL:74>  (40) 
hydroph_interaction:VAL:74    0
hydroph_interaction:VAL:74    0
Name: 39, dtype: object

>  <hydroph_interaction:PHE:76>  (40) 
hydroph_interaction:PHE:76    0
hydroph_interaction:PHE:76    0
Name: 39, dtype: object

>  <hbond:SER:77>  (40) 
hbond:SER:77    0
hbond:SER:77    0
Name: 39, dtype: object

>  <hbond:SER:80>  (40) 
hbond:SER:80    0
hbond:SER:80    0
Name: 39, dtype: object

>  <hbond:LEU:81>  (40) 
hbond:LEU:81    0
hbond:LEU:81    0
Name: 39, dtype: object

>  <halogenbond:LEU:81>  (40) 
halogenbond:LEU:81    0
halogenbond:LEU:81    0
Name: 39, dtype: object

>  <hydroph_interaction:LEU:81>  (40) 
hydroph_interaction:LEU:81    0
hydroph_interaction:LEU:81    0
Name: 39, dtype: object

>  <hydroph_interaction:ILE:82>  (40) 
hydroph_interaction:ILE:82    0
hydroph_interaction:ILE:82    0
Name: 39, dtype: object

>  <hbond:ILE:82>  (40) 
hbond:ILE:82    0
hbond:ILE:82    0
Name: 39, dtype: object

>  <hydroph_interaction:PHE:83>  (40) 
hydroph_interaction:PHE:83    0
hydroph_interaction:PHE:83    0
Name: 39, dtype: object

>  <hbond:PHE:83>  (40) 
hbond:PHE:83    0
hbond:PHE:83    0
Name: 39, dtype: object

>  <halogenbond:PHE:83>  (40) 
halogenbond:PHE:83    0
halogenbond:PHE:83    0
Name: 39, dtype: object

>  <pistack:PHE:83>  (40) 
pistack:PHE:83    0
pistack:PHE:83    0
Name: 39, dtype: object

>  <hydroph_interaction:VAL:84>  (40) 
hydroph_interaction:VAL:84    0
hydroph_interaction:VAL:84    0
Name: 39, dtype: object

>  <hbond:VAL:84>  (40) 
hbond:VAL:84    0
hbond:VAL:84    0
Name: 39, dtype: object

>  <halogenbond:VAL:84>  (40) 
halogenbond:VAL:84    0
halogenbond:VAL:84    0
Name: 39, dtype: object

>  <hydroph_interaction:GLU:85>  (40) 
hydroph_interaction:GLU:85    0
hydroph_interaction:GLU:85    0
Name: 39, dtype: object

>  <hbond:GLU:85>  (40) 
hbond:GLU:85    0
hbond:GLU:85    0
Name: 39, dtype: object

>  <saltbridge:GLU:85>  (40) 
saltbridge:GLU:85    0
saltbridge:GLU:85    0
Name: 39, dtype: object

>  <halogenbond:GLU:85>  (40) 
halogenbond:GLU:85    0
halogenbond:GLU:85    0
Name: 39, dtype: object

>  <hbond:ALA:86>  (40) 
hbond:ALA:86    0
hbond:ALA:86    0
Name: 39, dtype: object

>  <halogenbond:ALA:86>  (40) 
halogenbond:ALA:86    0
halogenbond:ALA:86    0
Name: 39, dtype: object

>  <hydroph_interaction:ALA:86>  (40) 
hydroph_interaction:ALA:86    0
hydroph_interaction:ALA:86    0
Name: 39, dtype: object

>  <hbond:SER:87>  (40) 
hbond:SER:87    1
hbond:SER:87    1
Name: 39, dtype: object

>  <halogenbond:SER:87>  (40) 
halogenbond:SER:87    1
halogenbond:SER:87    1
Name: 39, dtype: object

>  <hbond:GLU:88>  (40) 
hbond:GLU:88    0
hbond:GLU:88    0
Name: 39, dtype: object

>  <hydroph_interaction:GLU:88>  (40) 
hydroph_interaction:GLU:88    0
hydroph_interaction:GLU:88    0
Name: 39, dtype: object

>  <halogenbond:GLU:88>  (40) 
halogenbond:GLU:88    0
halogenbond:GLU:88    0
Name: 39, dtype: object

>  <saltbridge:GLU:88>  (40) 
saltbridge:GLU:88    0
saltbridge:GLU:88    0
Name: 39, dtype: object

>  <hydroph_interaction:TYR:89>  (40) 
hydroph_interaction:TYR:89    0
hydroph_interaction:TYR:89    0
Name: 39, dtype: object

>  <pistack:TYR:89>  (40) 
pistack:TYR:89    1
pistack:TYR:89    1
Name: 39, dtype: object

>  <hbond:TYR:89>  (40) 
hbond:TYR:89    0
hbond:TYR:89    0
Name: 39, dtype: object

>  <halogenbond:TYR:89>  (40) 
halogenbond:TYR:89    0
halogenbond:TYR:89    0
Name: 39, dtype: object

>  <hbond:TYR:90>  (40) 
hbond:TYR:90    0
hbond:TYR:90    0
Name: 39, dtype: object

>  <hydroph_interaction:TYR:90>  (40) 
hydroph_interaction:TYR:90    0
hydroph_interaction:TYR:90    0
Name: 39, dtype: object

>  <pistack:TYR:90>  (40) 
pistack:TYR:90    0
pistack:TYR:90    0
Name: 39, dtype: object

>  <halogenbond:TYR:90>  (40) 
halogenbond:TYR:90    0
halogenbond:TYR:90    0
Name: 39, dtype: object

>  <pication:TYR:90>  (40) 
pication:TYR:90    0
pication:TYR:90    0
Name: 39, dtype: object

>  <hydroph_interaction:PRO:91>  (40) 
hydroph_interaction:PRO:91    0
hydroph_interaction:PRO:91    0
Name: 39, dtype: object

>  <halogenbond:PRO:91>  (40) 
halogenbond:PRO:91    0
halogenbond:PRO:91    0
Name: 39, dtype: object

>  <hbond:PRO:91>  (40) 
hbond:PRO:91    0
hbond:PRO:91    0
Name: 39, dtype: object

>  <hydroph_interaction:ALA:92>  (40) 
hydroph_interaction:ALA:92    0
hydroph_interaction:ALA:92    0
Name: 39, dtype: object

>  <hbond:ARG:93>  (40) 
hbond:ARG:93    0
hbond:ARG:93    0
Name: 39, dtype: object

>  <pication:ARG:93>  (40) 
pication:ARG:93    0
pication:ARG:93    0
Name: 39, dtype: object

>  <saltbridge:ARG:93>  (40) 
saltbridge:ARG:93    0
saltbridge:ARG:93    0
Name: 39, dtype: object

>  <hydroph_interaction:ARG:93>  (40) 
hydroph_interaction:ARG:93    0
hydroph_interaction:ARG:93    0
Name: 39, dtype: object

>  <halogenbond:ARG:93>  (40) 
halogenbond:ARG:93    0
halogenbond:ARG:93    0
Name: 39, dtype: object

>  <hydroph_interaction:TYR:94>  (40) 
hydroph_interaction:TYR:94    0
hydroph_interaction:TYR:94    0
Name: 39, dtype: object

>  <hbond:TYR:94>  (40) 
hbond:TYR:94    0
hbond:TYR:94    0
Name: 39, dtype: object

>  <halogenbond:GLN:95>  (40) 
halogenbond:GLN:95    0
halogenbond:GLN:95    0
Name: 39, dtype: object

>  <hbond:GLN:95>  (40) 
hbond:GLN:95    0
hbond:GLN:95    0
Name: 39, dtype: object

>  <hydroph_interaction:GLN:95>  (40) 
hydroph_interaction:GLN:95    0
hydroph_interaction:GLN:95    0
Name: 39, dtype: object

>  <hbond:SER:96>  (40) 
hbond:SER:96    0
hbond:SER:96    0
Name: 39, dtype: object

>  <hydroph_interaction:LEU:98>  (40) 
hydroph_interaction:LEU:98    0
hydroph_interaction:LEU:98    0
Name: 39, dtype: object

>  <hbond:LEU:98>  (40) 
hbond:LEU:98    0
hbond:LEU:98    0
Name: 39, dtype: object

>  <hbond:MET:99>  (40) 
hbond:MET:99    0
hbond:MET:99    0
Name: 39, dtype: object

>  <hydroph_interaction:MET:99>  (40) 
hydroph_interaction:MET:99    0
hydroph_interaction:MET:99    0
Name: 39, dtype: object

>  <halogenbond:MET:99>  (40) 
halogenbond:MET:99    0
halogenbond:MET:99    0
Name: 39, dtype: object

>  <hydroph_interaction:LEU:100>  (40) 
hydroph_interaction:LEU:100    0
hydroph_interaction:LEU:100    0
Name: 39, dtype: object

>  <hbond:LEU:100>  (40) 
hbond:LEU:100    0
hbond:LEU:100    0
Name: 39, dtype: object

>  <hbond:ALA:101>  (40) 
hbond:ALA:101    0
hbond:ALA:101    0
Name: 39, dtype: object

>  <hydroph_interaction:ALA:101>  (40) 
hydroph_interaction:ALA:101    0
hydroph_interaction:ALA:101    0
Name: 39, dtype: object

>  <hydroph_interaction:VAL:102>  (40) 
hydroph_interaction:VAL:102    0
hydroph_interaction:VAL:102    0
Name: 39, dtype: object

>  <hbond:VAL:102>  (40) 
hbond:VAL:102    0
hbond:VAL:102    0
Name: 39, dtype: object

>  <hbond:GLY:103>  (40) 
hbond:GLY:103    0
hbond:GLY:103    0
Name: 39, dtype: object

>  <halogenbond:GLY:103>  (40) 
halogenbond:GLY:103    0
halogenbond:GLY:103    0
Name: 39, dtype: object

>  <hydroph_interaction:HIS:104>  (40) 
hydroph_interaction:HIS:104    0
hydroph_interaction:HIS:104    0
Name: 39, dtype: object

>  <hbond:HIS:104>  (40) 
hbond:HIS:104    0
hbond:HIS:104    0
Name: 39, dtype: object

>  <saltbridge:HIS:104>  (40) 
saltbridge:HIS:104    0
saltbridge:HIS:104    0
Name: 39, dtype: object

>  <pication:HIS:104>  (40) 
pication:HIS:104    0
pication:HIS:104    0
Name: 39, dtype: object

>  <pistack:HIS:104>  (40) 
pistack:HIS:104    0
pistack:HIS:104    0
Name: 39, dtype: object

>  <halogenbond:HIS:104>  (40) 
halogenbond:HIS:104    0
halogenbond:HIS:104    0
Name: 39, dtype: object

>  <hbond:SER:105>  (40) 
hbond:SER:105    0
hbond:SER:105    0
Name: 39, dtype: object

>  <halogenbond:SER:105>  (40) 
halogenbond:SER:105    0
halogenbond:SER:105    0
Name: 39, dtype: object

>  <hbond:GLU:106>  (40) 
hbond:GLU:106    0
hbond:GLU:106    0
Name: 39, dtype: object

>  <hydroph_interaction:GLU:106>  (40) 
hydroph_interaction:GLU:106    0
hydroph_interaction:GLU:106    0
Name: 39, dtype: object

>  <saltbridge:GLU:106>  (40) 
saltbridge:GLU:106    0
saltbridge:GLU:106    0
Name: 39, dtype: object

>  <halogenbond:GLU:106>  (40) 
halogenbond:GLU:106    0
halogenbond:GLU:106    0
Name: 39, dtype: object

>  <hydroph_interaction:PRO:107>  (40) 
hydroph_interaction:PRO:107    0
hydroph_interaction:PRO:107    0
Name: 39, dtype: object

>  <hbond:PRO:107>  (40) 
hbond:PRO:107    0
hbond:PRO:107    0
Name: 39, dtype: object

>  <halogenbond:PRO:107>  (40) 
halogenbond:PRO:107    0
halogenbond:PRO:107    0
Name: 39, dtype: object

>  <hbond:GLY:108>  (40) 
hbond:GLY:108    0
hbond:GLY:108    0
Name: 39, dtype: object

>  <halogenbond:GLY:108>  (40) 
halogenbond:GLY:108    0
halogenbond:GLY:108    0
Name: 39, dtype: object

>  <hbond:ASP:109>  (40) 
hbond:ASP:109    0
hbond:ASP:109    0
Name: 39, dtype: object

>  <hydroph_interaction:ASP:109>  (40) 
hydroph_interaction:ASP:109    0
hydroph_interaction:ASP:109    0
Name: 39, dtype: object

>  <saltbridge:ASP:109>  (40) 
saltbridge:ASP:109    0
saltbridge:ASP:109    0
Name: 39, dtype: object

>  <hbond:CYS:110>  (40) 
hbond:CYS:110    0
hbond:CYS:110    0
Name: 39, dtype: object

>  <halogenbond:CYS:110>  (40) 
halogenbond:CYS:110    0
halogenbond:CYS:110    0
Name: 39, dtype: object

>  <hbond:GLY:111>  (40) 
hbond:GLY:111    0
hbond:GLY:111    0
Name: 39, dtype: object

>  <hbond:GLY:112>  (40) 
hbond:GLY:112    0
hbond:GLY:112    0
Name: 39, dtype: object

>  <hbond:ILE:113>  (40) 
hbond:ILE:113    0
hbond:ILE:113    0
Name: 39, dtype: object

>  <hydroph_interaction:LEU:114>  (40) 
hydroph_interaction:LEU:114    0
hydroph_interaction:LEU:114    0
Name: 39, dtype: object

>  <hbond:LEU:114>  (40) 
hbond:LEU:114    0
hbond:LEU:114    0
Name: 39, dtype: object

>  <hydroph_interaction:ILE:123>  (40) 
hydroph_interaction:ILE:123    0
hydroph_interaction:ILE:123    0
Name: 39, dtype: object

>  <hbond:ILE:123>  (40) 
hbond:ILE:123    0
hbond:ILE:123    0
Name: 39, dtype: object

>  <hydroph_interaction:VAL:124>  (40) 
hydroph_interaction:VAL:124    0
hydroph_interaction:VAL:124    0
Name: 39, dtype: object

>  <hbond:VAL:124>  (40) 
hbond:VAL:124    0
hbond:VAL:124    0
Name: 39, dtype: object

>  <halogenbond:VAL:124>  (40) 
halogenbond:VAL:124    0
halogenbond:VAL:124    0
Name: 39, dtype: object

>  <hbond:SER:125>  (40) 
hbond:SER:125    0
hbond:SER:125    0
Name: 39, dtype: object

>  <halogenbond:SER:125>  (40) 
halogenbond:SER:125    0
halogenbond:SER:125    0
Name: 39, dtype: object

>  <hydroph_interaction:THR:126>  (40) 
hydroph_interaction:THR:126    0
hydroph_interaction:THR:126    0
Name: 39, dtype: object

>  <hbond:THR:126>  (40) 
hbond:THR:126    0
hbond:THR:126    0
Name: 39, dtype: object

>  <halogenbond:THR:126>  (40) 
halogenbond:THR:126    0
halogenbond:THR:126    0
Name: 39, dtype: object

>  <hbond:GLY:127>  (40) 
hbond:GLY:127    0
hbond:GLY:127    0
Name: 39, dtype: object

>  <halogenbond:GLY:127>  (40) 
halogenbond:GLY:127    0
halogenbond:GLY:127    0
Name: 39, dtype: object

>  <hydroph_interaction:GLY:127>  (40) 
hydroph_interaction:GLY:127    0
hydroph_interaction:GLY:127    0
Name: 39, dtype: object

>  <hbond:GLY:128>  (40) 
hbond:GLY:128    0
hbond:GLY:128    0
Name: 39, dtype: object

>  <halogenbond:GLY:128>  (40) 
halogenbond:GLY:128    0
halogenbond:GLY:128    0
Name: 39, dtype: object

>  <hydroph_interaction:GLY:128>  (40) 
hydroph_interaction:GLY:128    0
hydroph_interaction:GLY:128    0
Name: 39, dtype: object

>  <hbond:ASN:129>  (40) 
hbond:ASN:129    0
hbond:ASN:129    0
Name: 39, dtype: object

>  <hydroph_interaction:ASN:129>  (40) 
hydroph_interaction:ASN:129    0
hydroph_interaction:ASN:129    0
Name: 39, dtype: object

>  <halogenbond:ASN:129>  (40) 
halogenbond:ASN:129    0
halogenbond:ASN:129    0
Name: 39, dtype: object

>  <hbond:GLY:130>  (40) 
hbond:GLY:130    0
hbond:GLY:130    0
Name: 39, dtype: object

>  <hydroph_interaction:LEU:131>  (40) 
hydroph_interaction:LEU:131    0
hydroph_interaction:LEU:131    0
Name: 39, dtype: object

>  <hbond:LEU:131>  (40) 
hbond:LEU:131    0
hbond:LEU:131    0
Name: 39, dtype: object

>  <halogenbond:LEU:131>  (40) 
halogenbond:LEU:131    0
halogenbond:LEU:131    0
Name: 39, dtype: object

>  <hydroph_interaction:VAL:132>  (40) 
hydroph_interaction:VAL:132    0
hydroph_interaction:VAL:132    0
Name: 39, dtype: object

>  <hbond:VAL:132>  (40) 
hbond:VAL:132    0
hbond:VAL:132    0
Name: 39, dtype: object

>  <hbond:GLY:133>  (40) 
hbond:GLY:133    0
hbond:GLY:133    0
Name: 39, dtype: object

>  <halogenbond:GLY:133>  (40) 
halogenbond:GLY:133    0
halogenbond:GLY:133    0
Name: 39, dtype: object

>  <hydroph_interaction:PHE:134>  (40) 
hydroph_interaction:PHE:134    0
hydroph_interaction:PHE:134    0
Name: 39, dtype: object

>  <hbond:PHE:134>  (40) 
hbond:PHE:134    0
hbond:PHE:134    0
Name: 39, dtype: object

>  <pistack:PHE:134>  (40) 
pistack:PHE:134    0
pistack:PHE:134    0
Name: 39, dtype: object

>  <pication:PHE:134>  (40) 
pication:PHE:134    0
pication:PHE:134    0
Name: 39, dtype: object

>  <hydroph_interaction:ALA:135>  (40) 
hydroph_interaction:ALA:135    0
hydroph_interaction:ALA:135    0
Name: 39, dtype: object

>  <hbond:ALA:135>  (40) 
hbond:ALA:135    0
hbond:ALA:135    0
Name: 39, dtype: object

$$$$
Z1533092983
     RDKit          3D

 25 25  0  0  0  0  0  0  0  0999 V2000
    9.1230   16.9080   18.4490 C   0  0  0  0  0  0  0  0  0  0  0  0
    9.5830   16.1130   19.2200 C   0  0  0  0  0  0  0  0  0  0  0  0
   10.1400   15.1340   20.1720 C   0  0  0  0  0  0  0  0  0  0  0  0
    9.0840   14.6350   21.1720 C   0  0  0  0  0  0  0  0  0  0  0  0
    9.7180   14.1530   22.4300 N   0  0  0  0  0  0  0  0  0  0  0  0
    9.3780   12.9130   23.0610 C   0  0  0  0  0  0  0  0  0  0  0  0
    8.3130   12.8250   23.9990 C   0  0  0  0  0  0  0  0  0  0  0  0
    7.4050   14.2600   24.3730 Cl  0  0  0  0  0  0  0  0  0  0  0  0
    7.9770   11.6030   24.6280 C   0  0  0  0  0  0  0  0  0  0  0  0
    6.8640   11.4840   25.6280 C   0  0  0  0  0  0  0  0  0  0  0  0
    8.7060   10.4600   24.3080 C   0  0  0  0  0  0  0  0  0  0  0  0
    9.7500   10.5190   23.3990 C   0  0  0  0  0  0  0  0  0  0  0  0
   10.0780   11.7300   22.7940 C   0  0  0  0  0  0  0  0  0  0  0  0
    8.7060   17.6170   17.7710 H   0  0  0  0  0  0  0  0  0  0  0  0
   10.5730   14.2920   19.6210 H   0  0  0  0  0  0  0  0  0  0  0  0
   10.9560   15.6080   20.7300 H   0  0  0  0  0  0  0  0  0  0  0  0
    8.4990   13.8850   20.6980 H   0  0  0  0  0  0  0  0  0  0  0  0
    8.3700   15.4160   21.3520 H   0  0  0  0  0  0  0  0  0  0  0  0
   10.7390   14.2260   22.3910 H   0  0  0  0  0  0  0  0  0  0  0  0
    6.0010   12.0790   25.3180 H   0  0  0  0  0  0  0  0  0  0  0  0
    6.5270   10.4460   25.7300 H   0  0  0  0  0  0  0  0  0  0  0  0
    7.1950   11.8150   26.6140 H   0  0  0  0  0  0  0  0  0  0  0  0
    8.4660    9.5090   24.7690 H   0  0  0  0  0  0  0  0  0  0  0  0
   10.3160    9.6210   23.1580 H   0  0  0  0  0  0  0  0  0  0  0  0
   10.9000   11.7290   22.1010 H   0  0  0  0  0  0  0  0  0  0  0  0
  1  2  3  0
  2  3  1  0
  3  4  1  0
  4  5  1  0
  5  6  1  0
  6  7  2  0
  7  8  1  0
  7  9  1  0
  9 10  1  0
  9 11  2  0
 11 12  1  0
 12 13  2  0
 13  6  1  0
  1 14  1  0
  3 15  1  0
  3 16  1  0
  4 17  1  0
  4 18  1  0
  5 19  1  0
 10 20  1  0
 10 21  1  0
 10 22  1  0
 11 23  1  0
 12 24  1  0
 13 25  1  0
A    1
 C1 
A    2
 C2 
A    3
 C3 
A    4
 C4 
A    5
 N1 
A    6
 C5 
A    7
 C6 
A    8
CL1 
A    9
 C7 
A   10
 C8 
A   11
 C9 
A   12
 C10
A   13
 C11
A   14
 H1 
A   15
 H2 
A   16
 H3 
A   17
 H4 
A   18
 H5 
A   19
 H6 
A   20
 H7 
A   21
 H8 
A   22
 H9 
A   23
 H10
A   24
 H11
A   25
 H12
M  END
>  <ref_pdb>  (41) 
x0310_0A

>  <ref_mols>  (41) 
x0554_0A,x0732_0A

>  <original SMILES>  (41) 
C#CCCNc1cccc(C)c1Cl

>  <rationale>  (41) 
info hbond:S87; hydroph_interaction:Y90+T126+V84; 

>  <intxn_cluster>  (41) 
206

>  <intxn_cluster_rank>  (41) 
8

>  <N_interactions>  (41) 
6

>  <∆∆G>  (41) 
-7.411645

>  <$/mg>  (41) 
0.0

>  <comRMSD>  (41) 
0.535208

>  <N_rotatable_bonds>  (41) 
4

>  <N_analogues_07>  (41) 
0

>  <deep_P1_sidechain>  (41) 
False

>  <farthest_distance_to_substrate>  (41) 
2.151686

>  <hbond:SER:7>  (41) 
hbond:SER:7    0
hbond:SER:7    0
Name: 40, dtype: object

>  <halogenbond:SER:7>  (41) 
halogenbond:SER:7    0
halogenbond:SER:7    0
Name: 40, dtype: object

>  <hbond:GLY:8>  (41) 
hbond:GLY:8    0
hbond:GLY:8    0
Name: 40, dtype: object

>  <hydroph_interaction:ASN:19>  (41) 
hydroph_interaction:ASN:19    0
hydroph_interaction:ASN:19    0
Name: 40, dtype: object

>  <hbond:ASN:19>  (41) 
hbond:ASN:19    0
hbond:ASN:19    0
Name: 40, dtype: object

>  <halogenbond:ASN:19>  (41) 
halogenbond:ASN:19    0
halogenbond:ASN:19    0
Name: 40, dtype: object

>  <hbond:ARG:20>  (41) 
hbond:ARG:20    0
hbond:ARG:20    0
Name: 40, dtype: object

>  <hydroph_interaction:ARG:20>  (41) 
hydroph_interaction:ARG:20    0
hydroph_interaction:ARG:20    0
Name: 40, dtype: object

>  <saltbridge:ARG:20>  (41) 
saltbridge:ARG:20    0
saltbridge:ARG:20    0
Name: 40, dtype: object

>  <halogenbond:ARG:20>  (41) 
halogenbond:ARG:20    0
halogenbond:ARG:20    0
Name: 40, dtype: object

>  <pication:ARG:20>  (41) 
pication:ARG:20    0
pication:ARG:20    0
Name: 40, dtype: object

>  <hbond:HIS:21>  (41) 
hbond:HIS:21    0
hbond:HIS:21    0
Name: 40, dtype: object

>  <hydroph_interaction:HIS:21>  (41) 
hydroph_interaction:HIS:21    0
hydroph_interaction:HIS:21    0
Name: 40, dtype: object

>  <saltbridge:HIS:21>  (41) 
saltbridge:HIS:21    0
saltbridge:HIS:21    0
Name: 40, dtype: object

>  <pistack:HIS:21>  (41) 
pistack:HIS:21    0
pistack:HIS:21    0
Name: 40, dtype: object

>  <pication:HIS:21>  (41) 
pication:HIS:21    0
pication:HIS:21    0
Name: 40, dtype: object

>  <halogenbond:HIS:21>  (41) 
halogenbond:HIS:21    0
halogenbond:HIS:21    0
Name: 40, dtype: object

>  <hydroph_interaction:LEU:22>  (41) 
hydroph_interaction:LEU:22    0
hydroph_interaction:LEU:22    0
Name: 40, dtype: object

>  <hbond:LEU:22>  (41) 
hbond:LEU:22    0
hbond:LEU:22    0
Name: 40, dtype: object

>  <hydroph_interaction:TRP:28>  (41) 
hydroph_interaction:TRP:28    0
hydroph_interaction:TRP:28    0
Name: 40, dtype: object

>  <hbond:SER:36>  (41) 
hbond:SER:36    0
hbond:SER:36    0
Name: 40, dtype: object

>  <halogenbond:SER:36>  (41) 
halogenbond:SER:36    0
halogenbond:SER:36    0
Name: 40, dtype: object

>  <hbond:ARG:38>  (41) 
hbond:ARG:38    0
hbond:ARG:38    0
Name: 40, dtype: object

>  <halogenbond:ARG:38>  (41) 
halogenbond:ARG:38    0
halogenbond:ARG:38    0
Name: 40, dtype: object

>  <hbond:ASP:39>  (41) 
hbond:ASP:39    0
hbond:ASP:39    0
Name: 40, dtype: object

>  <saltbridge:ASP:39>  (41) 
saltbridge:ASP:39    0
saltbridge:ASP:39    0
Name: 40, dtype: object

>  <hydroph_interaction:ASP:39>  (41) 
hydroph_interaction:ASP:39    0
hydroph_interaction:ASP:39    0
Name: 40, dtype: object

>  <halogenbond:ASP:39>  (41) 
halogenbond:ASP:39    0
halogenbond:ASP:39    0
Name: 40, dtype: object

>  <hydroph_interaction:LEU:40>  (41) 
hydroph_interaction:LEU:40    0
hydroph_interaction:LEU:40    0
Name: 40, dtype: object

>  <hydroph_interaction:TYR:63>  (41) 
hydroph_interaction:TYR:63    0
hydroph_interaction:TYR:63    0
Name: 40, dtype: object

>  <pistack:TYR:63>  (41) 
pistack:TYR:63    0
pistack:TYR:63    0
Name: 40, dtype: object

>  <hbond:TYR:63>  (41) 
hbond:TYR:63    0
hbond:TYR:63    0
Name: 40, dtype: object

>  <hbond:TYR:64>  (41) 
hbond:TYR:64    0
hbond:TYR:64    0
Name: 40, dtype: object

>  <halogenbond:TYR:64>  (41) 
halogenbond:TYR:64    0
halogenbond:TYR:64    0
Name: 40, dtype: object

>  <hydroph_interaction:TYR:64>  (41) 
hydroph_interaction:TYR:64    0
hydroph_interaction:TYR:64    0
Name: 40, dtype: object

>  <hbond:CYS:65>  (41) 
hbond:CYS:65    0
hbond:CYS:65    0
Name: 40, dtype: object

>  <halogenbond:CYS:65>  (41) 
halogenbond:CYS:65    0
halogenbond:CYS:65    0
Name: 40, dtype: object

>  <hbond:SER:66>  (41) 
hbond:SER:66    0
hbond:SER:66    0
Name: 40, dtype: object

>  <hbond:SER:67>  (41) 
hbond:SER:67    0
hbond:SER:67    0
Name: 40, dtype: object

>  <halogenbond:SER:67>  (41) 
halogenbond:SER:67    0
halogenbond:SER:67    0
Name: 40, dtype: object

>  <hydroph_interaction:ARG:68>  (41) 
hydroph_interaction:ARG:68    0
hydroph_interaction:ARG:68    0
Name: 40, dtype: object

>  <hbond:ARG:68>  (41) 
hbond:ARG:68    0
hbond:ARG:68    0
Name: 40, dtype: object

>  <saltbridge:ARG:68>  (41) 
saltbridge:ARG:68    0
saltbridge:ARG:68    0
Name: 40, dtype: object

>  <pication:ARG:68>  (41) 
pication:ARG:68    0
pication:ARG:68    0
Name: 40, dtype: object

>  <hydroph_interaction:TYR:72>  (41) 
hydroph_interaction:TYR:72    0
hydroph_interaction:TYR:72    0
Name: 40, dtype: object

>  <hydroph_interaction:VAL:74>  (41) 
hydroph_interaction:VAL:74    0
hydroph_interaction:VAL:74    0
Name: 40, dtype: object

>  <hydroph_interaction:PHE:76>  (41) 
hydroph_interaction:PHE:76    0
hydroph_interaction:PHE:76    0
Name: 40, dtype: object

>  <hbond:SER:77>  (41) 
hbond:SER:77    0
hbond:SER:77    0
Name: 40, dtype: object

>  <hbond:SER:80>  (41) 
hbond:SER:80    0
hbond:SER:80    0
Name: 40, dtype: object

>  <hbond:LEU:81>  (41) 
hbond:LEU:81    0
hbond:LEU:81    0
Name: 40, dtype: object

>  <halogenbond:LEU:81>  (41) 
halogenbond:LEU:81    0
halogenbond:LEU:81    0
Name: 40, dtype: object

>  <hydroph_interaction:LEU:81>  (41) 
hydroph_interaction:LEU:81    0
hydroph_interaction:LEU:81    0
Name: 40, dtype: object

>  <hydroph_interaction:ILE:82>  (41) 
hydroph_interaction:ILE:82    0
hydroph_interaction:ILE:82    0
Name: 40, dtype: object

>  <hbond:ILE:82>  (41) 
hbond:ILE:82    0
hbond:ILE:82    0
Name: 40, dtype: object

>  <hydroph_interaction:PHE:83>  (41) 
hydroph_interaction:PHE:83    0
hydroph_interaction:PHE:83    0
Name: 40, dtype: object

>  <hbond:PHE:83>  (41) 
hbond:PHE:83    0
hbond:PHE:83    0
Name: 40, dtype: object

>  <halogenbond:PHE:83>  (41) 
halogenbond:PHE:83    0
halogenbond:PHE:83    0
Name: 40, dtype: object

>  <pistack:PHE:83>  (41) 
pistack:PHE:83    0
pistack:PHE:83    0
Name: 40, dtype: object

>  <hydroph_interaction:VAL:84>  (41) 
hydroph_interaction:VAL:84    1
hydroph_interaction:VAL:84    1
Name: 40, dtype: object

>  <hbond:VAL:84>  (41) 
hbond:VAL:84    0
hbond:VAL:84    0
Name: 40, dtype: object

>  <halogenbond:VAL:84>  (41) 
halogenbond:VAL:84    0
halogenbond:VAL:84    0
Name: 40, dtype: object

>  <hydroph_interaction:GLU:85>  (41) 
hydroph_interaction:GLU:85    0
hydroph_interaction:GLU:85    0
Name: 40, dtype: object

>  <hbond:GLU:85>  (41) 
hbond:GLU:85    0
hbond:GLU:85    0
Name: 40, dtype: object

>  <saltbridge:GLU:85>  (41) 
saltbridge:GLU:85    0
saltbridge:GLU:85    0
Name: 40, dtype: object

>  <halogenbond:GLU:85>  (41) 
halogenbond:GLU:85    0
halogenbond:GLU:85    0
Name: 40, dtype: object

>  <hbond:ALA:86>  (41) 
hbond:ALA:86    0
hbond:ALA:86    0
Name: 40, dtype: object

>  <halogenbond:ALA:86>  (41) 
halogenbond:ALA:86    0
halogenbond:ALA:86    0
Name: 40, dtype: object

>  <hydroph_interaction:ALA:86>  (41) 
hydroph_interaction:ALA:86    0
hydroph_interaction:ALA:86    0
Name: 40, dtype: object

>  <hbond:SER:87>  (41) 
hbond:SER:87    2
hbond:SER:87    2
Name: 40, dtype: object

>  <halogenbond:SER:87>  (41) 
halogenbond:SER:87    0
halogenbond:SER:87    0
Name: 40, dtype: object

>  <hbond:GLU:88>  (41) 
hbond:GLU:88    0
hbond:GLU:88    0
Name: 40, dtype: object

>  <hydroph_interaction:GLU:88>  (41) 
hydroph_interaction:GLU:88    0
hydroph_interaction:GLU:88    0
Name: 40, dtype: object

>  <halogenbond:GLU:88>  (41) 
halogenbond:GLU:88    0
halogenbond:GLU:88    0
Name: 40, dtype: object

>  <saltbridge:GLU:88>  (41) 
saltbridge:GLU:88    0
saltbridge:GLU:88    0
Name: 40, dtype: object

>  <hydroph_interaction:TYR:89>  (41) 
hydroph_interaction:TYR:89    0
hydroph_interaction:TYR:89    0
Name: 40, dtype: object

>  <pistack:TYR:89>  (41) 
pistack:TYR:89    0
pistack:TYR:89    0
Name: 40, dtype: object

>  <hbond:TYR:89>  (41) 
hbond:TYR:89    0
hbond:TYR:89    0
Name: 40, dtype: object

>  <halogenbond:TYR:89>  (41) 
halogenbond:TYR:89    0
halogenbond:TYR:89    0
Name: 40, dtype: object

>  <hbond:TYR:90>  (41) 
hbond:TYR:90    0
hbond:TYR:90    0
Name: 40, dtype: object

>  <hydroph_interaction:TYR:90>  (41) 
hydroph_interaction:TYR:90    2
hydroph_interaction:TYR:90    2
Name: 40, dtype: object

>  <pistack:TYR:90>  (41) 
pistack:TYR:90    0
pistack:TYR:90    0
Name: 40, dtype: object

>  <halogenbond:TYR:90>  (41) 
halogenbond:TYR:90    0
halogenbond:TYR:90    0
Name: 40, dtype: object

>  <pication:TYR:90>  (41) 
pication:TYR:90    0
pication:TYR:90    0
Name: 40, dtype: object

>  <hydroph_interaction:PRO:91>  (41) 
hydroph_interaction:PRO:91    0
hydroph_interaction:PRO:91    0
Name: 40, dtype: object

>  <halogenbond:PRO:91>  (41) 
halogenbond:PRO:91    0
halogenbond:PRO:91    0
Name: 40, dtype: object

>  <hbond:PRO:91>  (41) 
hbond:PRO:91    0
hbond:PRO:91    0
Name: 40, dtype: object

>  <hydroph_interaction:ALA:92>  (41) 
hydroph_interaction:ALA:92    0
hydroph_interaction:ALA:92    0
Name: 40, dtype: object

>  <hbond:ARG:93>  (41) 
hbond:ARG:93    0
hbond:ARG:93    0
Name: 40, dtype: object

>  <pication:ARG:93>  (41) 
pication:ARG:93    0
pication:ARG:93    0
Name: 40, dtype: object

>  <saltbridge:ARG:93>  (41) 
saltbridge:ARG:93    0
saltbridge:ARG:93    0
Name: 40, dtype: object

>  <hydroph_interaction:ARG:93>  (41) 
hydroph_interaction:ARG:93    0
hydroph_interaction:ARG:93    0
Name: 40, dtype: object

>  <halogenbond:ARG:93>  (41) 
halogenbond:ARG:93    0
halogenbond:ARG:93    0
Name: 40, dtype: object

>  <hydroph_interaction:TYR:94>  (41) 
hydroph_interaction:TYR:94    0
hydroph_interaction:TYR:94    0
Name: 40, dtype: object

>  <hbond:TYR:94>  (41) 
hbond:TYR:94    0
hbond:TYR:94    0
Name: 40, dtype: object

>  <halogenbond:GLN:95>  (41) 
halogenbond:GLN:95    0
halogenbond:GLN:95    0
Name: 40, dtype: object

>  <hbond:GLN:95>  (41) 
hbond:GLN:95    0
hbond:GLN:95    0
Name: 40, dtype: object

>  <hydroph_interaction:GLN:95>  (41) 
hydroph_interaction:GLN:95    0
hydroph_interaction:GLN:95    0
Name: 40, dtype: object

>  <hbond:SER:96>  (41) 
hbond:SER:96    0
hbond:SER:96    0
Name: 40, dtype: object

>  <hydroph_interaction:LEU:98>  (41) 
hydroph_interaction:LEU:98    0
hydroph_interaction:LEU:98    0
Name: 40, dtype: object

>  <hbond:LEU:98>  (41) 
hbond:LEU:98    0
hbond:LEU:98    0
Name: 40, dtype: object

>  <hbond:MET:99>  (41) 
hbond:MET:99    0
hbond:MET:99    0
Name: 40, dtype: object

>  <hydroph_interaction:MET:99>  (41) 
hydroph_interaction:MET:99    0
hydroph_interaction:MET:99    0
Name: 40, dtype: object

>  <halogenbond:MET:99>  (41) 
halogenbond:MET:99    0
halogenbond:MET:99    0
Name: 40, dtype: object

>  <hydroph_interaction:LEU:100>  (41) 
hydroph_interaction:LEU:100    0
hydroph_interaction:LEU:100    0
Name: 40, dtype: object

>  <hbond:LEU:100>  (41) 
hbond:LEU:100    0
hbond:LEU:100    0
Name: 40, dtype: object

>  <hbond:ALA:101>  (41) 
hbond:ALA:101    0
hbond:ALA:101    0
Name: 40, dtype: object

>  <hydroph_interaction:ALA:101>  (41) 
hydroph_interaction:ALA:101    0
hydroph_interaction:ALA:101    0
Name: 40, dtype: object

>  <hydroph_interaction:VAL:102>  (41) 
hydroph_interaction:VAL:102    0
hydroph_interaction:VAL:102    0
Name: 40, dtype: object

>  <hbond:VAL:102>  (41) 
hbond:VAL:102    0
hbond:VAL:102    0
Name: 40, dtype: object

>  <hbond:GLY:103>  (41) 
hbond:GLY:103    0
hbond:GLY:103    0
Name: 40, dtype: object

>  <halogenbond:GLY:103>  (41) 
halogenbond:GLY:103    0
halogenbond:GLY:103    0
Name: 40, dtype: object

>  <hydroph_interaction:HIS:104>  (41) 
hydroph_interaction:HIS:104    0
hydroph_interaction:HIS:104    0
Name: 40, dtype: object

>  <hbond:HIS:104>  (41) 
hbond:HIS:104    0
hbond:HIS:104    0
Name: 40, dtype: object

>  <saltbridge:HIS:104>  (41) 
saltbridge:HIS:104    0
saltbridge:HIS:104    0
Name: 40, dtype: object

>  <pication:HIS:104>  (41) 
pication:HIS:104    0
pication:HIS:104    0
Name: 40, dtype: object

>  <pistack:HIS:104>  (41) 
pistack:HIS:104    0
pistack:HIS:104    0
Name: 40, dtype: object

>  <halogenbond:HIS:104>  (41) 
halogenbond:HIS:104    0
halogenbond:HIS:104    0
Name: 40, dtype: object

>  <hbond:SER:105>  (41) 
hbond:SER:105    0
hbond:SER:105    0
Name: 40, dtype: object

>  <halogenbond:SER:105>  (41) 
halogenbond:SER:105    0
halogenbond:SER:105    0
Name: 40, dtype: object

>  <hbond:GLU:106>  (41) 
hbond:GLU:106    0
hbond:GLU:106    0
Name: 40, dtype: object

>  <hydroph_interaction:GLU:106>  (41) 
hydroph_interaction:GLU:106    0
hydroph_interaction:GLU:106    0
Name: 40, dtype: object

>  <saltbridge:GLU:106>  (41) 
saltbridge:GLU:106    0
saltbridge:GLU:106    0
Name: 40, dtype: object

>  <halogenbond:GLU:106>  (41) 
halogenbond:GLU:106    0
halogenbond:GLU:106    0
Name: 40, dtype: object

>  <hydroph_interaction:PRO:107>  (41) 
hydroph_interaction:PRO:107    0
hydroph_interaction:PRO:107    0
Name: 40, dtype: object

>  <hbond:PRO:107>  (41) 
hbond:PRO:107    0
hbond:PRO:107    0
Name: 40, dtype: object

>  <halogenbond:PRO:107>  (41) 
halogenbond:PRO:107    0
halogenbond:PRO:107    0
Name: 40, dtype: object

>  <hbond:GLY:108>  (41) 
hbond:GLY:108    0
hbond:GLY:108    0
Name: 40, dtype: object

>  <halogenbond:GLY:108>  (41) 
halogenbond:GLY:108    0
halogenbond:GLY:108    0
Name: 40, dtype: object

>  <hbond:ASP:109>  (41) 
hbond:ASP:109    0
hbond:ASP:109    0
Name: 40, dtype: object

>  <hydroph_interaction:ASP:109>  (41) 
hydroph_interaction:ASP:109    0
hydroph_interaction:ASP:109    0
Name: 40, dtype: object

>  <saltbridge:ASP:109>  (41) 
saltbridge:ASP:109    0
saltbridge:ASP:109    0
Name: 40, dtype: object

>  <hbond:CYS:110>  (41) 
hbond:CYS:110    0
hbond:CYS:110    0
Name: 40, dtype: object

>  <halogenbond:CYS:110>  (41) 
halogenbond:CYS:110    0
halogenbond:CYS:110    0
Name: 40, dtype: object

>  <hbond:GLY:111>  (41) 
hbond:GLY:111    0
hbond:GLY:111    0
Name: 40, dtype: object

>  <hbond:GLY:112>  (41) 
hbond:GLY:112    0
hbond:GLY:112    0
Name: 40, dtype: object

>  <hbond:ILE:113>  (41) 
hbond:ILE:113    0
hbond:ILE:113    0
Name: 40, dtype: object

>  <hydroph_interaction:LEU:114>  (41) 
hydroph_interaction:LEU:114    0
hydroph_interaction:LEU:114    0
Name: 40, dtype: object

>  <hbond:LEU:114>  (41) 
hbond:LEU:114    0
hbond:LEU:114    0
Name: 40, dtype: object

>  <hydroph_interaction:ILE:123>  (41) 
hydroph_interaction:ILE:123    0
hydroph_interaction:ILE:123    0
Name: 40, dtype: object

>  <hbond:ILE:123>  (41) 
hbond:ILE:123    0
hbond:ILE:123    0
Name: 40, dtype: object

>  <hydroph_interaction:VAL:124>  (41) 
hydroph_interaction:VAL:124    0
hydroph_interaction:VAL:124    0
Name: 40, dtype: object

>  <hbond:VAL:124>  (41) 
hbond:VAL:124    0
hbond:VAL:124    0
Name: 40, dtype: object

>  <halogenbond:VAL:124>  (41) 
halogenbond:VAL:124    0
halogenbond:VAL:124    0
Name: 40, dtype: object

>  <hbond:SER:125>  (41) 
hbond:SER:125    0
hbond:SER:125    0
Name: 40, dtype: object

>  <halogenbond:SER:125>  (41) 
halogenbond:SER:125    0
halogenbond:SER:125    0
Name: 40, dtype: object

>  <hydroph_interaction:THR:126>  (41) 
hydroph_interaction:THR:126    1
hydroph_interaction:THR:126    1
Name: 40, dtype: object

>  <hbond:THR:126>  (41) 
hbond:THR:126    0
hbond:THR:126    0
Name: 40, dtype: object

>  <halogenbond:THR:126>  (41) 
halogenbond:THR:126    0
halogenbond:THR:126    0
Name: 40, dtype: object

>  <hbond:GLY:127>  (41) 
hbond:GLY:127    0
hbond:GLY:127    0
Name: 40, dtype: object

>  <halogenbond:GLY:127>  (41) 
halogenbond:GLY:127    0
halogenbond:GLY:127    0
Name: 40, dtype: object

>  <hydroph_interaction:GLY:127>  (41) 
hydroph_interaction:GLY:127    0
hydroph_interaction:GLY:127    0
Name: 40, dtype: object

>  <hbond:GLY:128>  (41) 
hbond:GLY:128    0
hbond:GLY:128    0
Name: 40, dtype: object

>  <halogenbond:GLY:128>  (41) 
halogenbond:GLY:128    0
halogenbond:GLY:128    0
Name: 40, dtype: object

>  <hydroph_interaction:GLY:128>  (41) 
hydroph_interaction:GLY:128    0
hydroph_interaction:GLY:128    0
Name: 40, dtype: object

>  <hbond:ASN:129>  (41) 
hbond:ASN:129    0
hbond:ASN:129    0
Name: 40, dtype: object

>  <hydroph_interaction:ASN:129>  (41) 
hydroph_interaction:ASN:129    0
hydroph_interaction:ASN:129    0
Name: 40, dtype: object

>  <halogenbond:ASN:129>  (41) 
halogenbond:ASN:129    0
halogenbond:ASN:129    0
Name: 40, dtype: object

>  <hbond:GLY:130>  (41) 
hbond:GLY:130    0
hbond:GLY:130    0
Name: 40, dtype: object

>  <hydroph_interaction:LEU:131>  (41) 
hydroph_interaction:LEU:131    0
hydroph_interaction:LEU:131    0
Name: 40, dtype: object

>  <hbond:LEU:131>  (41) 
hbond:LEU:131    0
hbond:LEU:131    0
Name: 40, dtype: object

>  <halogenbond:LEU:131>  (41) 
halogenbond:LEU:131    0
halogenbond:LEU:131    0
Name: 40, dtype: object

>  <hydroph_interaction:VAL:132>  (41) 
hydroph_interaction:VAL:132    0
hydroph_interaction:VAL:132    0
Name: 40, dtype: object

>  <hbond:VAL:132>  (41) 
hbond:VAL:132    0
hbond:VAL:132    0
Name: 40, dtype: object

>  <hbond:GLY:133>  (41) 
hbond:GLY:133    0
hbond:GLY:133    0
Name: 40, dtype: object

>  <halogenbond:GLY:133>  (41) 
halogenbond:GLY:133    0
halogenbond:GLY:133    0
Name: 40, dtype: object

>  <hydroph_interaction:PHE:134>  (41) 
hydroph_interaction:PHE:134    0
hydroph_interaction:PHE:134    0
Name: 40, dtype: object

>  <hbond:PHE:134>  (41) 
hbond:PHE:134    0
hbond:PHE:134    0
Name: 40, dtype: object

>  <pistack:PHE:134>  (41) 
pistack:PHE:134    0
pistack:PHE:134    0
Name: 40, dtype: object

>  <pication:PHE:134>  (41) 
pication:PHE:134    0
pication:PHE:134    0
Name: 40, dtype: object

>  <hydroph_interaction:ALA:135>  (41) 
hydroph_interaction:ALA:135    0
hydroph_interaction:ALA:135    0
Name: 40, dtype: object

>  <hbond:ALA:135>  (41) 
hbond:ALA:135    0
hbond:ALA:135    0
Name: 40, dtype: object

$$$$
Z4031394680
     RDKit          3D

 49 50  0  0  0  0  0  0  0  0999 V2000
   17.4260   19.8270   19.5800 C   0  0  0  0  0  0  0  0  0  0  0  0
   17.2240   19.0450   18.2680 C   0  0  0  0  0  0  0  0  0  0  0  0
   15.6380   19.1740   17.4720 S   0  0  0  0  0  6  0  0  0  0  0  0
   15.3980   20.5780   17.2410 O   0  0  0  0  0  0  0  0  0  0  0  0
   15.6290   18.2300   16.3820 O   0  0  0  0  0  0  0  0  0  0  0  0
   14.5590   18.5590   18.6210 N   0  0  0  0  0  0  0  0  0  0  0  0
   13.8660   17.2810   18.3250 C   0  0  0  0  0  0  0  0  0  0  0  0
   13.7060   16.4330   19.5490 C   0  0  0  0  0  0  0  0  0  0  0  0
   12.2740   16.1870   20.0790 C   0  0  0  0  0  0  0  0  0  0  0  0
   12.2330   15.1940   21.0530 N   0  0  0  0  0  0  0  0  0  0  0  0
   13.0650   15.4440   22.2090 C   0  0  0  0  0  0  0  0  0  0  0  0
   13.0240   14.3490   23.2570 C   0  0  0  0  0  0  0  0  0  0  0  0
   12.0320   13.3490   22.9710 N   0  0  0  0  0  0  0  0  0  0  0  0
   10.7650   14.0350   22.9120 C   0  0  2  0  0  0  0  0  0  0  0  0
    9.8010   12.9620   23.4560 C   0  0  0  0  0  0  0  0  0  0  0  0
    8.6240   13.2900   24.3900 C   0  0  0  0  0  0  0  0  0  0  0  0
    7.8690   12.0360   24.8380 C   0  0  0  0  0  0  0  0  0  0  0  0
    8.1890   10.7340   24.4580 C   0  0  0  0  0  0  0  0  0  0  0  0
    9.2380   10.4610   23.6090 C   0  0  0  0  0  0  0  0  0  0  0  0
   10.0650   11.6240   23.0930 C   0  0  0  0  0  0  0  0  0  0  0  0
   10.8530   14.9440   21.5810 C   0  0  2  0  0  0  0  0  0  0  0  0
    9.7290   14.8040   20.5680 C   0  0  0  0  0  0  0  0  0  0  0  0
   17.4150   19.1710   20.4510 H   0  0  0  0  0  0  0  0  0  0  0  0
   18.3870   20.3480   19.5790 H   0  0  0  0  0  0  0  0  0  0  0  0
   16.6400   20.5640   19.7380 H   0  0  0  0  0  0  0  0  0  0  0  0
   17.3760   18.0020   18.4590 H   0  0  0  0  0  0  0  0  0  0  0  0
   17.9710   19.3340   17.5540 H   0  0  0  0  0  0  0  0  0  0  0  0
   13.9920   19.3100   19.0220 H   0  0  0  0  0  0  0  0  0  0  0  0
   12.8870   17.4760   17.8840 H   0  0  0  0  0  0  0  0  0  0  0  0
   14.4520   16.7350   17.5880 H   0  0  0  0  0  0  0  0  0  0  0  0
   14.3010   16.8480   20.3520 H   0  0  0  0  0  0  0  0  0  0  0  0
   14.1390   15.4620   19.2990 H   0  0  0  0  0  0  0  0  0  0  0  0
   11.6020   15.9430   19.2440 H   0  0  0  0  0  0  0  0  0  0  0  0
   11.9310   17.1290   20.5170 H   0  0  0  0  0  0  0  0  0  0  0  0
   14.0940   15.6170   21.8880 H   0  0  0  0  0  0  0  0  0  0  0  0
   12.7070   16.3580   22.6950 H   0  0  0  0  0  0  0  0  0  0  0  0
   12.8490   14.7880   24.2470 H   0  0  0  0  0  0  0  0  0  0  0  0
   13.9970   13.8610   23.3200 H   0  0  0  0  0  0  0  0  0  0  0  0
   12.2200   12.9710   22.0390 H   0  0  0  0  0  0  0  0  0  0  0  0
   10.8290   14.7610   23.7310 H   0  0  0  0  0  0  0  0  0  0  0  0
    8.3470   14.2890   24.7190 H   0  0  0  0  0  0  0  0  0  0  0  0
    7.0150   12.1650   25.5100 H   0  0  0  0  0  0  0  0  0  0  0  0
    7.5250    9.9790   24.8970 H   0  0  0  0  0  0  0  0  0  0  0  0
    9.4710    9.4400   23.3160 H   0  0  0  0  0  0  0  0  0  0  0  0
   10.8950   11.4090   22.4290 H   0  0  0  0  0  0  0  0  0  0  0  0
   10.7060   15.9090   21.9450 H   0  0  0  0  0  0  0  0  0  0  0  0
   10.0730   14.2650   19.6900 H   0  0  0  0  0  0  0  0  0  0  0  0
    8.8690   14.2740   20.9940 H   0  0  0  0  0  0  0  0  0  0  0  0
    9.3620   15.7820   20.2380 H   0  0  0  0  0  0  0  0  0  0  0  0
  1  2  1  0
  2  3  1  0
  3  4  2  0
  3  5  2  0
  3  6  1  0
  6  7  1  0
  7  8  1  0
  8  9  1  0
  9 10  1  0
 10 11  1  0
 11 12  1  0
 12 13  1  0
 13 14  1  0
 14 15  1  0
 15 16  2  0
 16 17  1  0
 17 18  2  0
 18 19  1  0
 19 20  2  0
 14 21  1  0
 21 22  1  0
 21 10  1  0
 20 15  1  0
  1 23  1  0
  1 24  1  0
  1 25  1  0
  2 26  1  0
  2 27  1  0
  6 28  1  0
  7 29  1  0
  7 30  1  0
  8 31  1  0
  8 32  1  0
  9 33  1  0
  9 34  1  0
 11 35  1  0
 11 36  1  0
 12 37  1  0
 12 38  1  0
 13 39  1  0
 14 40  1  1
 16 41  1  0
 17 42  1  0
 18 43  1  0
 19 44  1  0
 20 45  1  0
 21 46  1  1
 22 47  1  0
 22 48  1  0
 22 49  1  0
A    1
 C1 
A    2
 C2 
A    3
 S1 
A    4
 O1 
A    5
 O2 
A    6
 N1 
A    7
 C3 
A    8
 C4 
A    9
 C5 
A   10
 N2 
A   11
 C6 
A   12
 C7 
A   13
 N3 
A   14
 C8 
A   15
 C9 
A   16
 C10
A   17
 C11
A   18
 C12
A   19
 C13
A   20
 C14
A   21
 C15
A   22
 C16
A   23
 H1 
A   24
 H2 
A   25
 H3 
A   26
 H4 
A   27
 H5 
A   28
 H6 
A   29
 H7 
A   30
 H8 
A   31
 H9 
A   32
 H10
A   33
 H11
A   34
 H12
A   35
 H13
A   36
 H14
A   37
 H15
A   38
 H16
A   39
 H17
A   40
 H18
A   41
 H19
A   42
 H20
A   43
 H21
A   44
 H22
A   45
 H23
A   46
 H24
A   47
 H25
A   48
 H26
A   49
 H27
M  END
>  <ref_pdb>  (42) 
x0310_0A

>  <ref_mols>  (42) 
x0528_0A,x0365_0A

>  <original SMILES>  (42) 
CCS(=O)(=O)NCCCN1CCN[C@H](c2ccccc2)[C@@H]1C

>  <rationale>  (42) 
info hbond:S125+R20+Y89; hydroph_interaction:P107+T126; saltbridge:D39; 

>  <intxn_cluster>  (42) 
207

>  <intxn_cluster_rank>  (42) 
10

>  <N_interactions>  (42) 
6

>  <∆∆G>  (42) 
-8.096068

>  <$/mg>  (42) 
nan

>  <comRMSD>  (42) 
0.968645

>  <N_rotatable_bonds>  (42) 
9

>  <N_analogues_07>  (42) 
0

>  <deep_P1_sidechain>  (42) 
False

>  <farthest_distance_to_substrate>  (42) 
4.733441

>  <hbond:SER:7>  (42) 
hbond:SER:7    0
hbond:SER:7    0
Name: 41, dtype: object

>  <halogenbond:SER:7>  (42) 
halogenbond:SER:7    0
halogenbond:SER:7    0
Name: 41, dtype: object

>  <hbond:GLY:8>  (42) 
hbond:GLY:8    0
hbond:GLY:8    0
Name: 41, dtype: object

>  <hydroph_interaction:ASN:19>  (42) 
hydroph_interaction:ASN:19    0
hydroph_interaction:ASN:19    0
Name: 41, dtype: object

>  <hbond:ASN:19>  (42) 
hbond:ASN:19    0
hbond:ASN:19    0
Name: 41, dtype: object

>  <halogenbond:ASN:19>  (42) 
halogenbond:ASN:19    0
halogenbond:ASN:19    0
Name: 41, dtype: object

>  <hbond:ARG:20>  (42) 
hbond:ARG:20    1
hbond:ARG:20    1
Name: 41, dtype: object

>  <hydroph_interaction:ARG:20>  (42) 
hydroph_interaction:ARG:20    0
hydroph_interaction:ARG:20    0
Name: 41, dtype: object

>  <saltbridge:ARG:20>  (42) 
saltbridge:ARG:20    0
saltbridge:ARG:20    0
Name: 41, dtype: object

>  <halogenbond:ARG:20>  (42) 
halogenbond:ARG:20    0
halogenbond:ARG:20    0
Name: 41, dtype: object

>  <pication:ARG:20>  (42) 
pication:ARG:20    0
pication:ARG:20    0
Name: 41, dtype: object

>  <hbond:HIS:21>  (42) 
hbond:HIS:21    0
hbond:HIS:21    0
Name: 41, dtype: object

>  <hydroph_interaction:HIS:21>  (42) 
hydroph_interaction:HIS:21    0
hydroph_interaction:HIS:21    0
Name: 41, dtype: object

>  <saltbridge:HIS:21>  (42) 
saltbridge:HIS:21    0
saltbridge:HIS:21    0
Name: 41, dtype: object

>  <pistack:HIS:21>  (42) 
pistack:HIS:21    0
pistack:HIS:21    0
Name: 41, dtype: object

>  <pication:HIS:21>  (42) 
pication:HIS:21    0
pication:HIS:21    0
Name: 41, dtype: object

>  <halogenbond:HIS:21>  (42) 
halogenbond:HIS:21    0
halogenbond:HIS:21    0
Name: 41, dtype: object

>  <hydroph_interaction:LEU:22>  (42) 
hydroph_interaction:LEU:22    0
hydroph_interaction:LEU:22    0
Name: 41, dtype: object

>  <hbond:LEU:22>  (42) 
hbond:LEU:22    0
hbond:LEU:22    0
Name: 41, dtype: object

>  <hydroph_interaction:TRP:28>  (42) 
hydroph_interaction:TRP:28    0
hydroph_interaction:TRP:28    0
Name: 41, dtype: object

>  <hbond:SER:36>  (42) 
hbond:SER:36    0
hbond:SER:36    0
Name: 41, dtype: object

>  <halogenbond:SER:36>  (42) 
halogenbond:SER:36    0
halogenbond:SER:36    0
Name: 41, dtype: object

>  <hbond:ARG:38>  (42) 
hbond:ARG:38    0
hbond:ARG:38    0
Name: 41, dtype: object

>  <halogenbond:ARG:38>  (42) 
halogenbond:ARG:38    0
halogenbond:ARG:38    0
Name: 41, dtype: object

>  <hbond:ASP:39>  (42) 
hbond:ASP:39    0
hbond:ASP:39    0
Name: 41, dtype: object

>  <saltbridge:ASP:39>  (42) 
saltbridge:ASP:39    1
saltbridge:ASP:39    1
Name: 41, dtype: object

>  <hydroph_interaction:ASP:39>  (42) 
hydroph_interaction:ASP:39    0
hydroph_interaction:ASP:39    0
Name: 41, dtype: object

>  <halogenbond:ASP:39>  (42) 
halogenbond:ASP:39    0
halogenbond:ASP:39    0
Name: 41, dtype: object

>  <hydroph_interaction:LEU:40>  (42) 
hydroph_interaction:LEU:40    0
hydroph_interaction:LEU:40    0
Name: 41, dtype: object

>  <hydroph_interaction:TYR:63>  (42) 
hydroph_interaction:TYR:63    0
hydroph_interaction:TYR:63    0
Name: 41, dtype: object

>  <pistack:TYR:63>  (42) 
pistack:TYR:63    0
pistack:TYR:63    0
Name: 41, dtype: object

>  <hbond:TYR:63>  (42) 
hbond:TYR:63    0
hbond:TYR:63    0
Name: 41, dtype: object

>  <hbond:TYR:64>  (42) 
hbond:TYR:64    0
hbond:TYR:64    0
Name: 41, dtype: object

>  <halogenbond:TYR:64>  (42) 
halogenbond:TYR:64    0
halogenbond:TYR:64    0
Name: 41, dtype: object

>  <hydroph_interaction:TYR:64>  (42) 
hydroph_interaction:TYR:64    0
hydroph_interaction:TYR:64    0
Name: 41, dtype: object

>  <hbond:CYS:65>  (42) 
hbond:CYS:65    0
hbond:CYS:65    0
Name: 41, dtype: object

>  <halogenbond:CYS:65>  (42) 
halogenbond:CYS:65    0
halogenbond:CYS:65    0
Name: 41, dtype: object

>  <hbond:SER:66>  (42) 
hbond:SER:66    0
hbond:SER:66    0
Name: 41, dtype: object

>  <hbond:SER:67>  (42) 
hbond:SER:67    0
hbond:SER:67    0
Name: 41, dtype: object

>  <halogenbond:SER:67>  (42) 
halogenbond:SER:67    0
halogenbond:SER:67    0
Name: 41, dtype: object

>  <hydroph_interaction:ARG:68>  (42) 
hydroph_interaction:ARG:68    0
hydroph_interaction:ARG:68    0
Name: 41, dtype: object

>  <hbond:ARG:68>  (42) 
hbond:ARG:68    0
hbond:ARG:68    0
Name: 41, dtype: object

>  <saltbridge:ARG:68>  (42) 
saltbridge:ARG:68    0
saltbridge:ARG:68    0
Name: 41, dtype: object

>  <pication:ARG:68>  (42) 
pication:ARG:68    0
pication:ARG:68    0
Name: 41, dtype: object

>  <hydroph_interaction:TYR:72>  (42) 
hydroph_interaction:TYR:72    0
hydroph_interaction:TYR:72    0
Name: 41, dtype: object

>  <hydroph_interaction:VAL:74>  (42) 
hydroph_interaction:VAL:74    0
hydroph_interaction:VAL:74    0
Name: 41, dtype: object

>  <hydroph_interaction:PHE:76>  (42) 
hydroph_interaction:PHE:76    0
hydroph_interaction:PHE:76    0
Name: 41, dtype: object

>  <hbond:SER:77>  (42) 
hbond:SER:77    0
hbond:SER:77    0
Name: 41, dtype: object

>  <hbond:SER:80>  (42) 
hbond:SER:80    0
hbond:SER:80    0
Name: 41, dtype: object

>  <hbond:LEU:81>  (42) 
hbond:LEU:81    0
hbond:LEU:81    0
Name: 41, dtype: object

>  <halogenbond:LEU:81>  (42) 
halogenbond:LEU:81    0
halogenbond:LEU:81    0
Name: 41, dtype: object

>  <hydroph_interaction:LEU:81>  (42) 
hydroph_interaction:LEU:81    0
hydroph_interaction:LEU:81    0
Name: 41, dtype: object

>  <hydroph_interaction:ILE:82>  (42) 
hydroph_interaction:ILE:82    0
hydroph_interaction:ILE:82    0
Name: 41, dtype: object

>  <hbond:ILE:82>  (42) 
hbond:ILE:82    0
hbond:ILE:82    0
Name: 41, dtype: object

>  <hydroph_interaction:PHE:83>  (42) 
hydroph_interaction:PHE:83    0
hydroph_interaction:PHE:83    0
Name: 41, dtype: object

>  <hbond:PHE:83>  (42) 
hbond:PHE:83    0
hbond:PHE:83    0
Name: 41, dtype: object

>  <halogenbond:PHE:83>  (42) 
halogenbond:PHE:83    0
halogenbond:PHE:83    0
Name: 41, dtype: object

>  <pistack:PHE:83>  (42) 
pistack:PHE:83    0
pistack:PHE:83    0
Name: 41, dtype: object

>  <hydroph_interaction:VAL:84>  (42) 
hydroph_interaction:VAL:84    0
hydroph_interaction:VAL:84    0
Name: 41, dtype: object

>  <hbond:VAL:84>  (42) 
hbond:VAL:84    0
hbond:VAL:84    0
Name: 41, dtype: object

>  <halogenbond:VAL:84>  (42) 
halogenbond:VAL:84    0
halogenbond:VAL:84    0
Name: 41, dtype: object

>  <hydroph_interaction:GLU:85>  (42) 
hydroph_interaction:GLU:85    0
hydroph_interaction:GLU:85    0
Name: 41, dtype: object

>  <hbond:GLU:85>  (42) 
hbond:GLU:85    0
hbond:GLU:85    0
Name: 41, dtype: object

>  <saltbridge:GLU:85>  (42) 
saltbridge:GLU:85    0
saltbridge:GLU:85    0
Name: 41, dtype: object

>  <halogenbond:GLU:85>  (42) 
halogenbond:GLU:85    0
halogenbond:GLU:85    0
Name: 41, dtype: object

>  <hbond:ALA:86>  (42) 
hbond:ALA:86    0
hbond:ALA:86    0
Name: 41, dtype: object

>  <halogenbond:ALA:86>  (42) 
halogenbond:ALA:86    0
halogenbond:ALA:86    0
Name: 41, dtype: object

>  <hydroph_interaction:ALA:86>  (42) 
hydroph_interaction:ALA:86    0
hydroph_interaction:ALA:86    0
Name: 41, dtype: object

>  <hbond:SER:87>  (42) 
hbond:SER:87    0
hbond:SER:87    0
Name: 41, dtype: object

>  <halogenbond:SER:87>  (42) 
halogenbond:SER:87    0
halogenbond:SER:87    0
Name: 41, dtype: object

>  <hbond:GLU:88>  (42) 
hbond:GLU:88    0
hbond:GLU:88    0
Name: 41, dtype: object

>  <hydroph_interaction:GLU:88>  (42) 
hydroph_interaction:GLU:88    0
hydroph_interaction:GLU:88    0
Name: 41, dtype: object

>  <halogenbond:GLU:88>  (42) 
halogenbond:GLU:88    0
halogenbond:GLU:88    0
Name: 41, dtype: object

>  <saltbridge:GLU:88>  (42) 
saltbridge:GLU:88    0
saltbridge:GLU:88    0
Name: 41, dtype: object

>  <hydroph_interaction:TYR:89>  (42) 
hydroph_interaction:TYR:89    0
hydroph_interaction:TYR:89    0
Name: 41, dtype: object

>  <pistack:TYR:89>  (42) 
pistack:TYR:89    0
pistack:TYR:89    0
Name: 41, dtype: object

>  <hbond:TYR:89>  (42) 
hbond:TYR:89    1
hbond:TYR:89    1
Name: 41, dtype: object

>  <halogenbond:TYR:89>  (42) 
halogenbond:TYR:89    0
halogenbond:TYR:89    0
Name: 41, dtype: object

>  <hbond:TYR:90>  (42) 
hbond:TYR:90    0
hbond:TYR:90    0
Name: 41, dtype: object

>  <hydroph_interaction:TYR:90>  (42) 
hydroph_interaction:TYR:90    0
hydroph_interaction:TYR:90    0
Name: 41, dtype: object

>  <pistack:TYR:90>  (42) 
pistack:TYR:90    0
pistack:TYR:90    0
Name: 41, dtype: object

>  <halogenbond:TYR:90>  (42) 
halogenbond:TYR:90    0
halogenbond:TYR:90    0
Name: 41, dtype: object

>  <pication:TYR:90>  (42) 
pication:TYR:90    0
pication:TYR:90    0
Name: 41, dtype: object

>  <hydroph_interaction:PRO:91>  (42) 
hydroph_interaction:PRO:91    0
hydroph_interaction:PRO:91    0
Name: 41, dtype: object

>  <halogenbond:PRO:91>  (42) 
halogenbond:PRO:91    0
halogenbond:PRO:91    0
Name: 41, dtype: object

>  <hbond:PRO:91>  (42) 
hbond:PRO:91    0
hbond:PRO:91    0
Name: 41, dtype: object

>  <hydroph_interaction:ALA:92>  (42) 
hydroph_interaction:ALA:92    0
hydroph_interaction:ALA:92    0
Name: 41, dtype: object

>  <hbond:ARG:93>  (42) 
hbond:ARG:93    0
hbond:ARG:93    0
Name: 41, dtype: object

>  <pication:ARG:93>  (42) 
pication:ARG:93    0
pication:ARG:93    0
Name: 41, dtype: object

>  <saltbridge:ARG:93>  (42) 
saltbridge:ARG:93    0
saltbridge:ARG:93    0
Name: 41, dtype: object

>  <hydroph_interaction:ARG:93>  (42) 
hydroph_interaction:ARG:93    0
hydroph_interaction:ARG:93    0
Name: 41, dtype: object

>  <halogenbond:ARG:93>  (42) 
halogenbond:ARG:93    0
halogenbond:ARG:93    0
Name: 41, dtype: object

>  <hydroph_interaction:TYR:94>  (42) 
hydroph_interaction:TYR:94    0
hydroph_interaction:TYR:94    0
Name: 41, dtype: object

>  <hbond:TYR:94>  (42) 
hbond:TYR:94    0
hbond:TYR:94    0
Name: 41, dtype: object

>  <halogenbond:GLN:95>  (42) 
halogenbond:GLN:95    0
halogenbond:GLN:95    0
Name: 41, dtype: object

>  <hbond:GLN:95>  (42) 
hbond:GLN:95    0
hbond:GLN:95    0
Name: 41, dtype: object

>  <hydroph_interaction:GLN:95>  (42) 
hydroph_interaction:GLN:95    0
hydroph_interaction:GLN:95    0
Name: 41, dtype: object

>  <hbond:SER:96>  (42) 
hbond:SER:96    0
hbond:SER:96    0
Name: 41, dtype: object

>  <hydroph_interaction:LEU:98>  (42) 
hydroph_interaction:LEU:98    0
hydroph_interaction:LEU:98    0
Name: 41, dtype: object

>  <hbond:LEU:98>  (42) 
hbond:LEU:98    0
hbond:LEU:98    0
Name: 41, dtype: object

>  <hbond:MET:99>  (42) 
hbond:MET:99    0
hbond:MET:99    0
Name: 41, dtype: object

>  <hydroph_interaction:MET:99>  (42) 
hydroph_interaction:MET:99    0
hydroph_interaction:MET:99    0
Name: 41, dtype: object

>  <halogenbond:MET:99>  (42) 
halogenbond:MET:99    0
halogenbond:MET:99    0
Name: 41, dtype: object

>  <hydroph_interaction:LEU:100>  (42) 
hydroph_interaction:LEU:100    0
hydroph_interaction:LEU:100    0
Name: 41, dtype: object

>  <hbond:LEU:100>  (42) 
hbond:LEU:100    0
hbond:LEU:100    0
Name: 41, dtype: object

>  <hbond:ALA:101>  (42) 
hbond:ALA:101    0
hbond:ALA:101    0
Name: 41, dtype: object

>  <hydroph_interaction:ALA:101>  (42) 
hydroph_interaction:ALA:101    0
hydroph_interaction:ALA:101    0
Name: 41, dtype: object

>  <hydroph_interaction:VAL:102>  (42) 
hydroph_interaction:VAL:102    0
hydroph_interaction:VAL:102    0
Name: 41, dtype: object

>  <hbond:VAL:102>  (42) 
hbond:VAL:102    0
hbond:VAL:102    0
Name: 41, dtype: object

>  <hbond:GLY:103>  (42) 
hbond:GLY:103    0
hbond:GLY:103    0
Name: 41, dtype: object

>  <halogenbond:GLY:103>  (42) 
halogenbond:GLY:103    0
halogenbond:GLY:103    0
Name: 41, dtype: object

>  <hydroph_interaction:HIS:104>  (42) 
hydroph_interaction:HIS:104    0
hydroph_interaction:HIS:104    0
Name: 41, dtype: object

>  <hbond:HIS:104>  (42) 
hbond:HIS:104    0
hbond:HIS:104    0
Name: 41, dtype: object

>  <saltbridge:HIS:104>  (42) 
saltbridge:HIS:104    0
saltbridge:HIS:104    0
Name: 41, dtype: object

>  <pication:HIS:104>  (42) 
pication:HIS:104    0
pication:HIS:104    0
Name: 41, dtype: object

>  <pistack:HIS:104>  (42) 
pistack:HIS:104    0
pistack:HIS:104    0
Name: 41, dtype: object

>  <halogenbond:HIS:104>  (42) 
halogenbond:HIS:104    0
halogenbond:HIS:104    0
Name: 41, dtype: object

>  <hbond:SER:105>  (42) 
hbond:SER:105    0
hbond:SER:105    0
Name: 41, dtype: object

>  <halogenbond:SER:105>  (42) 
halogenbond:SER:105    0
halogenbond:SER:105    0
Name: 41, dtype: object

>  <hbond:GLU:106>  (42) 
hbond:GLU:106    0
hbond:GLU:106    0
Name: 41, dtype: object

>  <hydroph_interaction:GLU:106>  (42) 
hydroph_interaction:GLU:106    0
hydroph_interaction:GLU:106    0
Name: 41, dtype: object

>  <saltbridge:GLU:106>  (42) 
saltbridge:GLU:106    0
saltbridge:GLU:106    0
Name: 41, dtype: object

>  <halogenbond:GLU:106>  (42) 
halogenbond:GLU:106    0
halogenbond:GLU:106    0
Name: 41, dtype: object

>  <hydroph_interaction:PRO:107>  (42) 
hydroph_interaction:PRO:107    1
hydroph_interaction:PRO:107    1
Name: 41, dtype: object

>  <hbond:PRO:107>  (42) 
hbond:PRO:107    0
hbond:PRO:107    0
Name: 41, dtype: object

>  <halogenbond:PRO:107>  (42) 
halogenbond:PRO:107    0
halogenbond:PRO:107    0
Name: 41, dtype: object

>  <hbond:GLY:108>  (42) 
hbond:GLY:108    0
hbond:GLY:108    0
Name: 41, dtype: object

>  <halogenbond:GLY:108>  (42) 
halogenbond:GLY:108    0
halogenbond:GLY:108    0
Name: 41, dtype: object

>  <hbond:ASP:109>  (42) 
hbond:ASP:109    0
hbond:ASP:109    0
Name: 41, dtype: object

>  <hydroph_interaction:ASP:109>  (42) 
hydroph_interaction:ASP:109    0
hydroph_interaction:ASP:109    0
Name: 41, dtype: object

>  <saltbridge:ASP:109>  (42) 
saltbridge:ASP:109    0
saltbridge:ASP:109    0
Name: 41, dtype: object

>  <hbond:CYS:110>  (42) 
hbond:CYS:110    0
hbond:CYS:110    0
Name: 41, dtype: object

>  <halogenbond:CYS:110>  (42) 
halogenbond:CYS:110    0
halogenbond:CYS:110    0
Name: 41, dtype: object

>  <hbond:GLY:111>  (42) 
hbond:GLY:111    0
hbond:GLY:111    0
Name: 41, dtype: object

>  <hbond:GLY:112>  (42) 
hbond:GLY:112    0
hbond:GLY:112    0
Name: 41, dtype: object

>  <hbond:ILE:113>  (42) 
hbond:ILE:113    0
hbond:ILE:113    0
Name: 41, dtype: object

>  <hydroph_interaction:LEU:114>  (42) 
hydroph_interaction:LEU:114    0
hydroph_interaction:LEU:114    0
Name: 41, dtype: object

>  <hbond:LEU:114>  (42) 
hbond:LEU:114    0
hbond:LEU:114    0
Name: 41, dtype: object

>  <hydroph_interaction:ILE:123>  (42) 
hydroph_interaction:ILE:123    0
hydroph_interaction:ILE:123    0
Name: 41, dtype: object

>  <hbond:ILE:123>  (42) 
hbond:ILE:123    0
hbond:ILE:123    0
Name: 41, dtype: object

>  <hydroph_interaction:VAL:124>  (42) 
hydroph_interaction:VAL:124    0
hydroph_interaction:VAL:124    0
Name: 41, dtype: object

>  <hbond:VAL:124>  (42) 
hbond:VAL:124    0
hbond:VAL:124    0
Name: 41, dtype: object

>  <halogenbond:VAL:124>  (42) 
halogenbond:VAL:124    0
halogenbond:VAL:124    0
Name: 41, dtype: object

>  <hbond:SER:125>  (42) 
hbond:SER:125    1
hbond:SER:125    1
Name: 41, dtype: object

>  <halogenbond:SER:125>  (42) 
halogenbond:SER:125    0
halogenbond:SER:125    0
Name: 41, dtype: object

>  <hydroph_interaction:THR:126>  (42) 
hydroph_interaction:THR:126    1
hydroph_interaction:THR:126    1
Name: 41, dtype: object

>  <hbond:THR:126>  (42) 
hbond:THR:126    0
hbond:THR:126    0
Name: 41, dtype: object

>  <halogenbond:THR:126>  (42) 
halogenbond:THR:126    0
halogenbond:THR:126    0
Name: 41, dtype: object

>  <hbond:GLY:127>  (42) 
hbond:GLY:127    0
hbond:GLY:127    0
Name: 41, dtype: object

>  <halogenbond:GLY:127>  (42) 
halogenbond:GLY:127    0
halogenbond:GLY:127    0
Name: 41, dtype: object

>  <hydroph_interaction:GLY:127>  (42) 
hydroph_interaction:GLY:127    0
hydroph_interaction:GLY:127    0
Name: 41, dtype: object

>  <hbond:GLY:128>  (42) 
hbond:GLY:128    0
hbond:GLY:128    0
Name: 41, dtype: object

>  <halogenbond:GLY:128>  (42) 
halogenbond:GLY:128    0
halogenbond:GLY:128    0
Name: 41, dtype: object

>  <hydroph_interaction:GLY:128>  (42) 
hydroph_interaction:GLY:128    0
hydroph_interaction:GLY:128    0
Name: 41, dtype: object

>  <hbond:ASN:129>  (42) 
hbond:ASN:129    0
hbond:ASN:129    0
Name: 41, dtype: object

>  <hydroph_interaction:ASN:129>  (42) 
hydroph_interaction:ASN:129    0
hydroph_interaction:ASN:129    0
Name: 41, dtype: object

>  <halogenbond:ASN:129>  (42) 
halogenbond:ASN:129    0
halogenbond:ASN:129    0
Name: 41, dtype: object

>  <hbond:GLY:130>  (42) 
hbond:GLY:130    0
hbond:GLY:130    0
Name: 41, dtype: object

>  <hydroph_interaction:LEU:131>  (42) 
hydroph_interaction:LEU:131    0
hydroph_interaction:LEU:131    0
Name: 41, dtype: object

>  <hbond:LEU:131>  (42) 
hbond:LEU:131    0
hbond:LEU:131    0
Name: 41, dtype: object

>  <halogenbond:LEU:131>  (42) 
halogenbond:LEU:131    0
halogenbond:LEU:131    0
Name: 41, dtype: object

>  <hydroph_interaction:VAL:132>  (42) 
hydroph_interaction:VAL:132    0
hydroph_interaction:VAL:132    0
Name: 41, dtype: object

>  <hbond:VAL:132>  (42) 
hbond:VAL:132    0
hbond:VAL:132    0
Name: 41, dtype: object

>  <hbond:GLY:133>  (42) 
hbond:GLY:133    0
hbond:GLY:133    0
Name: 41, dtype: object

>  <halogenbond:GLY:133>  (42) 
halogenbond:GLY:133    0
halogenbond:GLY:133    0
Name: 41, dtype: object

>  <hydroph_interaction:PHE:134>  (42) 
hydroph_interaction:PHE:134    0
hydroph_interaction:PHE:134    0
Name: 41, dtype: object

>  <hbond:PHE:134>  (42) 
hbond:PHE:134    0
hbond:PHE:134    0
Name: 41, dtype: object

>  <pistack:PHE:134>  (42) 
pistack:PHE:134    0
pistack:PHE:134    0
Name: 41, dtype: object

>  <pication:PHE:134>  (42) 
pication:PHE:134    0
pication:PHE:134    0
Name: 41, dtype: object

>  <hydroph_interaction:ALA:135>  (42) 
hydroph_interaction:ALA:135    0
hydroph_interaction:ALA:135    0
Name: 41, dtype: object

>  <hbond:ALA:135>  (42) 
hbond:ALA:135    0
hbond:ALA:135    0
Name: 41, dtype: object

$$$$
PV_002735478814
     RDKit          3D

 32 32  0  0  0  0  0  0  0  0999 V2000
    4.3740   13.3440   16.0020 C   0  0  0  0  0  0  0  0  0  0  0  0
    4.2980   12.2570   16.7420 C   0  0  0  0  0  0  0  0  0  0  0  0
    3.5330   12.1430   17.9690 C   0  0  0  0  0  0  0  0  0  0  0  0
    2.5290   13.0460   18.2710 C   0  0  0  0  0  0  0  0  0  0  0  0
    1.7900   12.9060   19.4630 C   0  0  0  0  0  0  0  0  0  0  0  0
    0.6770   13.8590   19.8100 C   0  0  0  0  0  0  0  0  0  0  0  0
    0.2140   14.6260   18.5590 C   0  0  0  0  0  0  0  0  0  0  0  0
    1.1100   14.8860   20.8560 C   0  0  0  0  0  0  0  0  0  0  0  0
   -0.4910   13.0300   20.3860 C   0  0  0  0  0  0  0  0  0  0  0  0
    2.0930   11.8680   20.3310 C   0  0  0  0  0  0  0  0  0  0  0  0
    3.0830   10.9840   20.0230 C   0  0  0  0  0  0  0  0  0  0  0  0
    3.7740   11.1300   18.8560 C   0  0  0  0  0  0  0  0  0  0  0  0
    4.6800   10.2720   18.5160 O   0  0  0  0  0  0  0  0  0  0  0  0
    3.8530    9.1870   18.4300 C   0  0  0  0  0  0  0  0  0  0  0  0
    3.8430   14.2440   16.2690 H   0  0  0  0  0  0  0  0  0  0  0  0
    4.9750   13.3600   15.1050 H   0  0  0  0  0  0  0  0  0  0  0  0
    4.8270   11.3680   16.4590 H   0  0  0  0  0  0  0  0  0  0  0  0
    2.3160   13.8540   17.5720 H   0  0  0  0  0  0  0  0  0  0  0  0
   -0.8750   14.7240   18.5050 H   0  0  0  0  0  0  0  0  0  0  0  0
    0.5440   14.1270   17.6420 H   0  0  0  0  0  0  0  0  0  0  0  0
    0.6230   15.6450   18.5530 H   0  0  0  0  0  0  0  0  0  0  0  0
    0.6660   14.6870   21.8390 H   0  0  0  0  0  0  0  0  0  0  0  0
    2.1990   14.8800   20.9870 H   0  0  0  0  0  0  0  0  0  0  0  0
    0.8230   15.8970   20.5480 H   0  0  0  0  0  0  0  0  0  0  0  0
   -0.1390   12.3210   21.1480 H   0  0  0  0  0  0  0  0  0  0  0  0
   -1.2380   13.6800   20.8550 H   0  0  0  0  0  0  0  0  0  0  0  0
   -1.0010   12.4460   19.6180 H   0  0  0  0  0  0  0  0  0  0  0  0
    1.5590   11.7180   21.2660 H   0  0  0  0  0  0  0  0  0  0  0  0
    3.2800   10.1800   20.7230 H   0  0  0  0  0  0  0  0  0  0  0  0
    3.9030    8.6800   19.3580 H   0  0  0  0  0  0  0  0  0  0  0  0
    4.0470    8.5430   17.5900 H   0  0  0  0  0  0  0  0  0  0  0  0
    2.8420    9.5790   18.3340 H   0  0  0  0  0  0  0  0  0  0  0  0
  1  2  2  0
  2  3  1  0
  3  4  2  0
  4  5  1  0
  5  6  1  0
  6  7  1  0
  6  8  1  0
  6  9  1  0
  5 10  2  0
 10 11  1  0
 11 12  2  0
 12 13  1  0
 13 14  1  0
 12  3  1  0
  1 15  1  0
  1 16  1  0
  2 17  1  0
  4 18  1  0
  7 19  1  0
  7 20  1  0
  7 21  1  0
  8 22  1  0
  8 23  1  0
  8 24  1  0
  9 25  1  0
  9 26  1  0
  9 27  1  0
 10 28  1  0
 11 29  1  0
 14 30  1  0
 14 31  1  0
 14 32  1  0
A    1
 C1 
A    2
 C2 
A    3
 C3 
A    4
 C4 
A    5
 C5 
A    6
 C6 
A    7
 C7 
A    8
 C8 
A    9
 C9 
A   10
 C10
A   11
 C11
A   12
 C12
A   13
 O1 
A   14
 C13
A   15
 H1 
A   16
 H2 
A   17
 H3 
A   18
 H4 
A   19
 H5 
A   20
 H6 
A   21
 H7 
A   22
 H8 
A   23
 H9 
A   24
 H10
A   25
 H11
A   26
 H12
A   27
 H13
A   28
 H14
A   29
 H15
A   30
 H16
A   31
 H17
A   32
 H18
M  END
>  <ref_pdb>  (43) 
x0310_0A

>  <ref_mols>  (43) 
x0473_0A,x0416_0A

>  <original SMILES>  (43) 
C=Cc1cc(C(C)(C)C)ccc1OC

>  <rationale>  (43) 
info hydroph_interaction:V84+E85+I82+L100+L131+L98; 

>  <intxn_cluster>  (43) 
206

>  <intxn_cluster_rank>  (43) 
10

>  <N_interactions>  (43) 
6

>  <∆∆G>  (43) 
-10.467025

>  <$/mg>  (43) 
0.0

>  <comRMSD>  (43) 
0.60216

>  <N_rotatable_bonds>  (43) 
3

>  <N_analogues_07>  (43) 
0

>  <deep_P1_sidechain>  (43) 
False

>  <farthest_distance_to_substrate>  (43) 
4.317502

>  <hbond:SER:7>  (43) 
hbond:SER:7    0
hbond:SER:7    0
Name: 42, dtype: object

>  <halogenbond:SER:7>  (43) 
halogenbond:SER:7    0
halogenbond:SER:7    0
Name: 42, dtype: object

>  <hbond:GLY:8>  (43) 
hbond:GLY:8    0
hbond:GLY:8    0
Name: 42, dtype: object

>  <hydroph_interaction:ASN:19>  (43) 
hydroph_interaction:ASN:19    0
hydroph_interaction:ASN:19    0
Name: 42, dtype: object

>  <hbond:ASN:19>  (43) 
hbond:ASN:19    0
hbond:ASN:19    0
Name: 42, dtype: object

>  <halogenbond:ASN:19>  (43) 
halogenbond:ASN:19    0
halogenbond:ASN:19    0
Name: 42, dtype: object

>  <hbond:ARG:20>  (43) 
hbond:ARG:20    0
hbond:ARG:20    0
Name: 42, dtype: object

>  <hydroph_interaction:ARG:20>  (43) 
hydroph_interaction:ARG:20    0
hydroph_interaction:ARG:20    0
Name: 42, dtype: object

>  <saltbridge:ARG:20>  (43) 
saltbridge:ARG:20    0
saltbridge:ARG:20    0
Name: 42, dtype: object

>  <halogenbond:ARG:20>  (43) 
halogenbond:ARG:20    0
halogenbond:ARG:20    0
Name: 42, dtype: object

>  <pication:ARG:20>  (43) 
pication:ARG:20    0
pication:ARG:20    0
Name: 42, dtype: object

>  <hbond:HIS:21>  (43) 
hbond:HIS:21    0
hbond:HIS:21    0
Name: 42, dtype: object

>  <hydroph_interaction:HIS:21>  (43) 
hydroph_interaction:HIS:21    0
hydroph_interaction:HIS:21    0
Name: 42, dtype: object

>  <saltbridge:HIS:21>  (43) 
saltbridge:HIS:21    0
saltbridge:HIS:21    0
Name: 42, dtype: object

>  <pistack:HIS:21>  (43) 
pistack:HIS:21    0
pistack:HIS:21    0
Name: 42, dtype: object

>  <pication:HIS:21>  (43) 
pication:HIS:21    0
pication:HIS:21    0
Name: 42, dtype: object

>  <halogenbond:HIS:21>  (43) 
halogenbond:HIS:21    0
halogenbond:HIS:21    0
Name: 42, dtype: object

>  <hydroph_interaction:LEU:22>  (43) 
hydroph_interaction:LEU:22    0
hydroph_interaction:LEU:22    0
Name: 42, dtype: object

>  <hbond:LEU:22>  (43) 
hbond:LEU:22    0
hbond:LEU:22    0
Name: 42, dtype: object

>  <hydroph_interaction:TRP:28>  (43) 
hydroph_interaction:TRP:28    0
hydroph_interaction:TRP:28    0
Name: 42, dtype: object

>  <hbond:SER:36>  (43) 
hbond:SER:36    0
hbond:SER:36    0
Name: 42, dtype: object

>  <halogenbond:SER:36>  (43) 
halogenbond:SER:36    0
halogenbond:SER:36    0
Name: 42, dtype: object

>  <hbond:ARG:38>  (43) 
hbond:ARG:38    0
hbond:ARG:38    0
Name: 42, dtype: object

>  <halogenbond:ARG:38>  (43) 
halogenbond:ARG:38    0
halogenbond:ARG:38    0
Name: 42, dtype: object

>  <hbond:ASP:39>  (43) 
hbond:ASP:39    0
hbond:ASP:39    0
Name: 42, dtype: object

>  <saltbridge:ASP:39>  (43) 
saltbridge:ASP:39    0
saltbridge:ASP:39    0
Name: 42, dtype: object

>  <hydroph_interaction:ASP:39>  (43) 
hydroph_interaction:ASP:39    0
hydroph_interaction:ASP:39    0
Name: 42, dtype: object

>  <halogenbond:ASP:39>  (43) 
halogenbond:ASP:39    0
halogenbond:ASP:39    0
Name: 42, dtype: object

>  <hydroph_interaction:LEU:40>  (43) 
hydroph_interaction:LEU:40    0
hydroph_interaction:LEU:40    0
Name: 42, dtype: object

>  <hydroph_interaction:TYR:63>  (43) 
hydroph_interaction:TYR:63    0
hydroph_interaction:TYR:63    0
Name: 42, dtype: object

>  <pistack:TYR:63>  (43) 
pistack:TYR:63    0
pistack:TYR:63    0
Name: 42, dtype: object

>  <hbond:TYR:63>  (43) 
hbond:TYR:63    0
hbond:TYR:63    0
Name: 42, dtype: object

>  <hbond:TYR:64>  (43) 
hbond:TYR:64    0
hbond:TYR:64    0
Name: 42, dtype: object

>  <halogenbond:TYR:64>  (43) 
halogenbond:TYR:64    0
halogenbond:TYR:64    0
Name: 42, dtype: object

>  <hydroph_interaction:TYR:64>  (43) 
hydroph_interaction:TYR:64    0
hydroph_interaction:TYR:64    0
Name: 42, dtype: object

>  <hbond:CYS:65>  (43) 
hbond:CYS:65    0
hbond:CYS:65    0
Name: 42, dtype: object

>  <halogenbond:CYS:65>  (43) 
halogenbond:CYS:65    0
halogenbond:CYS:65    0
Name: 42, dtype: object

>  <hbond:SER:66>  (43) 
hbond:SER:66    0
hbond:SER:66    0
Name: 42, dtype: object

>  <hbond:SER:67>  (43) 
hbond:SER:67    0
hbond:SER:67    0
Name: 42, dtype: object

>  <halogenbond:SER:67>  (43) 
halogenbond:SER:67    0
halogenbond:SER:67    0
Name: 42, dtype: object

>  <hydroph_interaction:ARG:68>  (43) 
hydroph_interaction:ARG:68    0
hydroph_interaction:ARG:68    0
Name: 42, dtype: object

>  <hbond:ARG:68>  (43) 
hbond:ARG:68    0
hbond:ARG:68    0
Name: 42, dtype: object

>  <saltbridge:ARG:68>  (43) 
saltbridge:ARG:68    0
saltbridge:ARG:68    0
Name: 42, dtype: object

>  <pication:ARG:68>  (43) 
pication:ARG:68    0
pication:ARG:68    0
Name: 42, dtype: object

>  <hydroph_interaction:TYR:72>  (43) 
hydroph_interaction:TYR:72    0
hydroph_interaction:TYR:72    0
Name: 42, dtype: object

>  <hydroph_interaction:VAL:74>  (43) 
hydroph_interaction:VAL:74    0
hydroph_interaction:VAL:74    0
Name: 42, dtype: object

>  <hydroph_interaction:PHE:76>  (43) 
hydroph_interaction:PHE:76    0
hydroph_interaction:PHE:76    0
Name: 42, dtype: object

>  <hbond:SER:77>  (43) 
hbond:SER:77    0
hbond:SER:77    0
Name: 42, dtype: object

>  <hbond:SER:80>  (43) 
hbond:SER:80    0
hbond:SER:80    0
Name: 42, dtype: object

>  <hbond:LEU:81>  (43) 
hbond:LEU:81    0
hbond:LEU:81    0
Name: 42, dtype: object

>  <halogenbond:LEU:81>  (43) 
halogenbond:LEU:81    0
halogenbond:LEU:81    0
Name: 42, dtype: object

>  <hydroph_interaction:LEU:81>  (43) 
hydroph_interaction:LEU:81    0
hydroph_interaction:LEU:81    0
Name: 42, dtype: object

>  <hydroph_interaction:ILE:82>  (43) 
hydroph_interaction:ILE:82    1
hydroph_interaction:ILE:82    1
Name: 42, dtype: object

>  <hbond:ILE:82>  (43) 
hbond:ILE:82    0
hbond:ILE:82    0
Name: 42, dtype: object

>  <hydroph_interaction:PHE:83>  (43) 
hydroph_interaction:PHE:83    0
hydroph_interaction:PHE:83    0
Name: 42, dtype: object

>  <hbond:PHE:83>  (43) 
hbond:PHE:83    0
hbond:PHE:83    0
Name: 42, dtype: object

>  <halogenbond:PHE:83>  (43) 
halogenbond:PHE:83    0
halogenbond:PHE:83    0
Name: 42, dtype: object

>  <pistack:PHE:83>  (43) 
pistack:PHE:83    0
pistack:PHE:83    0
Name: 42, dtype: object

>  <hydroph_interaction:VAL:84>  (43) 
hydroph_interaction:VAL:84    1
hydroph_interaction:VAL:84    1
Name: 42, dtype: object

>  <hbond:VAL:84>  (43) 
hbond:VAL:84    0
hbond:VAL:84    0
Name: 42, dtype: object

>  <halogenbond:VAL:84>  (43) 
halogenbond:VAL:84    0
halogenbond:VAL:84    0
Name: 42, dtype: object

>  <hydroph_interaction:GLU:85>  (43) 
hydroph_interaction:GLU:85    1
hydroph_interaction:GLU:85    1
Name: 42, dtype: object

>  <hbond:GLU:85>  (43) 
hbond:GLU:85    0
hbond:GLU:85    0
Name: 42, dtype: object

>  <saltbridge:GLU:85>  (43) 
saltbridge:GLU:85    0
saltbridge:GLU:85    0
Name: 42, dtype: object

>  <halogenbond:GLU:85>  (43) 
halogenbond:GLU:85    0
halogenbond:GLU:85    0
Name: 42, dtype: object

>  <hbond:ALA:86>  (43) 
hbond:ALA:86    0
hbond:ALA:86    0
Name: 42, dtype: object

>  <halogenbond:ALA:86>  (43) 
halogenbond:ALA:86    0
halogenbond:ALA:86    0
Name: 42, dtype: object

>  <hydroph_interaction:ALA:86>  (43) 
hydroph_interaction:ALA:86    0
hydroph_interaction:ALA:86    0
Name: 42, dtype: object

>  <hbond:SER:87>  (43) 
hbond:SER:87    0
hbond:SER:87    0
Name: 42, dtype: object

>  <halogenbond:SER:87>  (43) 
halogenbond:SER:87    0
halogenbond:SER:87    0
Name: 42, dtype: object

>  <hbond:GLU:88>  (43) 
hbond:GLU:88    0
hbond:GLU:88    0
Name: 42, dtype: object

>  <hydroph_interaction:GLU:88>  (43) 
hydroph_interaction:GLU:88    0
hydroph_interaction:GLU:88    0
Name: 42, dtype: object

>  <halogenbond:GLU:88>  (43) 
halogenbond:GLU:88    0
halogenbond:GLU:88    0
Name: 42, dtype: object

>  <saltbridge:GLU:88>  (43) 
saltbridge:GLU:88    0
saltbridge:GLU:88    0
Name: 42, dtype: object

>  <hydroph_interaction:TYR:89>  (43) 
hydroph_interaction:TYR:89    0
hydroph_interaction:TYR:89    0
Name: 42, dtype: object

>  <pistack:TYR:89>  (43) 
pistack:TYR:89    0
pistack:TYR:89    0
Name: 42, dtype: object

>  <hbond:TYR:89>  (43) 
hbond:TYR:89    0
hbond:TYR:89    0
Name: 42, dtype: object

>  <halogenbond:TYR:89>  (43) 
halogenbond:TYR:89    0
halogenbond:TYR:89    0
Name: 42, dtype: object

>  <hbond:TYR:90>  (43) 
hbond:TYR:90    0
hbond:TYR:90    0
Name: 42, dtype: object

>  <hydroph_interaction:TYR:90>  (43) 
hydroph_interaction:TYR:90    0
hydroph_interaction:TYR:90    0
Name: 42, dtype: object

>  <pistack:TYR:90>  (43) 
pistack:TYR:90    0
pistack:TYR:90    0
Name: 42, dtype: object

>  <halogenbond:TYR:90>  (43) 
halogenbond:TYR:90    0
halogenbond:TYR:90    0
Name: 42, dtype: object

>  <pication:TYR:90>  (43) 
pication:TYR:90    0
pication:TYR:90    0
Name: 42, dtype: object

>  <hydroph_interaction:PRO:91>  (43) 
hydroph_interaction:PRO:91    0
hydroph_interaction:PRO:91    0
Name: 42, dtype: object

>  <halogenbond:PRO:91>  (43) 
halogenbond:PRO:91    0
halogenbond:PRO:91    0
Name: 42, dtype: object

>  <hbond:PRO:91>  (43) 
hbond:PRO:91    0
hbond:PRO:91    0
Name: 42, dtype: object

>  <hydroph_interaction:ALA:92>  (43) 
hydroph_interaction:ALA:92    0
hydroph_interaction:ALA:92    0
Name: 42, dtype: object

>  <hbond:ARG:93>  (43) 
hbond:ARG:93    0
hbond:ARG:93    0
Name: 42, dtype: object

>  <pication:ARG:93>  (43) 
pication:ARG:93    0
pication:ARG:93    0
Name: 42, dtype: object

>  <saltbridge:ARG:93>  (43) 
saltbridge:ARG:93    0
saltbridge:ARG:93    0
Name: 42, dtype: object

>  <hydroph_interaction:ARG:93>  (43) 
hydroph_interaction:ARG:93    0
hydroph_interaction:ARG:93    0
Name: 42, dtype: object

>  <halogenbond:ARG:93>  (43) 
halogenbond:ARG:93    0
halogenbond:ARG:93    0
Name: 42, dtype: object

>  <hydroph_interaction:TYR:94>  (43) 
hydroph_interaction:TYR:94    0
hydroph_interaction:TYR:94    0
Name: 42, dtype: object

>  <hbond:TYR:94>  (43) 
hbond:TYR:94    0
hbond:TYR:94    0
Name: 42, dtype: object

>  <halogenbond:GLN:95>  (43) 
halogenbond:GLN:95    0
halogenbond:GLN:95    0
Name: 42, dtype: object

>  <hbond:GLN:95>  (43) 
hbond:GLN:95    0
hbond:GLN:95    0
Name: 42, dtype: object

>  <hydroph_interaction:GLN:95>  (43) 
hydroph_interaction:GLN:95    0
hydroph_interaction:GLN:95    0
Name: 42, dtype: object

>  <hbond:SER:96>  (43) 
hbond:SER:96    0
hbond:SER:96    0
Name: 42, dtype: object

>  <hydroph_interaction:LEU:98>  (43) 
hydroph_interaction:LEU:98    1
hydroph_interaction:LEU:98    1
Name: 42, dtype: object

>  <hbond:LEU:98>  (43) 
hbond:LEU:98    0
hbond:LEU:98    0
Name: 42, dtype: object

>  <hbond:MET:99>  (43) 
hbond:MET:99    0
hbond:MET:99    0
Name: 42, dtype: object

>  <hydroph_interaction:MET:99>  (43) 
hydroph_interaction:MET:99    0
hydroph_interaction:MET:99    0
Name: 42, dtype: object

>  <halogenbond:MET:99>  (43) 
halogenbond:MET:99    0
halogenbond:MET:99    0
Name: 42, dtype: object

>  <hydroph_interaction:LEU:100>  (43) 
hydroph_interaction:LEU:100    1
hydroph_interaction:LEU:100    1
Name: 42, dtype: object

>  <hbond:LEU:100>  (43) 
hbond:LEU:100    0
hbond:LEU:100    0
Name: 42, dtype: object

>  <hbond:ALA:101>  (43) 
hbond:ALA:101    0
hbond:ALA:101    0
Name: 42, dtype: object

>  <hydroph_interaction:ALA:101>  (43) 
hydroph_interaction:ALA:101    0
hydroph_interaction:ALA:101    0
Name: 42, dtype: object

>  <hydroph_interaction:VAL:102>  (43) 
hydroph_interaction:VAL:102    0
hydroph_interaction:VAL:102    0
Name: 42, dtype: object

>  <hbond:VAL:102>  (43) 
hbond:VAL:102    0
hbond:VAL:102    0
Name: 42, dtype: object

>  <hbond:GLY:103>  (43) 
hbond:GLY:103    0
hbond:GLY:103    0
Name: 42, dtype: object

>  <halogenbond:GLY:103>  (43) 
halogenbond:GLY:103    0
halogenbond:GLY:103    0
Name: 42, dtype: object

>  <hydroph_interaction:HIS:104>  (43) 
hydroph_interaction:HIS:104    0
hydroph_interaction:HIS:104    0
Name: 42, dtype: object

>  <hbond:HIS:104>  (43) 
hbond:HIS:104    0
hbond:HIS:104    0
Name: 42, dtype: object

>  <saltbridge:HIS:104>  (43) 
saltbridge:HIS:104    0
saltbridge:HIS:104    0
Name: 42, dtype: object

>  <pication:HIS:104>  (43) 
pication:HIS:104    0
pication:HIS:104    0
Name: 42, dtype: object

>  <pistack:HIS:104>  (43) 
pistack:HIS:104    0
pistack:HIS:104    0
Name: 42, dtype: object

>  <halogenbond:HIS:104>  (43) 
halogenbond:HIS:104    0
halogenbond:HIS:104    0
Name: 42, dtype: object

>  <hbond:SER:105>  (43) 
hbond:SER:105    0
hbond:SER:105    0
Name: 42, dtype: object

>  <halogenbond:SER:105>  (43) 
halogenbond:SER:105    0
halogenbond:SER:105    0
Name: 42, dtype: object

>  <hbond:GLU:106>  (43) 
hbond:GLU:106    0
hbond:GLU:106    0
Name: 42, dtype: object

>  <hydroph_interaction:GLU:106>  (43) 
hydroph_interaction:GLU:106    0
hydroph_interaction:GLU:106    0
Name: 42, dtype: object

>  <saltbridge:GLU:106>  (43) 
saltbridge:GLU:106    0
saltbridge:GLU:106    0
Name: 42, dtype: object

>  <halogenbond:GLU:106>  (43) 
halogenbond:GLU:106    0
halogenbond:GLU:106    0
Name: 42, dtype: object

>  <hydroph_interaction:PRO:107>  (43) 
hydroph_interaction:PRO:107    0
hydroph_interaction:PRO:107    0
Name: 42, dtype: object

>  <hbond:PRO:107>  (43) 
hbond:PRO:107    0
hbond:PRO:107    0
Name: 42, dtype: object

>  <halogenbond:PRO:107>  (43) 
halogenbond:PRO:107    0
halogenbond:PRO:107    0
Name: 42, dtype: object

>  <hbond:GLY:108>  (43) 
hbond:GLY:108    0
hbond:GLY:108    0
Name: 42, dtype: object

>  <halogenbond:GLY:108>  (43) 
halogenbond:GLY:108    0
halogenbond:GLY:108    0
Name: 42, dtype: object

>  <hbond:ASP:109>  (43) 
hbond:ASP:109    0
hbond:ASP:109    0
Name: 42, dtype: object

>  <hydroph_interaction:ASP:109>  (43) 
hydroph_interaction:ASP:109    0
hydroph_interaction:ASP:109    0
Name: 42, dtype: object

>  <saltbridge:ASP:109>  (43) 
saltbridge:ASP:109    0
saltbridge:ASP:109    0
Name: 42, dtype: object

>  <hbond:CYS:110>  (43) 
hbond:CYS:110    0
hbond:CYS:110    0
Name: 42, dtype: object

>  <halogenbond:CYS:110>  (43) 
halogenbond:CYS:110    0
halogenbond:CYS:110    0
Name: 42, dtype: object

>  <hbond:GLY:111>  (43) 
hbond:GLY:111    0
hbond:GLY:111    0
Name: 42, dtype: object

>  <hbond:GLY:112>  (43) 
hbond:GLY:112    0
hbond:GLY:112    0
Name: 42, dtype: object

>  <hbond:ILE:113>  (43) 
hbond:ILE:113    0
hbond:ILE:113    0
Name: 42, dtype: object

>  <hydroph_interaction:LEU:114>  (43) 
hydroph_interaction:LEU:114    0
hydroph_interaction:LEU:114    0
Name: 42, dtype: object

>  <hbond:LEU:114>  (43) 
hbond:LEU:114    0
hbond:LEU:114    0
Name: 42, dtype: object

>  <hydroph_interaction:ILE:123>  (43) 
hydroph_interaction:ILE:123    0
hydroph_interaction:ILE:123    0
Name: 42, dtype: object

>  <hbond:ILE:123>  (43) 
hbond:ILE:123    0
hbond:ILE:123    0
Name: 42, dtype: object

>  <hydroph_interaction:VAL:124>  (43) 
hydroph_interaction:VAL:124    0
hydroph_interaction:VAL:124    0
Name: 42, dtype: object

>  <hbond:VAL:124>  (43) 
hbond:VAL:124    0
hbond:VAL:124    0
Name: 42, dtype: object

>  <halogenbond:VAL:124>  (43) 
halogenbond:VAL:124    0
halogenbond:VAL:124    0
Name: 42, dtype: object

>  <hbond:SER:125>  (43) 
hbond:SER:125    0
hbond:SER:125    0
Name: 42, dtype: object

>  <halogenbond:SER:125>  (43) 
halogenbond:SER:125    0
halogenbond:SER:125    0
Name: 42, dtype: object

>  <hydroph_interaction:THR:126>  (43) 
hydroph_interaction:THR:126    0
hydroph_interaction:THR:126    0
Name: 42, dtype: object

>  <hbond:THR:126>  (43) 
hbond:THR:126    0
hbond:THR:126    0
Name: 42, dtype: object

>  <halogenbond:THR:126>  (43) 
halogenbond:THR:126    0
halogenbond:THR:126    0
Name: 42, dtype: object

>  <hbond:GLY:127>  (43) 
hbond:GLY:127    0
hbond:GLY:127    0
Name: 42, dtype: object

>  <halogenbond:GLY:127>  (43) 
halogenbond:GLY:127    0
halogenbond:GLY:127    0
Name: 42, dtype: object

>  <hydroph_interaction:GLY:127>  (43) 
hydroph_interaction:GLY:127    0
hydroph_interaction:GLY:127    0
Name: 42, dtype: object

>  <hbond:GLY:128>  (43) 
hbond:GLY:128    0
hbond:GLY:128    0
Name: 42, dtype: object

>  <halogenbond:GLY:128>  (43) 
halogenbond:GLY:128    0
halogenbond:GLY:128    0
Name: 42, dtype: object

>  <hydroph_interaction:GLY:128>  (43) 
hydroph_interaction:GLY:128    0
hydroph_interaction:GLY:128    0
Name: 42, dtype: object

>  <hbond:ASN:129>  (43) 
hbond:ASN:129    0
hbond:ASN:129    0
Name: 42, dtype: object

>  <hydroph_interaction:ASN:129>  (43) 
hydroph_interaction:ASN:129    0
hydroph_interaction:ASN:129    0
Name: 42, dtype: object

>  <halogenbond:ASN:129>  (43) 
halogenbond:ASN:129    0
halogenbond:ASN:129    0
Name: 42, dtype: object

>  <hbond:GLY:130>  (43) 
hbond:GLY:130    0
hbond:GLY:130    0
Name: 42, dtype: object

>  <hydroph_interaction:LEU:131>  (43) 
hydroph_interaction:LEU:131    1
hydroph_interaction:LEU:131    1
Name: 42, dtype: object

>  <hbond:LEU:131>  (43) 
hbond:LEU:131    0
hbond:LEU:131    0
Name: 42, dtype: object

>  <halogenbond:LEU:131>  (43) 
halogenbond:LEU:131    0
halogenbond:LEU:131    0
Name: 42, dtype: object

>  <hydroph_interaction:VAL:132>  (43) 
hydroph_interaction:VAL:132    0
hydroph_interaction:VAL:132    0
Name: 42, dtype: object

>  <hbond:VAL:132>  (43) 
hbond:VAL:132    0
hbond:VAL:132    0
Name: 42, dtype: object

>  <hbond:GLY:133>  (43) 
hbond:GLY:133    0
hbond:GLY:133    0
Name: 42, dtype: object

>  <halogenbond:GLY:133>  (43) 
halogenbond:GLY:133    0
halogenbond:GLY:133    0
Name: 42, dtype: object

>  <hydroph_interaction:PHE:134>  (43) 
hydroph_interaction:PHE:134    0
hydroph_interaction:PHE:134    0
Name: 42, dtype: object

>  <hbond:PHE:134>  (43) 
hbond:PHE:134    0
hbond:PHE:134    0
Name: 42, dtype: object

>  <pistack:PHE:134>  (43) 
pistack:PHE:134    0
pistack:PHE:134    0
Name: 42, dtype: object

>  <pication:PHE:134>  (43) 
pication:PHE:134    0
pication:PHE:134    0
Name: 42, dtype: object

>  <hydroph_interaction:ALA:135>  (43) 
hydroph_interaction:ALA:135    0
hydroph_interaction:ALA:135    0
Name: 42, dtype: object

>  <hbond:ALA:135>  (43) 
hbond:ALA:135    0
hbond:ALA:135    0
Name: 42, dtype: object

$$$$
PV_002381420336
     RDKit          3D

 28 28  0  0  0  0  0  0  0  0999 V2000
    6.8580   10.8100   25.6650 C   0  0  0  0  0  0  0  0  0  0  0  0
    7.9890   10.9670   24.6620 C   0  0  0  0  0  0  0  0  0  0  0  0
    8.4560   12.3760   24.3040 C   0  0  0  0  0  0  0  0  0  0  0  0
    9.5860   12.4570   23.2800 C   0  0  0  0  0  0  0  0  0  0  0  0
   10.1190   13.7900   22.8400 C   0  0  0  0  0  0  0  0  0  0  0  0
    9.1320   14.3780   21.9610 N   0  0  0  0  0  0  0  0  0  0  0  0
    9.5300   14.9920   20.7940 C   0  0  0  0  0  0  0  0  0  0  0  0
   10.6950   15.0150   20.4220 O   0  0  0  0  0  0  0  0  0  0  0  0
    8.5240   15.6010   20.0670 C   0  0  0  0  0  0  0  0  0  0  0  0
    9.2780   16.2330   18.9410 C   0  0  0  0  0  0  0  0  0  0  0  0
    9.8190   16.7380   18.0540 N   0  0  0  0  0  0  0  0  0  0  0  0
   10.0850   11.2700   22.7800 C   0  0  0  0  0  0  0  0  0  0  0  0
    9.5630   10.0560   23.1930 C   0  0  0  0  0  0  0  0  0  0  0  0
   10.1810    8.9510   22.5670 C   0  0  0  0  0  0  0  0  0  0  0  0
    8.5600    9.8720   24.0910 N   0  0  0  0  0  0  0  0  0  0  0  0
    6.2460    9.9310   25.4670 H   0  0  0  0  0  0  0  0  0  0  0  0
    6.2030   11.6830   25.6160 H   0  0  0  0  0  0  0  0  0  0  0  0
    7.2170   10.7420   26.6860 H   0  0  0  0  0  0  0  0  0  0  0  0
    7.9330   13.1950   24.8140 H   0  0  0  0  0  0  0  0  0  0  0  0
   11.0730   13.8080   22.3200 H   0  0  0  0  0  0  0  0  0  0  0  0
   10.2380   14.4190   23.7240 H   0  0  0  0  0  0  0  0  0  0  0  0
    8.2510   14.6530   22.3870 H   0  0  0  0  0  0  0  0  0  0  0  0
    7.9320   14.7890   19.6500 H   0  0  0  0  0  0  0  0  0  0  0  0
    7.7600   16.2310   20.5020 H   0  0  0  0  0  0  0  0  0  0  0  0
   10.8890   11.2830   22.0540 H   0  0  0  0  0  0  0  0  0  0  0  0
   10.8020    8.3940   23.2590 H   0  0  0  0  0  0  0  0  0  0  0  0
   10.8130    9.3100   21.7540 H   0  0  0  0  0  0  0  0  0  0  0  0
    9.4250    8.2840   22.1540 H   0  0  0  0  0  0  0  0  0  0  0  0
  1  2  1  0
  2  3  2  0
  3  4  1  0
  4  5  1  0
  5  6  1  0
  6  7  1  0
  7  8  2  0
  7  9  1  0
  9 10  1  0
 10 11  3  0
  4 12  2  0
 12 13  1  0
 13 14  1  0
 13 15  2  0
 15  2  1  0
  1 16  1  0
  1 17  1  0
  1 18  1  0
  3 19  1  0
  5 20  1  0
  5 21  1  0
  6 22  1  0
  9 23  1  0
  9 24  1  0
 12 25  1  0
 14 26  1  0
 14 27  1  0
 14 28  1  0
A    1
 C1 
A    2
 C2 
A    3
 C3 
A    4
 C4 
A    5
 C5 
A    6
 N1 
A    7
 C6 
A    8
 O1 
A    9
 C7 
A   10
 C8 
A   11
 N2 
A   12
 C9 
A   13
 C10
A   14
 C11
A   15
 N3 
A   16
 H1 
A   17
 H2 
A   18
 H3 
A   19
 H4 
A   20
 H5 
A   21
 H6 
A   22
 H7 
A   23
 H8 
A   24
 H9 
A   25
 H10
A   26
 H11
A   27
 H12
A   28
 H13
M  END
>  <ref_pdb>  (44) 
x0310_0A

>  <ref_mols>  (44) 
x0451_0A,x0739_0A

>  <original SMILES>  (44) 
Cc1cc(CNC(=O)CC#N)cc(C)n1

>  <rationale>  (44) 
info hbond:S87+R93; hydroph_interaction:V124+T126+V84; 

>  <intxn_cluster>  (44) 
103

>  <intxn_cluster_rank>  (44) 
10

>  <N_interactions>  (44) 
5

>  <∆∆G>  (44) 
-8.492103

>  <$/mg>  (44) 
163.0

>  <comRMSD>  (44) 
0.917857

>  <N_rotatable_bonds>  (44) 
5

>  <N_analogues_07>  (44) 
2

>  <deep_P1_sidechain>  (44) 
True

>  <farthest_distance_to_substrate>  (44) 
2.704168

>  <hbond:SER:7>  (44) 
hbond:SER:7    0
hbond:SER:7    0
Name: 43, dtype: object

>  <halogenbond:SER:7>  (44) 
halogenbond:SER:7    0
halogenbond:SER:7    0
Name: 43, dtype: object

>  <hbond:GLY:8>  (44) 
hbond:GLY:8    0
hbond:GLY:8    0
Name: 43, dtype: object

>  <hydroph_interaction:ASN:19>  (44) 
hydroph_interaction:ASN:19    0
hydroph_interaction:ASN:19    0
Name: 43, dtype: object

>  <hbond:ASN:19>  (44) 
hbond:ASN:19    0
hbond:ASN:19    0
Name: 43, dtype: object

>  <halogenbond:ASN:19>  (44) 
halogenbond:ASN:19    0
halogenbond:ASN:19    0
Name: 43, dtype: object

>  <hbond:ARG:20>  (44) 
hbond:ARG:20    0
hbond:ARG:20    0
Name: 43, dtype: object

>  <hydroph_interaction:ARG:20>  (44) 
hydroph_interaction:ARG:20    0
hydroph_interaction:ARG:20    0
Name: 43, dtype: object

>  <saltbridge:ARG:20>  (44) 
saltbridge:ARG:20    0
saltbridge:ARG:20    0
Name: 43, dtype: object

>  <halogenbond:ARG:20>  (44) 
halogenbond:ARG:20    0
halogenbond:ARG:20    0
Name: 43, dtype: object

>  <pication:ARG:20>  (44) 
pication:ARG:20    0
pication:ARG:20    0
Name: 43, dtype: object

>  <hbond:HIS:21>  (44) 
hbond:HIS:21    0
hbond:HIS:21    0
Name: 43, dtype: object

>  <hydroph_interaction:HIS:21>  (44) 
hydroph_interaction:HIS:21    0
hydroph_interaction:HIS:21    0
Name: 43, dtype: object

>  <saltbridge:HIS:21>  (44) 
saltbridge:HIS:21    0
saltbridge:HIS:21    0
Name: 43, dtype: object

>  <pistack:HIS:21>  (44) 
pistack:HIS:21    0
pistack:HIS:21    0
Name: 43, dtype: object

>  <pication:HIS:21>  (44) 
pication:HIS:21    0
pication:HIS:21    0
Name: 43, dtype: object

>  <halogenbond:HIS:21>  (44) 
halogenbond:HIS:21    0
halogenbond:HIS:21    0
Name: 43, dtype: object

>  <hydroph_interaction:LEU:22>  (44) 
hydroph_interaction:LEU:22    0
hydroph_interaction:LEU:22    0
Name: 43, dtype: object

>  <hbond:LEU:22>  (44) 
hbond:LEU:22    0
hbond:LEU:22    0
Name: 43, dtype: object

>  <hydroph_interaction:TRP:28>  (44) 
hydroph_interaction:TRP:28    0
hydroph_interaction:TRP:28    0
Name: 43, dtype: object

>  <hbond:SER:36>  (44) 
hbond:SER:36    0
hbond:SER:36    0
Name: 43, dtype: object

>  <halogenbond:SER:36>  (44) 
halogenbond:SER:36    0
halogenbond:SER:36    0
Name: 43, dtype: object

>  <hbond:ARG:38>  (44) 
hbond:ARG:38    0
hbond:ARG:38    0
Name: 43, dtype: object

>  <halogenbond:ARG:38>  (44) 
halogenbond:ARG:38    0
halogenbond:ARG:38    0
Name: 43, dtype: object

>  <hbond:ASP:39>  (44) 
hbond:ASP:39    0
hbond:ASP:39    0
Name: 43, dtype: object

>  <saltbridge:ASP:39>  (44) 
saltbridge:ASP:39    0
saltbridge:ASP:39    0
Name: 43, dtype: object

>  <hydroph_interaction:ASP:39>  (44) 
hydroph_interaction:ASP:39    0
hydroph_interaction:ASP:39    0
Name: 43, dtype: object

>  <halogenbond:ASP:39>  (44) 
halogenbond:ASP:39    0
halogenbond:ASP:39    0
Name: 43, dtype: object

>  <hydroph_interaction:LEU:40>  (44) 
hydroph_interaction:LEU:40    0
hydroph_interaction:LEU:40    0
Name: 43, dtype: object

>  <hydroph_interaction:TYR:63>  (44) 
hydroph_interaction:TYR:63    0
hydroph_interaction:TYR:63    0
Name: 43, dtype: object

>  <pistack:TYR:63>  (44) 
pistack:TYR:63    0
pistack:TYR:63    0
Name: 43, dtype: object

>  <hbond:TYR:63>  (44) 
hbond:TYR:63    0
hbond:TYR:63    0
Name: 43, dtype: object

>  <hbond:TYR:64>  (44) 
hbond:TYR:64    0
hbond:TYR:64    0
Name: 43, dtype: object

>  <halogenbond:TYR:64>  (44) 
halogenbond:TYR:64    0
halogenbond:TYR:64    0
Name: 43, dtype: object

>  <hydroph_interaction:TYR:64>  (44) 
hydroph_interaction:TYR:64    0
hydroph_interaction:TYR:64    0
Name: 43, dtype: object

>  <hbond:CYS:65>  (44) 
hbond:CYS:65    0
hbond:CYS:65    0
Name: 43, dtype: object

>  <halogenbond:CYS:65>  (44) 
halogenbond:CYS:65    0
halogenbond:CYS:65    0
Name: 43, dtype: object

>  <hbond:SER:66>  (44) 
hbond:SER:66    0
hbond:SER:66    0
Name: 43, dtype: object

>  <hbond:SER:67>  (44) 
hbond:SER:67    0
hbond:SER:67    0
Name: 43, dtype: object

>  <halogenbond:SER:67>  (44) 
halogenbond:SER:67    0
halogenbond:SER:67    0
Name: 43, dtype: object

>  <hydroph_interaction:ARG:68>  (44) 
hydroph_interaction:ARG:68    0
hydroph_interaction:ARG:68    0
Name: 43, dtype: object

>  <hbond:ARG:68>  (44) 
hbond:ARG:68    0
hbond:ARG:68    0
Name: 43, dtype: object

>  <saltbridge:ARG:68>  (44) 
saltbridge:ARG:68    0
saltbridge:ARG:68    0
Name: 43, dtype: object

>  <pication:ARG:68>  (44) 
pication:ARG:68    0
pication:ARG:68    0
Name: 43, dtype: object

>  <hydroph_interaction:TYR:72>  (44) 
hydroph_interaction:TYR:72    0
hydroph_interaction:TYR:72    0
Name: 43, dtype: object

>  <hydroph_interaction:VAL:74>  (44) 
hydroph_interaction:VAL:74    0
hydroph_interaction:VAL:74    0
Name: 43, dtype: object

>  <hydroph_interaction:PHE:76>  (44) 
hydroph_interaction:PHE:76    0
hydroph_interaction:PHE:76    0
Name: 43, dtype: object

>  <hbond:SER:77>  (44) 
hbond:SER:77    0
hbond:SER:77    0
Name: 43, dtype: object

>  <hbond:SER:80>  (44) 
hbond:SER:80    0
hbond:SER:80    0
Name: 43, dtype: object

>  <hbond:LEU:81>  (44) 
hbond:LEU:81    0
hbond:LEU:81    0
Name: 43, dtype: object

>  <halogenbond:LEU:81>  (44) 
halogenbond:LEU:81    0
halogenbond:LEU:81    0
Name: 43, dtype: object

>  <hydroph_interaction:LEU:81>  (44) 
hydroph_interaction:LEU:81    0
hydroph_interaction:LEU:81    0
Name: 43, dtype: object

>  <hydroph_interaction:ILE:82>  (44) 
hydroph_interaction:ILE:82    0
hydroph_interaction:ILE:82    0
Name: 43, dtype: object

>  <hbond:ILE:82>  (44) 
hbond:ILE:82    0
hbond:ILE:82    0
Name: 43, dtype: object

>  <hydroph_interaction:PHE:83>  (44) 
hydroph_interaction:PHE:83    0
hydroph_interaction:PHE:83    0
Name: 43, dtype: object

>  <hbond:PHE:83>  (44) 
hbond:PHE:83    0
hbond:PHE:83    0
Name: 43, dtype: object

>  <halogenbond:PHE:83>  (44) 
halogenbond:PHE:83    0
halogenbond:PHE:83    0
Name: 43, dtype: object

>  <pistack:PHE:83>  (44) 
pistack:PHE:83    0
pistack:PHE:83    0
Name: 43, dtype: object

>  <hydroph_interaction:VAL:84>  (44) 
hydroph_interaction:VAL:84    1
hydroph_interaction:VAL:84    1
Name: 43, dtype: object

>  <hbond:VAL:84>  (44) 
hbond:VAL:84    0
hbond:VAL:84    0
Name: 43, dtype: object

>  <halogenbond:VAL:84>  (44) 
halogenbond:VAL:84    0
halogenbond:VAL:84    0
Name: 43, dtype: object

>  <hydroph_interaction:GLU:85>  (44) 
hydroph_interaction:GLU:85    0
hydroph_interaction:GLU:85    0
Name: 43, dtype: object

>  <hbond:GLU:85>  (44) 
hbond:GLU:85    0
hbond:GLU:85    0
Name: 43, dtype: object

>  <saltbridge:GLU:85>  (44) 
saltbridge:GLU:85    0
saltbridge:GLU:85    0
Name: 43, dtype: object

>  <halogenbond:GLU:85>  (44) 
halogenbond:GLU:85    0
halogenbond:GLU:85    0
Name: 43, dtype: object

>  <hbond:ALA:86>  (44) 
hbond:ALA:86    0
hbond:ALA:86    0
Name: 43, dtype: object

>  <halogenbond:ALA:86>  (44) 
halogenbond:ALA:86    0
halogenbond:ALA:86    0
Name: 43, dtype: object

>  <hydroph_interaction:ALA:86>  (44) 
hydroph_interaction:ALA:86    0
hydroph_interaction:ALA:86    0
Name: 43, dtype: object

>  <hbond:SER:87>  (44) 
hbond:SER:87    1
hbond:SER:87    1
Name: 43, dtype: object

>  <halogenbond:SER:87>  (44) 
halogenbond:SER:87    0
halogenbond:SER:87    0
Name: 43, dtype: object

>  <hbond:GLU:88>  (44) 
hbond:GLU:88    0
hbond:GLU:88    0
Name: 43, dtype: object

>  <hydroph_interaction:GLU:88>  (44) 
hydroph_interaction:GLU:88    0
hydroph_interaction:GLU:88    0
Name: 43, dtype: object

>  <halogenbond:GLU:88>  (44) 
halogenbond:GLU:88    0
halogenbond:GLU:88    0
Name: 43, dtype: object

>  <saltbridge:GLU:88>  (44) 
saltbridge:GLU:88    0
saltbridge:GLU:88    0
Name: 43, dtype: object

>  <hydroph_interaction:TYR:89>  (44) 
hydroph_interaction:TYR:89    0
hydroph_interaction:TYR:89    0
Name: 43, dtype: object

>  <pistack:TYR:89>  (44) 
pistack:TYR:89    0
pistack:TYR:89    0
Name: 43, dtype: object

>  <hbond:TYR:89>  (44) 
hbond:TYR:89    0
hbond:TYR:89    0
Name: 43, dtype: object

>  <halogenbond:TYR:89>  (44) 
halogenbond:TYR:89    0
halogenbond:TYR:89    0
Name: 43, dtype: object

>  <hbond:TYR:90>  (44) 
hbond:TYR:90    0
hbond:TYR:90    0
Name: 43, dtype: object

>  <hydroph_interaction:TYR:90>  (44) 
hydroph_interaction:TYR:90    0
hydroph_interaction:TYR:90    0
Name: 43, dtype: object

>  <pistack:TYR:90>  (44) 
pistack:TYR:90    0
pistack:TYR:90    0
Name: 43, dtype: object

>  <halogenbond:TYR:90>  (44) 
halogenbond:TYR:90    0
halogenbond:TYR:90    0
Name: 43, dtype: object

>  <pication:TYR:90>  (44) 
pication:TYR:90    0
pication:TYR:90    0
Name: 43, dtype: object

>  <hydroph_interaction:PRO:91>  (44) 
hydroph_interaction:PRO:91    0
hydroph_interaction:PRO:91    0
Name: 43, dtype: object

>  <halogenbond:PRO:91>  (44) 
halogenbond:PRO:91    0
halogenbond:PRO:91    0
Name: 43, dtype: object

>  <hbond:PRO:91>  (44) 
hbond:PRO:91    0
hbond:PRO:91    0
Name: 43, dtype: object

>  <hydroph_interaction:ALA:92>  (44) 
hydroph_interaction:ALA:92    0
hydroph_interaction:ALA:92    0
Name: 43, dtype: object

>  <hbond:ARG:93>  (44) 
hbond:ARG:93    1
hbond:ARG:93    1
Name: 43, dtype: object

>  <pication:ARG:93>  (44) 
pication:ARG:93    0
pication:ARG:93    0
Name: 43, dtype: object

>  <saltbridge:ARG:93>  (44) 
saltbridge:ARG:93    0
saltbridge:ARG:93    0
Name: 43, dtype: object

>  <hydroph_interaction:ARG:93>  (44) 
hydroph_interaction:ARG:93    0
hydroph_interaction:ARG:93    0
Name: 43, dtype: object

>  <halogenbond:ARG:93>  (44) 
halogenbond:ARG:93    0
halogenbond:ARG:93    0
Name: 43, dtype: object

>  <hydroph_interaction:TYR:94>  (44) 
hydroph_interaction:TYR:94    0
hydroph_interaction:TYR:94    0
Name: 43, dtype: object

>  <hbond:TYR:94>  (44) 
hbond:TYR:94    0
hbond:TYR:94    0
Name: 43, dtype: object

>  <halogenbond:GLN:95>  (44) 
halogenbond:GLN:95    0
halogenbond:GLN:95    0
Name: 43, dtype: object

>  <hbond:GLN:95>  (44) 
hbond:GLN:95    0
hbond:GLN:95    0
Name: 43, dtype: object

>  <hydroph_interaction:GLN:95>  (44) 
hydroph_interaction:GLN:95    0
hydroph_interaction:GLN:95    0
Name: 43, dtype: object

>  <hbond:SER:96>  (44) 
hbond:SER:96    0
hbond:SER:96    0
Name: 43, dtype: object

>  <hydroph_interaction:LEU:98>  (44) 
hydroph_interaction:LEU:98    0
hydroph_interaction:LEU:98    0
Name: 43, dtype: object

>  <hbond:LEU:98>  (44) 
hbond:LEU:98    0
hbond:LEU:98    0
Name: 43, dtype: object

>  <hbond:MET:99>  (44) 
hbond:MET:99    0
hbond:MET:99    0
Name: 43, dtype: object

>  <hydroph_interaction:MET:99>  (44) 
hydroph_interaction:MET:99    0
hydroph_interaction:MET:99    0
Name: 43, dtype: object

>  <halogenbond:MET:99>  (44) 
halogenbond:MET:99    0
halogenbond:MET:99    0
Name: 43, dtype: object

>  <hydroph_interaction:LEU:100>  (44) 
hydroph_interaction:LEU:100    0
hydroph_interaction:LEU:100    0
Name: 43, dtype: object

>  <hbond:LEU:100>  (44) 
hbond:LEU:100    0
hbond:LEU:100    0
Name: 43, dtype: object

>  <hbond:ALA:101>  (44) 
hbond:ALA:101    0
hbond:ALA:101    0
Name: 43, dtype: object

>  <hydroph_interaction:ALA:101>  (44) 
hydroph_interaction:ALA:101    0
hydroph_interaction:ALA:101    0
Name: 43, dtype: object

>  <hydroph_interaction:VAL:102>  (44) 
hydroph_interaction:VAL:102    0
hydroph_interaction:VAL:102    0
Name: 43, dtype: object

>  <hbond:VAL:102>  (44) 
hbond:VAL:102    0
hbond:VAL:102    0
Name: 43, dtype: object

>  <hbond:GLY:103>  (44) 
hbond:GLY:103    0
hbond:GLY:103    0
Name: 43, dtype: object

>  <halogenbond:GLY:103>  (44) 
halogenbond:GLY:103    0
halogenbond:GLY:103    0
Name: 43, dtype: object

>  <hydroph_interaction:HIS:104>  (44) 
hydroph_interaction:HIS:104    0
hydroph_interaction:HIS:104    0
Name: 43, dtype: object

>  <hbond:HIS:104>  (44) 
hbond:HIS:104    0
hbond:HIS:104    0
Name: 43, dtype: object

>  <saltbridge:HIS:104>  (44) 
saltbridge:HIS:104    0
saltbridge:HIS:104    0
Name: 43, dtype: object

>  <pication:HIS:104>  (44) 
pication:HIS:104    0
pication:HIS:104    0
Name: 43, dtype: object

>  <pistack:HIS:104>  (44) 
pistack:HIS:104    0
pistack:HIS:104    0
Name: 43, dtype: object

>  <halogenbond:HIS:104>  (44) 
halogenbond:HIS:104    0
halogenbond:HIS:104    0
Name: 43, dtype: object

>  <hbond:SER:105>  (44) 
hbond:SER:105    0
hbond:SER:105    0
Name: 43, dtype: object

>  <halogenbond:SER:105>  (44) 
halogenbond:SER:105    0
halogenbond:SER:105    0
Name: 43, dtype: object

>  <hbond:GLU:106>  (44) 
hbond:GLU:106    0
hbond:GLU:106    0
Name: 43, dtype: object

>  <hydroph_interaction:GLU:106>  (44) 
hydroph_interaction:GLU:106    0
hydroph_interaction:GLU:106    0
Name: 43, dtype: object

>  <saltbridge:GLU:106>  (44) 
saltbridge:GLU:106    0
saltbridge:GLU:106    0
Name: 43, dtype: object

>  <halogenbond:GLU:106>  (44) 
halogenbond:GLU:106    0
halogenbond:GLU:106    0
Name: 43, dtype: object

>  <hydroph_interaction:PRO:107>  (44) 
hydroph_interaction:PRO:107    0
hydroph_interaction:PRO:107    0
Name: 43, dtype: object

>  <hbond:PRO:107>  (44) 
hbond:PRO:107    0
hbond:PRO:107    0
Name: 43, dtype: object

>  <halogenbond:PRO:107>  (44) 
halogenbond:PRO:107    0
halogenbond:PRO:107    0
Name: 43, dtype: object

>  <hbond:GLY:108>  (44) 
hbond:GLY:108    0
hbond:GLY:108    0
Name: 43, dtype: object

>  <halogenbond:GLY:108>  (44) 
halogenbond:GLY:108    0
halogenbond:GLY:108    0
Name: 43, dtype: object

>  <hbond:ASP:109>  (44) 
hbond:ASP:109    0
hbond:ASP:109    0
Name: 43, dtype: object

>  <hydroph_interaction:ASP:109>  (44) 
hydroph_interaction:ASP:109    0
hydroph_interaction:ASP:109    0
Name: 43, dtype: object

>  <saltbridge:ASP:109>  (44) 
saltbridge:ASP:109    0
saltbridge:ASP:109    0
Name: 43, dtype: object

>  <hbond:CYS:110>  (44) 
hbond:CYS:110    0
hbond:CYS:110    0
Name: 43, dtype: object

>  <halogenbond:CYS:110>  (44) 
halogenbond:CYS:110    0
halogenbond:CYS:110    0
Name: 43, dtype: object

>  <hbond:GLY:111>  (44) 
hbond:GLY:111    0
hbond:GLY:111    0
Name: 43, dtype: object

>  <hbond:GLY:112>  (44) 
hbond:GLY:112    0
hbond:GLY:112    0
Name: 43, dtype: object

>  <hbond:ILE:113>  (44) 
hbond:ILE:113    0
hbond:ILE:113    0
Name: 43, dtype: object

>  <hydroph_interaction:LEU:114>  (44) 
hydroph_interaction:LEU:114    0
hydroph_interaction:LEU:114    0
Name: 43, dtype: object

>  <hbond:LEU:114>  (44) 
hbond:LEU:114    0
hbond:LEU:114    0
Name: 43, dtype: object

>  <hydroph_interaction:ILE:123>  (44) 
hydroph_interaction:ILE:123    0
hydroph_interaction:ILE:123    0
Name: 43, dtype: object

>  <hbond:ILE:123>  (44) 
hbond:ILE:123    0
hbond:ILE:123    0
Name: 43, dtype: object

>  <hydroph_interaction:VAL:124>  (44) 
hydroph_interaction:VAL:124    1
hydroph_interaction:VAL:124    1
Name: 43, dtype: object

>  <hbond:VAL:124>  (44) 
hbond:VAL:124    0
hbond:VAL:124    0
Name: 43, dtype: object

>  <halogenbond:VAL:124>  (44) 
halogenbond:VAL:124    0
halogenbond:VAL:124    0
Name: 43, dtype: object

>  <hbond:SER:125>  (44) 
hbond:SER:125    0
hbond:SER:125    0
Name: 43, dtype: object

>  <halogenbond:SER:125>  (44) 
halogenbond:SER:125    0
halogenbond:SER:125    0
Name: 43, dtype: object

>  <hydroph_interaction:THR:126>  (44) 
hydroph_interaction:THR:126    1
hydroph_interaction:THR:126    1
Name: 43, dtype: object

>  <hbond:THR:126>  (44) 
hbond:THR:126    0
hbond:THR:126    0
Name: 43, dtype: object

>  <halogenbond:THR:126>  (44) 
halogenbond:THR:126    0
halogenbond:THR:126    0
Name: 43, dtype: object

>  <hbond:GLY:127>  (44) 
hbond:GLY:127    0
hbond:GLY:127    0
Name: 43, dtype: object

>  <halogenbond:GLY:127>  (44) 
halogenbond:GLY:127    0
halogenbond:GLY:127    0
Name: 43, dtype: object

>  <hydroph_interaction:GLY:127>  (44) 
hydroph_interaction:GLY:127    0
hydroph_interaction:GLY:127    0
Name: 43, dtype: object

>  <hbond:GLY:128>  (44) 
hbond:GLY:128    0
hbond:GLY:128    0
Name: 43, dtype: object

>  <halogenbond:GLY:128>  (44) 
halogenbond:GLY:128    0
halogenbond:GLY:128    0
Name: 43, dtype: object

>  <hydroph_interaction:GLY:128>  (44) 
hydroph_interaction:GLY:128    0
hydroph_interaction:GLY:128    0
Name: 43, dtype: object

>  <hbond:ASN:129>  (44) 
hbond:ASN:129    0
hbond:ASN:129    0
Name: 43, dtype: object

>  <hydroph_interaction:ASN:129>  (44) 
hydroph_interaction:ASN:129    0
hydroph_interaction:ASN:129    0
Name: 43, dtype: object

>  <halogenbond:ASN:129>  (44) 
halogenbond:ASN:129    0
halogenbond:ASN:129    0
Name: 43, dtype: object

>  <hbond:GLY:130>  (44) 
hbond:GLY:130    0
hbond:GLY:130    0
Name: 43, dtype: object

>  <hydroph_interaction:LEU:131>  (44) 
hydroph_interaction:LEU:131    0
hydroph_interaction:LEU:131    0
Name: 43, dtype: object

>  <hbond:LEU:131>  (44) 
hbond:LEU:131    0
hbond:LEU:131    0
Name: 43, dtype: object

>  <halogenbond:LEU:131>  (44) 
halogenbond:LEU:131    0
halogenbond:LEU:131    0
Name: 43, dtype: object

>  <hydroph_interaction:VAL:132>  (44) 
hydroph_interaction:VAL:132    0
hydroph_interaction:VAL:132    0
Name: 43, dtype: object

>  <hbond:VAL:132>  (44) 
hbond:VAL:132    0
hbond:VAL:132    0
Name: 43, dtype: object

>  <hbond:GLY:133>  (44) 
hbond:GLY:133    0
hbond:GLY:133    0
Name: 43, dtype: object

>  <halogenbond:GLY:133>  (44) 
halogenbond:GLY:133    0
halogenbond:GLY:133    0
Name: 43, dtype: object

>  <hydroph_interaction:PHE:134>  (44) 
hydroph_interaction:PHE:134    0
hydroph_interaction:PHE:134    0
Name: 43, dtype: object

>  <hbond:PHE:134>  (44) 
hbond:PHE:134    0
hbond:PHE:134    0
Name: 43, dtype: object

>  <pistack:PHE:134>  (44) 
pistack:PHE:134    0
pistack:PHE:134    0
Name: 43, dtype: object

>  <pication:PHE:134>  (44) 
pication:PHE:134    0
pication:PHE:134    0
Name: 43, dtype: object

>  <hydroph_interaction:ALA:135>  (44) 
hydroph_interaction:ALA:135    0
hydroph_interaction:ALA:135    0
Name: 43, dtype: object

>  <hbond:ALA:135>  (44) 
hbond:ALA:135    0
hbond:ALA:135    0
Name: 43, dtype: object

$$$$
PV_005397450316
     RDKit          3D

 15 14  0  0  0  0  0  0  0  0999 V2000
    0.2040   11.7440   19.2690 C   0  0  0  0  0  0  0  0  0  0  0  0
    0.7720   12.8940   17.9950 S   0  0  0  0  0  0  0  0  0  0  0  0
    2.5090   12.6880   18.2300 C   0  0  0  0  0  0  0  0  0  0  0  0
    3.0150   13.2160   19.5780 C   0  0  0  0  0  0  0  0  0  0  0  0
    2.6620   14.2940   20.1120 O   0  0  0  0  0  0  0  0  0  0  0  0
    3.9290   12.3550   20.1370 N   0  0  0  0  0  0  0  0  0  0  0  0
    4.0390   11.0430   19.6050 N   0  0  0  0  0  0  0  0  0  0  0  0
    0.9110   10.9140   19.3410 H   0  0  0  0  0  0  0  0  0  0  0  0
    0.1390   12.2510   20.2370 H   0  0  0  0  0  0  0  0  0  0  0  0
   -0.7900   11.3630   19.0260 H   0  0  0  0  0  0  0  0  0  0  0  0
    3.0220   13.2180   17.4250 H   0  0  0  0  0  0  0  0  0  0  0  0
    2.7350   11.6210   18.1550 H   0  0  0  0  0  0  0  0  0  0  0  0
    4.2210   12.5070   21.1030 H   0  0  0  0  0  0  0  0  0  0  0  0
    4.9300   10.9820   19.1070 H   0  0  0  0  0  0  0  0  0  0  0  0
    3.9420   10.3980   20.3830 H   0  0  0  0  0  0  0  0  0  0  0  0
  1  2  1  0
  2  3  1  0
  3  4  1  0
  4  5  2  0
  4  6  1  0
  6  7  1  0
  1  8  1  0
  1  9  1  0
  1 10  1  0
  3 11  1  0
  3 12  1  0
  6 13  1  0
  7 14  1  0
  7 15  1  0
A    1
 C1 
A    2
 S1 
A    3
 C2 
A    4
 C3 
A    5
 O1 
A    6
 N1 
A    7
 N2 
A    8
 H1 
A    9
 H2 
A   10
 H3 
A   11
 H4 
A   12
 H5 
A   13
 H6 
A   14
 H7 
A   15
 H8 
M  END
>  <ref_pdb>  (45) 
x0310_0A

>  <ref_mols>  (45) 
x0929_0A,x0375_1A

>  <original SMILES>  (45) 
CSCC(=O)NN

>  <rationale>  (45) 
info hbond:G127+E85+L131; 

>  <intxn_cluster>  (45) 
201

>  <intxn_cluster_rank>  (45) 
10

>  <N_interactions>  (45) 
3

>  <∆∆G>  (45) 
-5.098131

>  <$/mg>  (45) 
nan

>  <comRMSD>  (45) 
0.87723

>  <N_rotatable_bonds>  (45) 
4

>  <N_analogues_07>  (45) 
0

>  <deep_P1_sidechain>  (45) 
False

>  <farthest_distance_to_substrate>  (45) 
3.522244

>  <hbond:SER:7>  (45) 
hbond:SER:7    0
hbond:SER:7    0
Name: 44, dtype: object

>  <halogenbond:SER:7>  (45) 
halogenbond:SER:7    0
halogenbond:SER:7    0
Name: 44, dtype: object

>  <hbond:GLY:8>  (45) 
hbond:GLY:8    0
hbond:GLY:8    0
Name: 44, dtype: object

>  <hydroph_interaction:ASN:19>  (45) 
hydroph_interaction:ASN:19    0
hydroph_interaction:ASN:19    0
Name: 44, dtype: object

>  <hbond:ASN:19>  (45) 
hbond:ASN:19    0
hbond:ASN:19    0
Name: 44, dtype: object

>  <halogenbond:ASN:19>  (45) 
halogenbond:ASN:19    0
halogenbond:ASN:19    0
Name: 44, dtype: object

>  <hbond:ARG:20>  (45) 
hbond:ARG:20    0
hbond:ARG:20    0
Name: 44, dtype: object

>  <hydroph_interaction:ARG:20>  (45) 
hydroph_interaction:ARG:20    0
hydroph_interaction:ARG:20    0
Name: 44, dtype: object

>  <saltbridge:ARG:20>  (45) 
saltbridge:ARG:20    0
saltbridge:ARG:20    0
Name: 44, dtype: object

>  <halogenbond:ARG:20>  (45) 
halogenbond:ARG:20    0
halogenbond:ARG:20    0
Name: 44, dtype: object

>  <pication:ARG:20>  (45) 
pication:ARG:20    0
pication:ARG:20    0
Name: 44, dtype: object

>  <hbond:HIS:21>  (45) 
hbond:HIS:21    0
hbond:HIS:21    0
Name: 44, dtype: object

>  <hydroph_interaction:HIS:21>  (45) 
hydroph_interaction:HIS:21    0
hydroph_interaction:HIS:21    0
Name: 44, dtype: object

>  <saltbridge:HIS:21>  (45) 
saltbridge:HIS:21    0
saltbridge:HIS:21    0
Name: 44, dtype: object

>  <pistack:HIS:21>  (45) 
pistack:HIS:21    0
pistack:HIS:21    0
Name: 44, dtype: object

>  <pication:HIS:21>  (45) 
pication:HIS:21    0
pication:HIS:21    0
Name: 44, dtype: object

>  <halogenbond:HIS:21>  (45) 
halogenbond:HIS:21    0
halogenbond:HIS:21    0
Name: 44, dtype: object

>  <hydroph_interaction:LEU:22>  (45) 
hydroph_interaction:LEU:22    0
hydroph_interaction:LEU:22    0
Name: 44, dtype: object

>  <hbond:LEU:22>  (45) 
hbond:LEU:22    0
hbond:LEU:22    0
Name: 44, dtype: object

>  <hydroph_interaction:TRP:28>  (45) 
hydroph_interaction:TRP:28    0
hydroph_interaction:TRP:28    0
Name: 44, dtype: object

>  <hbond:SER:36>  (45) 
hbond:SER:36    0
hbond:SER:36    0
Name: 44, dtype: object

>  <halogenbond:SER:36>  (45) 
halogenbond:SER:36    0
halogenbond:SER:36    0
Name: 44, dtype: object

>  <hbond:ARG:38>  (45) 
hbond:ARG:38    0
hbond:ARG:38    0
Name: 44, dtype: object

>  <halogenbond:ARG:38>  (45) 
halogenbond:ARG:38    0
halogenbond:ARG:38    0
Name: 44, dtype: object

>  <hbond:ASP:39>  (45) 
hbond:ASP:39    0
hbond:ASP:39    0
Name: 44, dtype: object

>  <saltbridge:ASP:39>  (45) 
saltbridge:ASP:39    0
saltbridge:ASP:39    0
Name: 44, dtype: object

>  <hydroph_interaction:ASP:39>  (45) 
hydroph_interaction:ASP:39    0
hydroph_interaction:ASP:39    0
Name: 44, dtype: object

>  <halogenbond:ASP:39>  (45) 
halogenbond:ASP:39    0
halogenbond:ASP:39    0
Name: 44, dtype: object

>  <hydroph_interaction:LEU:40>  (45) 
hydroph_interaction:LEU:40    0
hydroph_interaction:LEU:40    0
Name: 44, dtype: object

>  <hydroph_interaction:TYR:63>  (45) 
hydroph_interaction:TYR:63    0
hydroph_interaction:TYR:63    0
Name: 44, dtype: object

>  <pistack:TYR:63>  (45) 
pistack:TYR:63    0
pistack:TYR:63    0
Name: 44, dtype: object

>  <hbond:TYR:63>  (45) 
hbond:TYR:63    0
hbond:TYR:63    0
Name: 44, dtype: object

>  <hbond:TYR:64>  (45) 
hbond:TYR:64    0
hbond:TYR:64    0
Name: 44, dtype: object

>  <halogenbond:TYR:64>  (45) 
halogenbond:TYR:64    0
halogenbond:TYR:64    0
Name: 44, dtype: object

>  <hydroph_interaction:TYR:64>  (45) 
hydroph_interaction:TYR:64    0
hydroph_interaction:TYR:64    0
Name: 44, dtype: object

>  <hbond:CYS:65>  (45) 
hbond:CYS:65    0
hbond:CYS:65    0
Name: 44, dtype: object

>  <halogenbond:CYS:65>  (45) 
halogenbond:CYS:65    0
halogenbond:CYS:65    0
Name: 44, dtype: object

>  <hbond:SER:66>  (45) 
hbond:SER:66    0
hbond:SER:66    0
Name: 44, dtype: object

>  <hbond:SER:67>  (45) 
hbond:SER:67    0
hbond:SER:67    0
Name: 44, dtype: object

>  <halogenbond:SER:67>  (45) 
halogenbond:SER:67    0
halogenbond:SER:67    0
Name: 44, dtype: object

>  <hydroph_interaction:ARG:68>  (45) 
hydroph_interaction:ARG:68    0
hydroph_interaction:ARG:68    0
Name: 44, dtype: object

>  <hbond:ARG:68>  (45) 
hbond:ARG:68    0
hbond:ARG:68    0
Name: 44, dtype: object

>  <saltbridge:ARG:68>  (45) 
saltbridge:ARG:68    0
saltbridge:ARG:68    0
Name: 44, dtype: object

>  <pication:ARG:68>  (45) 
pication:ARG:68    0
pication:ARG:68    0
Name: 44, dtype: object

>  <hydroph_interaction:TYR:72>  (45) 
hydroph_interaction:TYR:72    0
hydroph_interaction:TYR:72    0
Name: 44, dtype: object

>  <hydroph_interaction:VAL:74>  (45) 
hydroph_interaction:VAL:74    0
hydroph_interaction:VAL:74    0
Name: 44, dtype: object

>  <hydroph_interaction:PHE:76>  (45) 
hydroph_interaction:PHE:76    0
hydroph_interaction:PHE:76    0
Name: 44, dtype: object

>  <hbond:SER:77>  (45) 
hbond:SER:77    0
hbond:SER:77    0
Name: 44, dtype: object

>  <hbond:SER:80>  (45) 
hbond:SER:80    0
hbond:SER:80    0
Name: 44, dtype: object

>  <hbond:LEU:81>  (45) 
hbond:LEU:81    0
hbond:LEU:81    0
Name: 44, dtype: object

>  <halogenbond:LEU:81>  (45) 
halogenbond:LEU:81    0
halogenbond:LEU:81    0
Name: 44, dtype: object

>  <hydroph_interaction:LEU:81>  (45) 
hydroph_interaction:LEU:81    0
hydroph_interaction:LEU:81    0
Name: 44, dtype: object

>  <hydroph_interaction:ILE:82>  (45) 
hydroph_interaction:ILE:82    0
hydroph_interaction:ILE:82    0
Name: 44, dtype: object

>  <hbond:ILE:82>  (45) 
hbond:ILE:82    0
hbond:ILE:82    0
Name: 44, dtype: object

>  <hydroph_interaction:PHE:83>  (45) 
hydroph_interaction:PHE:83    0
hydroph_interaction:PHE:83    0
Name: 44, dtype: object

>  <hbond:PHE:83>  (45) 
hbond:PHE:83    0
hbond:PHE:83    0
Name: 44, dtype: object

>  <halogenbond:PHE:83>  (45) 
halogenbond:PHE:83    0
halogenbond:PHE:83    0
Name: 44, dtype: object

>  <pistack:PHE:83>  (45) 
pistack:PHE:83    0
pistack:PHE:83    0
Name: 44, dtype: object

>  <hydroph_interaction:VAL:84>  (45) 
hydroph_interaction:VAL:84    0
hydroph_interaction:VAL:84    0
Name: 44, dtype: object

>  <hbond:VAL:84>  (45) 
hbond:VAL:84    0
hbond:VAL:84    0
Name: 44, dtype: object

>  <halogenbond:VAL:84>  (45) 
halogenbond:VAL:84    0
halogenbond:VAL:84    0
Name: 44, dtype: object

>  <hydroph_interaction:GLU:85>  (45) 
hydroph_interaction:GLU:85    0
hydroph_interaction:GLU:85    0
Name: 44, dtype: object

>  <hbond:GLU:85>  (45) 
hbond:GLU:85    1
hbond:GLU:85    1
Name: 44, dtype: object

>  <saltbridge:GLU:85>  (45) 
saltbridge:GLU:85    0
saltbridge:GLU:85    0
Name: 44, dtype: object

>  <halogenbond:GLU:85>  (45) 
halogenbond:GLU:85    0
halogenbond:GLU:85    0
Name: 44, dtype: object

>  <hbond:ALA:86>  (45) 
hbond:ALA:86    0
hbond:ALA:86    0
Name: 44, dtype: object

>  <halogenbond:ALA:86>  (45) 
halogenbond:ALA:86    0
halogenbond:ALA:86    0
Name: 44, dtype: object

>  <hydroph_interaction:ALA:86>  (45) 
hydroph_interaction:ALA:86    0
hydroph_interaction:ALA:86    0
Name: 44, dtype: object

>  <hbond:SER:87>  (45) 
hbond:SER:87    0
hbond:SER:87    0
Name: 44, dtype: object

>  <halogenbond:SER:87>  (45) 
halogenbond:SER:87    0
halogenbond:SER:87    0
Name: 44, dtype: object

>  <hbond:GLU:88>  (45) 
hbond:GLU:88    0
hbond:GLU:88    0
Name: 44, dtype: object

>  <hydroph_interaction:GLU:88>  (45) 
hydroph_interaction:GLU:88    0
hydroph_interaction:GLU:88    0
Name: 44, dtype: object

>  <halogenbond:GLU:88>  (45) 
halogenbond:GLU:88    0
halogenbond:GLU:88    0
Name: 44, dtype: object

>  <saltbridge:GLU:88>  (45) 
saltbridge:GLU:88    0
saltbridge:GLU:88    0
Name: 44, dtype: object

>  <hydroph_interaction:TYR:89>  (45) 
hydroph_interaction:TYR:89    0
hydroph_interaction:TYR:89    0
Name: 44, dtype: object

>  <pistack:TYR:89>  (45) 
pistack:TYR:89    0
pistack:TYR:89    0
Name: 44, dtype: object

>  <hbond:TYR:89>  (45) 
hbond:TYR:89    0
hbond:TYR:89    0
Name: 44, dtype: object

>  <halogenbond:TYR:89>  (45) 
halogenbond:TYR:89    0
halogenbond:TYR:89    0
Name: 44, dtype: object

>  <hbond:TYR:90>  (45) 
hbond:TYR:90    0
hbond:TYR:90    0
Name: 44, dtype: object

>  <hydroph_interaction:TYR:90>  (45) 
hydroph_interaction:TYR:90    0
hydroph_interaction:TYR:90    0
Name: 44, dtype: object

>  <pistack:TYR:90>  (45) 
pistack:TYR:90    0
pistack:TYR:90    0
Name: 44, dtype: object

>  <halogenbond:TYR:90>  (45) 
halogenbond:TYR:90    0
halogenbond:TYR:90    0
Name: 44, dtype: object

>  <pication:TYR:90>  (45) 
pication:TYR:90    0
pication:TYR:90    0
Name: 44, dtype: object

>  <hydroph_interaction:PRO:91>  (45) 
hydroph_interaction:PRO:91    0
hydroph_interaction:PRO:91    0
Name: 44, dtype: object

>  <halogenbond:PRO:91>  (45) 
halogenbond:PRO:91    0
halogenbond:PRO:91    0
Name: 44, dtype: object

>  <hbond:PRO:91>  (45) 
hbond:PRO:91    0
hbond:PRO:91    0
Name: 44, dtype: object

>  <hydroph_interaction:ALA:92>  (45) 
hydroph_interaction:ALA:92    0
hydroph_interaction:ALA:92    0
Name: 44, dtype: object

>  <hbond:ARG:93>  (45) 
hbond:ARG:93    0
hbond:ARG:93    0
Name: 44, dtype: object

>  <pication:ARG:93>  (45) 
pication:ARG:93    0
pication:ARG:93    0
Name: 44, dtype: object

>  <saltbridge:ARG:93>  (45) 
saltbridge:ARG:93    0
saltbridge:ARG:93    0
Name: 44, dtype: object

>  <hydroph_interaction:ARG:93>  (45) 
hydroph_interaction:ARG:93    0
hydroph_interaction:ARG:93    0
Name: 44, dtype: object

>  <halogenbond:ARG:93>  (45) 
halogenbond:ARG:93    0
halogenbond:ARG:93    0
Name: 44, dtype: object

>  <hydroph_interaction:TYR:94>  (45) 
hydroph_interaction:TYR:94    0
hydroph_interaction:TYR:94    0
Name: 44, dtype: object

>  <hbond:TYR:94>  (45) 
hbond:TYR:94    0
hbond:TYR:94    0
Name: 44, dtype: object

>  <halogenbond:GLN:95>  (45) 
halogenbond:GLN:95    0
halogenbond:GLN:95    0
Name: 44, dtype: object

>  <hbond:GLN:95>  (45) 
hbond:GLN:95    0
hbond:GLN:95    0
Name: 44, dtype: object

>  <hydroph_interaction:GLN:95>  (45) 
hydroph_interaction:GLN:95    0
hydroph_interaction:GLN:95    0
Name: 44, dtype: object

>  <hbond:SER:96>  (45) 
hbond:SER:96    0
hbond:SER:96    0
Name: 44, dtype: object

>  <hydroph_interaction:LEU:98>  (45) 
hydroph_interaction:LEU:98    0
hydroph_interaction:LEU:98    0
Name: 44, dtype: object

>  <hbond:LEU:98>  (45) 
hbond:LEU:98    0
hbond:LEU:98    0
Name: 44, dtype: object

>  <hbond:MET:99>  (45) 
hbond:MET:99    0
hbond:MET:99    0
Name: 44, dtype: object

>  <hydroph_interaction:MET:99>  (45) 
hydroph_interaction:MET:99    0
hydroph_interaction:MET:99    0
Name: 44, dtype: object

>  <halogenbond:MET:99>  (45) 
halogenbond:MET:99    0
halogenbond:MET:99    0
Name: 44, dtype: object

>  <hydroph_interaction:LEU:100>  (45) 
hydroph_interaction:LEU:100    0
hydroph_interaction:LEU:100    0
Name: 44, dtype: object

>  <hbond:LEU:100>  (45) 
hbond:LEU:100    0
hbond:LEU:100    0
Name: 44, dtype: object

>  <hbond:ALA:101>  (45) 
hbond:ALA:101    0
hbond:ALA:101    0
Name: 44, dtype: object

>  <hydroph_interaction:ALA:101>  (45) 
hydroph_interaction:ALA:101    0
hydroph_interaction:ALA:101    0
Name: 44, dtype: object

>  <hydroph_interaction:VAL:102>  (45) 
hydroph_interaction:VAL:102    0
hydroph_interaction:VAL:102    0
Name: 44, dtype: object

>  <hbond:VAL:102>  (45) 
hbond:VAL:102    0
hbond:VAL:102    0
Name: 44, dtype: object

>  <hbond:GLY:103>  (45) 
hbond:GLY:103    0
hbond:GLY:103    0
Name: 44, dtype: object

>  <halogenbond:GLY:103>  (45) 
halogenbond:GLY:103    0
halogenbond:GLY:103    0
Name: 44, dtype: object

>  <hydroph_interaction:HIS:104>  (45) 
hydroph_interaction:HIS:104    0
hydroph_interaction:HIS:104    0
Name: 44, dtype: object

>  <hbond:HIS:104>  (45) 
hbond:HIS:104    0
hbond:HIS:104    0
Name: 44, dtype: object

>  <saltbridge:HIS:104>  (45) 
saltbridge:HIS:104    0
saltbridge:HIS:104    0
Name: 44, dtype: object

>  <pication:HIS:104>  (45) 
pication:HIS:104    0
pication:HIS:104    0
Name: 44, dtype: object

>  <pistack:HIS:104>  (45) 
pistack:HIS:104    0
pistack:HIS:104    0
Name: 44, dtype: object

>  <halogenbond:HIS:104>  (45) 
halogenbond:HIS:104    0
halogenbond:HIS:104    0
Name: 44, dtype: object

>  <hbond:SER:105>  (45) 
hbond:SER:105    0
hbond:SER:105    0
Name: 44, dtype: object

>  <halogenbond:SER:105>  (45) 
halogenbond:SER:105    0
halogenbond:SER:105    0
Name: 44, dtype: object

>  <hbond:GLU:106>  (45) 
hbond:GLU:106    0
hbond:GLU:106    0
Name: 44, dtype: object

>  <hydroph_interaction:GLU:106>  (45) 
hydroph_interaction:GLU:106    0
hydroph_interaction:GLU:106    0
Name: 44, dtype: object

>  <saltbridge:GLU:106>  (45) 
saltbridge:GLU:106    0
saltbridge:GLU:106    0
Name: 44, dtype: object

>  <halogenbond:GLU:106>  (45) 
halogenbond:GLU:106    0
halogenbond:GLU:106    0
Name: 44, dtype: object

>  <hydroph_interaction:PRO:107>  (45) 
hydroph_interaction:PRO:107    0
hydroph_interaction:PRO:107    0
Name: 44, dtype: object

>  <hbond:PRO:107>  (45) 
hbond:PRO:107    0
hbond:PRO:107    0
Name: 44, dtype: object

>  <halogenbond:PRO:107>  (45) 
halogenbond:PRO:107    0
halogenbond:PRO:107    0
Name: 44, dtype: object

>  <hbond:GLY:108>  (45) 
hbond:GLY:108    0
hbond:GLY:108    0
Name: 44, dtype: object

>  <halogenbond:GLY:108>  (45) 
halogenbond:GLY:108    0
halogenbond:GLY:108    0
Name: 44, dtype: object

>  <hbond:ASP:109>  (45) 
hbond:ASP:109    0
hbond:ASP:109    0
Name: 44, dtype: object

>  <hydroph_interaction:ASP:109>  (45) 
hydroph_interaction:ASP:109    0
hydroph_interaction:ASP:109    0
Name: 44, dtype: object

>  <saltbridge:ASP:109>  (45) 
saltbridge:ASP:109    0
saltbridge:ASP:109    0
Name: 44, dtype: object

>  <hbond:CYS:110>  (45) 
hbond:CYS:110    0
hbond:CYS:110    0
Name: 44, dtype: object

>  <halogenbond:CYS:110>  (45) 
halogenbond:CYS:110    0
halogenbond:CYS:110    0
Name: 44, dtype: object

>  <hbond:GLY:111>  (45) 
hbond:GLY:111    0
hbond:GLY:111    0
Name: 44, dtype: object

>  <hbond:GLY:112>  (45) 
hbond:GLY:112    0
hbond:GLY:112    0
Name: 44, dtype: object

>  <hbond:ILE:113>  (45) 
hbond:ILE:113    0
hbond:ILE:113    0
Name: 44, dtype: object

>  <hydroph_interaction:LEU:114>  (45) 
hydroph_interaction:LEU:114    0
hydroph_interaction:LEU:114    0
Name: 44, dtype: object

>  <hbond:LEU:114>  (45) 
hbond:LEU:114    0
hbond:LEU:114    0
Name: 44, dtype: object

>  <hydroph_interaction:ILE:123>  (45) 
hydroph_interaction:ILE:123    0
hydroph_interaction:ILE:123    0
Name: 44, dtype: object

>  <hbond:ILE:123>  (45) 
hbond:ILE:123    0
hbond:ILE:123    0
Name: 44, dtype: object

>  <hydroph_interaction:VAL:124>  (45) 
hydroph_interaction:VAL:124    0
hydroph_interaction:VAL:124    0
Name: 44, dtype: object

>  <hbond:VAL:124>  (45) 
hbond:VAL:124    0
hbond:VAL:124    0
Name: 44, dtype: object

>  <halogenbond:VAL:124>  (45) 
halogenbond:VAL:124    0
halogenbond:VAL:124    0
Name: 44, dtype: object

>  <hbond:SER:125>  (45) 
hbond:SER:125    0
hbond:SER:125    0
Name: 44, dtype: object

>  <halogenbond:SER:125>  (45) 
halogenbond:SER:125    0
halogenbond:SER:125    0
Name: 44, dtype: object

>  <hydroph_interaction:THR:126>  (45) 
hydroph_interaction:THR:126    0
hydroph_interaction:THR:126    0
Name: 44, dtype: object

>  <hbond:THR:126>  (45) 
hbond:THR:126    0
hbond:THR:126    0
Name: 44, dtype: object

>  <halogenbond:THR:126>  (45) 
halogenbond:THR:126    0
halogenbond:THR:126    0
Name: 44, dtype: object

>  <hbond:GLY:127>  (45) 
hbond:GLY:127    1
hbond:GLY:127    1
Name: 44, dtype: object

>  <halogenbond:GLY:127>  (45) 
halogenbond:GLY:127    0
halogenbond:GLY:127    0
Name: 44, dtype: object

>  <hydroph_interaction:GLY:127>  (45) 
hydroph_interaction:GLY:127    0
hydroph_interaction:GLY:127    0
Name: 44, dtype: object

>  <hbond:GLY:128>  (45) 
hbond:GLY:128    0
hbond:GLY:128    0
Name: 44, dtype: object

>  <halogenbond:GLY:128>  (45) 
halogenbond:GLY:128    0
halogenbond:GLY:128    0
Name: 44, dtype: object

>  <hydroph_interaction:GLY:128>  (45) 
hydroph_interaction:GLY:128    0
hydroph_interaction:GLY:128    0
Name: 44, dtype: object

>  <hbond:ASN:129>  (45) 
hbond:ASN:129    0
hbond:ASN:129    0
Name: 44, dtype: object

>  <hydroph_interaction:ASN:129>  (45) 
hydroph_interaction:ASN:129    0
hydroph_interaction:ASN:129    0
Name: 44, dtype: object

>  <halogenbond:ASN:129>  (45) 
halogenbond:ASN:129    0
halogenbond:ASN:129    0
Name: 44, dtype: object

>  <hbond:GLY:130>  (45) 
hbond:GLY:130    0
hbond:GLY:130    0
Name: 44, dtype: object

>  <hydroph_interaction:LEU:131>  (45) 
hydroph_interaction:LEU:131    0
hydroph_interaction:LEU:131    0
Name: 44, dtype: object

>  <hbond:LEU:131>  (45) 
hbond:LEU:131    1
hbond:LEU:131    1
Name: 44, dtype: object

>  <halogenbond:LEU:131>  (45) 
halogenbond:LEU:131    0
halogenbond:LEU:131    0
Name: 44, dtype: object

>  <hydroph_interaction:VAL:132>  (45) 
hydroph_interaction:VAL:132    0
hydroph_interaction:VAL:132    0
Name: 44, dtype: object

>  <hbond:VAL:132>  (45) 
hbond:VAL:132    0
hbond:VAL:132    0
Name: 44, dtype: object

>  <hbond:GLY:133>  (45) 
hbond:GLY:133    0
hbond:GLY:133    0
Name: 44, dtype: object

>  <halogenbond:GLY:133>  (45) 
halogenbond:GLY:133    0
halogenbond:GLY:133    0
Name: 44, dtype: object

>  <hydroph_interaction:PHE:134>  (45) 
hydroph_interaction:PHE:134    0
hydroph_interaction:PHE:134    0
Name: 44, dtype: object

>  <hbond:PHE:134>  (45) 
hbond:PHE:134    0
hbond:PHE:134    0
Name: 44, dtype: object

>  <pistack:PHE:134>  (45) 
pistack:PHE:134    0
pistack:PHE:134    0
Name: 44, dtype: object

>  <pication:PHE:134>  (45) 
pication:PHE:134    0
pication:PHE:134    0
Name: 44, dtype: object

>  <hydroph_interaction:ALA:135>  (45) 
hydroph_interaction:ALA:135    0
hydroph_interaction:ALA:135    0
Name: 44, dtype: object

>  <hbond:ALA:135>  (45) 
hbond:ALA:135    0
hbond:ALA:135    0
Name: 44, dtype: object

$$$$
PV_002937286254
     RDKit          3D

 34 35  0  0  0  0  0  0  0  0999 V2000
    6.9480   14.2050   23.9020 C   0  0  0  0  0  0  0  0  0  0  0  0
    8.1100   13.6990   24.5520 O   0  0  0  0  0  0  0  0  0  0  0  0
    8.5100   12.4250   24.2240 C   0  0  0  0  0  0  0  0  0  0  0  0
    8.0460   11.2360   24.7720 C   0  0  0  0  0  0  0  0  0  0  0  0
    8.5630   10.0160   24.3200 C   0  0  0  0  0  0  0  0  0  0  0  0
    9.5370    9.9780   23.3340 C   0  0  0  0  0  0  0  0  0  0  0  0
   10.1660    8.7370   22.7660 C   0  0  0  0  0  0  0  0  0  0  0  0
    9.9740   11.1500   22.8160 C   0  0  0  0  0  0  0  0  0  0  0  0
    9.4850   12.3560   23.2320 C   0  0  0  0  0  0  0  0  0  0  0  0
   10.0420   13.4840   22.5840 N   0  0  0  0  0  0  0  0  0  0  0  0
   11.3420   13.6360   22.4250 C   0  0  0  0  0  0  0  0  0  0  0  0
   11.7370   14.7240   21.4410 C   0  0  0  0  0  0  0  0  0  0  0  0
   12.6140   15.7140   22.1110 C   0  0  0  0  0  0  0  0  0  0  0  0
   12.5360   15.4180   23.6020 C   0  0  0  0  0  0  0  0  0  0  0  0
   11.9480   14.0410   23.7710 C   0  0  2  0  0  0  0  0  0  0  0  0
   12.9960   13.2260   24.0570 F   0  0  0  0  0  0  0  0  0  0  0  0
    6.9440   15.2940   24.0040 H   0  0  0  0  0  0  0  0  0  0  0  0
    6.9360   13.9450   22.8380 H   0  0  0  0  0  0  0  0  0  0  0  0
    6.0310   13.8050   24.3480 H   0  0  0  0  0  0  0  0  0  0  0  0
    7.2850   11.2210   25.5480 H   0  0  0  0  0  0  0  0  0  0  0  0
    8.2090    9.0970   24.7300 H   0  0  0  0  0  0  0  0  0  0  0  0
    9.5300    8.2800   22.0050 H   0  0  0  0  0  0  0  0  0  0  0  0
   10.3740    8.0080   23.5350 H   0  0  0  0  0  0  0  0  0  0  0  0
   11.1260    8.9850   22.3190 H   0  0  0  0  0  0  0  0  0  0  0  0
   10.7370   11.0430   22.0480 H   0  0  0  0  0  0  0  0  0  0  0  0
    9.6100   14.3270   22.9790 H   0  0  0  0  0  0  0  0  0  0  0  0
   11.8000   12.6950   22.1240 H   0  0  0  0  0  0  0  0  0  0  0  0
   10.8370   15.2200   21.0570 H   0  0  0  0  0  0  0  0  0  0  0  0
   12.2690   14.2810   20.5920 H   0  0  0  0  0  0  0  0  0  0  0  0
   12.2720   16.7310   21.8930 H   0  0  0  0  0  0  0  0  0  0  0  0
   13.6460   15.6340   21.7550 H   0  0  0  0  0  0  0  0  0  0  0  0
   11.9410   16.1720   24.1160 H   0  0  0  0  0  0  0  0  0  0  0  0
   13.5380   15.4170   24.0280 H   0  0  0  0  0  0  0  0  0  0  0  0
   11.2350   13.9780   24.6000 H   0  0  0  0  0  0  0  0  0  0  0  0
  1  2  1  0
  2  3  1  0
  3  4  2  0
  4  5  1  0
  5  6  2  0
  6  7  1  0
  6  8  1  0
  8  9  2  0
  9 10  1  0
 10 11  1  0
 11 12  1  0
 12 13  1  0
 13 14  1  0
 14 15  1  0
 15 16  1  0
  9  3  1  0
 15 11  1  0
  1 17  1  0
  1 18  1  0
  1 19  1  0
  4 20  1  0
  5 21  1  0
  7 22  1  0
  7 23  1  0
  7 24  1  0
  8 25  1  0
 10 26  1  0
 11 27  1  0
 12 28  1  0
 12 29  1  0
 13 30  1  0
 13 31  1  0
 14 32  1  0
 14 33  1  0
 15 34  1  6
A    1
 C1 
A    2
 O1 
A    3
 C2 
A    4
 C3 
A    5
 C4 
A    6
 C5 
A    7
 C6 
A    8
 C7 
A    9
 C8 
A   10
 N1 
A   11
 C9 
A   12
 C10
A   13
 C11
A   14
 C12
A   15
 C13
A   16
 F1 
A   17
 H1 
A   18
 H2 
A   19
 H3 
A   20
 H4 
A   21
 H5 
A   22
 H6 
A   23
 H7 
A   24
 H8 
A   25
 H9 
A   26
 H10
A   27
 H11
A   28
 H12
A   29
 H13
A   30
 H14
A   31
 H15
A   32
 H16
A   33
 H17
A   34
 H18
M  END
>  <ref_pdb>  (46) 
x0310_0A

>  <ref_mols>  (46) 
x0310_0A,x0554_0A

>  <original SMILES>  (46) 
COc1ccc(C)cc1NC1CCC[C@H]1F

>  <rationale>  (46) 
info halogenbond:P107; hydroph_interaction:V124+Y89; 

>  <intxn_cluster>  (46) 
105

>  <intxn_cluster_rank>  (46) 
11

>  <N_interactions>  (46) 
3

>  <∆∆G>  (46) 
-9.252765

>  <$/mg>  (46) 
244.5

>  <comRMSD>  (46) 
0.826274

>  <N_rotatable_bonds>  (46) 
5

>  <N_analogues_07>  (46) 
0

>  <deep_P1_sidechain>  (46) 
True

>  <farthest_distance_to_substrate>  (46) 
2.397221

>  <hbond:SER:7>  (46) 
hbond:SER:7    0
hbond:SER:7    0
Name: 45, dtype: object

>  <halogenbond:SER:7>  (46) 
halogenbond:SER:7    0
halogenbond:SER:7    0
Name: 45, dtype: object

>  <hbond:GLY:8>  (46) 
hbond:GLY:8    0
hbond:GLY:8    0
Name: 45, dtype: object

>  <hydroph_interaction:ASN:19>  (46) 
hydroph_interaction:ASN:19    0
hydroph_interaction:ASN:19    0
Name: 45, dtype: object

>  <hbond:ASN:19>  (46) 
hbond:ASN:19    0
hbond:ASN:19    0
Name: 45, dtype: object

>  <halogenbond:ASN:19>  (46) 
halogenbond:ASN:19    0
halogenbond:ASN:19    0
Name: 45, dtype: object

>  <hbond:ARG:20>  (46) 
hbond:ARG:20    0
hbond:ARG:20    0
Name: 45, dtype: object

>  <hydroph_interaction:ARG:20>  (46) 
hydroph_interaction:ARG:20    0
hydroph_interaction:ARG:20    0
Name: 45, dtype: object

>  <saltbridge:ARG:20>  (46) 
saltbridge:ARG:20    0
saltbridge:ARG:20    0
Name: 45, dtype: object

>  <halogenbond:ARG:20>  (46) 
halogenbond:ARG:20    0
halogenbond:ARG:20    0
Name: 45, dtype: object

>  <pication:ARG:20>  (46) 
pication:ARG:20    0
pication:ARG:20    0
Name: 45, dtype: object

>  <hbond:HIS:21>  (46) 
hbond:HIS:21    0
hbond:HIS:21    0
Name: 45, dtype: object

>  <hydroph_interaction:HIS:21>  (46) 
hydroph_interaction:HIS:21    0
hydroph_interaction:HIS:21    0
Name: 45, dtype: object

>  <saltbridge:HIS:21>  (46) 
saltbridge:HIS:21    0
saltbridge:HIS:21    0
Name: 45, dtype: object

>  <pistack:HIS:21>  (46) 
pistack:HIS:21    0
pistack:HIS:21    0
Name: 45, dtype: object

>  <pication:HIS:21>  (46) 
pication:HIS:21    0
pication:HIS:21    0
Name: 45, dtype: object

>  <halogenbond:HIS:21>  (46) 
halogenbond:HIS:21    0
halogenbond:HIS:21    0
Name: 45, dtype: object

>  <hydroph_interaction:LEU:22>  (46) 
hydroph_interaction:LEU:22    0
hydroph_interaction:LEU:22    0
Name: 45, dtype: object

>  <hbond:LEU:22>  (46) 
hbond:LEU:22    0
hbond:LEU:22    0
Name: 45, dtype: object

>  <hydroph_interaction:TRP:28>  (46) 
hydroph_interaction:TRP:28    0
hydroph_interaction:TRP:28    0
Name: 45, dtype: object

>  <hbond:SER:36>  (46) 
hbond:SER:36    0
hbond:SER:36    0
Name: 45, dtype: object

>  <halogenbond:SER:36>  (46) 
halogenbond:SER:36    0
halogenbond:SER:36    0
Name: 45, dtype: object

>  <hbond:ARG:38>  (46) 
hbond:ARG:38    0
hbond:ARG:38    0
Name: 45, dtype: object

>  <halogenbond:ARG:38>  (46) 
halogenbond:ARG:38    0
halogenbond:ARG:38    0
Name: 45, dtype: object

>  <hbond:ASP:39>  (46) 
hbond:ASP:39    0
hbond:ASP:39    0
Name: 45, dtype: object

>  <saltbridge:ASP:39>  (46) 
saltbridge:ASP:39    0
saltbridge:ASP:39    0
Name: 45, dtype: object

>  <hydroph_interaction:ASP:39>  (46) 
hydroph_interaction:ASP:39    0
hydroph_interaction:ASP:39    0
Name: 45, dtype: object

>  <halogenbond:ASP:39>  (46) 
halogenbond:ASP:39    0
halogenbond:ASP:39    0
Name: 45, dtype: object

>  <hydroph_interaction:LEU:40>  (46) 
hydroph_interaction:LEU:40    0
hydroph_interaction:LEU:40    0
Name: 45, dtype: object

>  <hydroph_interaction:TYR:63>  (46) 
hydroph_interaction:TYR:63    0
hydroph_interaction:TYR:63    0
Name: 45, dtype: object

>  <pistack:TYR:63>  (46) 
pistack:TYR:63    0
pistack:TYR:63    0
Name: 45, dtype: object

>  <hbond:TYR:63>  (46) 
hbond:TYR:63    0
hbond:TYR:63    0
Name: 45, dtype: object

>  <hbond:TYR:64>  (46) 
hbond:TYR:64    0
hbond:TYR:64    0
Name: 45, dtype: object

>  <halogenbond:TYR:64>  (46) 
halogenbond:TYR:64    0
halogenbond:TYR:64    0
Name: 45, dtype: object

>  <hydroph_interaction:TYR:64>  (46) 
hydroph_interaction:TYR:64    0
hydroph_interaction:TYR:64    0
Name: 45, dtype: object

>  <hbond:CYS:65>  (46) 
hbond:CYS:65    0
hbond:CYS:65    0
Name: 45, dtype: object

>  <halogenbond:CYS:65>  (46) 
halogenbond:CYS:65    0
halogenbond:CYS:65    0
Name: 45, dtype: object

>  <hbond:SER:66>  (46) 
hbond:SER:66    0
hbond:SER:66    0
Name: 45, dtype: object

>  <hbond:SER:67>  (46) 
hbond:SER:67    0
hbond:SER:67    0
Name: 45, dtype: object

>  <halogenbond:SER:67>  (46) 
halogenbond:SER:67    0
halogenbond:SER:67    0
Name: 45, dtype: object

>  <hydroph_interaction:ARG:68>  (46) 
hydroph_interaction:ARG:68    0
hydroph_interaction:ARG:68    0
Name: 45, dtype: object

>  <hbond:ARG:68>  (46) 
hbond:ARG:68    0
hbond:ARG:68    0
Name: 45, dtype: object

>  <saltbridge:ARG:68>  (46) 
saltbridge:ARG:68    0
saltbridge:ARG:68    0
Name: 45, dtype: object

>  <pication:ARG:68>  (46) 
pication:ARG:68    0
pication:ARG:68    0
Name: 45, dtype: object

>  <hydroph_interaction:TYR:72>  (46) 
hydroph_interaction:TYR:72    0
hydroph_interaction:TYR:72    0
Name: 45, dtype: object

>  <hydroph_interaction:VAL:74>  (46) 
hydroph_interaction:VAL:74    0
hydroph_interaction:VAL:74    0
Name: 45, dtype: object

>  <hydroph_interaction:PHE:76>  (46) 
hydroph_interaction:PHE:76    0
hydroph_interaction:PHE:76    0
Name: 45, dtype: object

>  <hbond:SER:77>  (46) 
hbond:SER:77    0
hbond:SER:77    0
Name: 45, dtype: object

>  <hbond:SER:80>  (46) 
hbond:SER:80    0
hbond:SER:80    0
Name: 45, dtype: object

>  <hbond:LEU:81>  (46) 
hbond:LEU:81    0
hbond:LEU:81    0
Name: 45, dtype: object

>  <halogenbond:LEU:81>  (46) 
halogenbond:LEU:81    0
halogenbond:LEU:81    0
Name: 45, dtype: object

>  <hydroph_interaction:LEU:81>  (46) 
hydroph_interaction:LEU:81    0
hydroph_interaction:LEU:81    0
Name: 45, dtype: object

>  <hydroph_interaction:ILE:82>  (46) 
hydroph_interaction:ILE:82    0
hydroph_interaction:ILE:82    0
Name: 45, dtype: object

>  <hbond:ILE:82>  (46) 
hbond:ILE:82    0
hbond:ILE:82    0
Name: 45, dtype: object

>  <hydroph_interaction:PHE:83>  (46) 
hydroph_interaction:PHE:83    0
hydroph_interaction:PHE:83    0
Name: 45, dtype: object

>  <hbond:PHE:83>  (46) 
hbond:PHE:83    0
hbond:PHE:83    0
Name: 45, dtype: object

>  <halogenbond:PHE:83>  (46) 
halogenbond:PHE:83    0
halogenbond:PHE:83    0
Name: 45, dtype: object

>  <pistack:PHE:83>  (46) 
pistack:PHE:83    0
pistack:PHE:83    0
Name: 45, dtype: object

>  <hydroph_interaction:VAL:84>  (46) 
hydroph_interaction:VAL:84    0
hydroph_interaction:VAL:84    0
Name: 45, dtype: object

>  <hbond:VAL:84>  (46) 
hbond:VAL:84    0
hbond:VAL:84    0
Name: 45, dtype: object

>  <halogenbond:VAL:84>  (46) 
halogenbond:VAL:84    0
halogenbond:VAL:84    0
Name: 45, dtype: object

>  <hydroph_interaction:GLU:85>  (46) 
hydroph_interaction:GLU:85    0
hydroph_interaction:GLU:85    0
Name: 45, dtype: object

>  <hbond:GLU:85>  (46) 
hbond:GLU:85    0
hbond:GLU:85    0
Name: 45, dtype: object

>  <saltbridge:GLU:85>  (46) 
saltbridge:GLU:85    0
saltbridge:GLU:85    0
Name: 45, dtype: object

>  <halogenbond:GLU:85>  (46) 
halogenbond:GLU:85    0
halogenbond:GLU:85    0
Name: 45, dtype: object

>  <hbond:ALA:86>  (46) 
hbond:ALA:86    0
hbond:ALA:86    0
Name: 45, dtype: object

>  <halogenbond:ALA:86>  (46) 
halogenbond:ALA:86    0
halogenbond:ALA:86    0
Name: 45, dtype: object

>  <hydroph_interaction:ALA:86>  (46) 
hydroph_interaction:ALA:86    0
hydroph_interaction:ALA:86    0
Name: 45, dtype: object

>  <hbond:SER:87>  (46) 
hbond:SER:87    0
hbond:SER:87    0
Name: 45, dtype: object

>  <halogenbond:SER:87>  (46) 
halogenbond:SER:87    0
halogenbond:SER:87    0
Name: 45, dtype: object

>  <hbond:GLU:88>  (46) 
hbond:GLU:88    0
hbond:GLU:88    0
Name: 45, dtype: object

>  <hydroph_interaction:GLU:88>  (46) 
hydroph_interaction:GLU:88    0
hydroph_interaction:GLU:88    0
Name: 45, dtype: object

>  <halogenbond:GLU:88>  (46) 
halogenbond:GLU:88    0
halogenbond:GLU:88    0
Name: 45, dtype: object

>  <saltbridge:GLU:88>  (46) 
saltbridge:GLU:88    0
saltbridge:GLU:88    0
Name: 45, dtype: object

>  <hydroph_interaction:TYR:89>  (46) 
hydroph_interaction:TYR:89    1
hydroph_interaction:TYR:89    1
Name: 45, dtype: object

>  <pistack:TYR:89>  (46) 
pistack:TYR:89    0
pistack:TYR:89    0
Name: 45, dtype: object

>  <hbond:TYR:89>  (46) 
hbond:TYR:89    0
hbond:TYR:89    0
Name: 45, dtype: object

>  <halogenbond:TYR:89>  (46) 
halogenbond:TYR:89    0
halogenbond:TYR:89    0
Name: 45, dtype: object

>  <hbond:TYR:90>  (46) 
hbond:TYR:90    0
hbond:TYR:90    0
Name: 45, dtype: object

>  <hydroph_interaction:TYR:90>  (46) 
hydroph_interaction:TYR:90    0
hydroph_interaction:TYR:90    0
Name: 45, dtype: object

>  <pistack:TYR:90>  (46) 
pistack:TYR:90    0
pistack:TYR:90    0
Name: 45, dtype: object

>  <halogenbond:TYR:90>  (46) 
halogenbond:TYR:90    0
halogenbond:TYR:90    0
Name: 45, dtype: object

>  <pication:TYR:90>  (46) 
pication:TYR:90    0
pication:TYR:90    0
Name: 45, dtype: object

>  <hydroph_interaction:PRO:91>  (46) 
hydroph_interaction:PRO:91    0
hydroph_interaction:PRO:91    0
Name: 45, dtype: object

>  <halogenbond:PRO:91>  (46) 
halogenbond:PRO:91    0
halogenbond:PRO:91    0
Name: 45, dtype: object

>  <hbond:PRO:91>  (46) 
hbond:PRO:91    0
hbond:PRO:91    0
Name: 45, dtype: object

>  <hydroph_interaction:ALA:92>  (46) 
hydroph_interaction:ALA:92    0
hydroph_interaction:ALA:92    0
Name: 45, dtype: object

>  <hbond:ARG:93>  (46) 
hbond:ARG:93    0
hbond:ARG:93    0
Name: 45, dtype: object

>  <pication:ARG:93>  (46) 
pication:ARG:93    0
pication:ARG:93    0
Name: 45, dtype: object

>  <saltbridge:ARG:93>  (46) 
saltbridge:ARG:93    0
saltbridge:ARG:93    0
Name: 45, dtype: object

>  <hydroph_interaction:ARG:93>  (46) 
hydroph_interaction:ARG:93    0
hydroph_interaction:ARG:93    0
Name: 45, dtype: object

>  <halogenbond:ARG:93>  (46) 
halogenbond:ARG:93    0
halogenbond:ARG:93    0
Name: 45, dtype: object

>  <hydroph_interaction:TYR:94>  (46) 
hydroph_interaction:TYR:94    0
hydroph_interaction:TYR:94    0
Name: 45, dtype: object

>  <hbond:TYR:94>  (46) 
hbond:TYR:94    0
hbond:TYR:94    0
Name: 45, dtype: object

>  <halogenbond:GLN:95>  (46) 
halogenbond:GLN:95    0
halogenbond:GLN:95    0
Name: 45, dtype: object

>  <hbond:GLN:95>  (46) 
hbond:GLN:95    0
hbond:GLN:95    0
Name: 45, dtype: object

>  <hydroph_interaction:GLN:95>  (46) 
hydroph_interaction:GLN:95    0
hydroph_interaction:GLN:95    0
Name: 45, dtype: object

>  <hbond:SER:96>  (46) 
hbond:SER:96    0
hbond:SER:96    0
Name: 45, dtype: object

>  <hydroph_interaction:LEU:98>  (46) 
hydroph_interaction:LEU:98    0
hydroph_interaction:LEU:98    0
Name: 45, dtype: object

>  <hbond:LEU:98>  (46) 
hbond:LEU:98    0
hbond:LEU:98    0
Name: 45, dtype: object

>  <hbond:MET:99>  (46) 
hbond:MET:99    0
hbond:MET:99    0
Name: 45, dtype: object

>  <hydroph_interaction:MET:99>  (46) 
hydroph_interaction:MET:99    0
hydroph_interaction:MET:99    0
Name: 45, dtype: object

>  <halogenbond:MET:99>  (46) 
halogenbond:MET:99    0
halogenbond:MET:99    0
Name: 45, dtype: object

>  <hydroph_interaction:LEU:100>  (46) 
hydroph_interaction:LEU:100    0
hydroph_interaction:LEU:100    0
Name: 45, dtype: object

>  <hbond:LEU:100>  (46) 
hbond:LEU:100    0
hbond:LEU:100    0
Name: 45, dtype: object

>  <hbond:ALA:101>  (46) 
hbond:ALA:101    0
hbond:ALA:101    0
Name: 45, dtype: object

>  <hydroph_interaction:ALA:101>  (46) 
hydroph_interaction:ALA:101    0
hydroph_interaction:ALA:101    0
Name: 45, dtype: object

>  <hydroph_interaction:VAL:102>  (46) 
hydroph_interaction:VAL:102    0
hydroph_interaction:VAL:102    0
Name: 45, dtype: object

>  <hbond:VAL:102>  (46) 
hbond:VAL:102    0
hbond:VAL:102    0
Name: 45, dtype: object

>  <hbond:GLY:103>  (46) 
hbond:GLY:103    0
hbond:GLY:103    0
Name: 45, dtype: object

>  <halogenbond:GLY:103>  (46) 
halogenbond:GLY:103    0
halogenbond:GLY:103    0
Name: 45, dtype: object

>  <hydroph_interaction:HIS:104>  (46) 
hydroph_interaction:HIS:104    0
hydroph_interaction:HIS:104    0
Name: 45, dtype: object

>  <hbond:HIS:104>  (46) 
hbond:HIS:104    0
hbond:HIS:104    0
Name: 45, dtype: object

>  <saltbridge:HIS:104>  (46) 
saltbridge:HIS:104    0
saltbridge:HIS:104    0
Name: 45, dtype: object

>  <pication:HIS:104>  (46) 
pication:HIS:104    0
pication:HIS:104    0
Name: 45, dtype: object

>  <pistack:HIS:104>  (46) 
pistack:HIS:104    0
pistack:HIS:104    0
Name: 45, dtype: object

>  <halogenbond:HIS:104>  (46) 
halogenbond:HIS:104    0
halogenbond:HIS:104    0
Name: 45, dtype: object

>  <hbond:SER:105>  (46) 
hbond:SER:105    0
hbond:SER:105    0
Name: 45, dtype: object

>  <halogenbond:SER:105>  (46) 
halogenbond:SER:105    0
halogenbond:SER:105    0
Name: 45, dtype: object

>  <hbond:GLU:106>  (46) 
hbond:GLU:106    0
hbond:GLU:106    0
Name: 45, dtype: object

>  <hydroph_interaction:GLU:106>  (46) 
hydroph_interaction:GLU:106    0
hydroph_interaction:GLU:106    0
Name: 45, dtype: object

>  <saltbridge:GLU:106>  (46) 
saltbridge:GLU:106    0
saltbridge:GLU:106    0
Name: 45, dtype: object

>  <halogenbond:GLU:106>  (46) 
halogenbond:GLU:106    0
halogenbond:GLU:106    0
Name: 45, dtype: object

>  <hydroph_interaction:PRO:107>  (46) 
hydroph_interaction:PRO:107    0
hydroph_interaction:PRO:107    0
Name: 45, dtype: object

>  <hbond:PRO:107>  (46) 
hbond:PRO:107    0
hbond:PRO:107    0
Name: 45, dtype: object

>  <halogenbond:PRO:107>  (46) 
halogenbond:PRO:107    1
halogenbond:PRO:107    1
Name: 45, dtype: object

>  <hbond:GLY:108>  (46) 
hbond:GLY:108    0
hbond:GLY:108    0
Name: 45, dtype: object

>  <halogenbond:GLY:108>  (46) 
halogenbond:GLY:108    0
halogenbond:GLY:108    0
Name: 45, dtype: object

>  <hbond:ASP:109>  (46) 
hbond:ASP:109    0
hbond:ASP:109    0
Name: 45, dtype: object

>  <hydroph_interaction:ASP:109>  (46) 
hydroph_interaction:ASP:109    0
hydroph_interaction:ASP:109    0
Name: 45, dtype: object

>  <saltbridge:ASP:109>  (46) 
saltbridge:ASP:109    0
saltbridge:ASP:109    0
Name: 45, dtype: object

>  <hbond:CYS:110>  (46) 
hbond:CYS:110    0
hbond:CYS:110    0
Name: 45, dtype: object

>  <halogenbond:CYS:110>  (46) 
halogenbond:CYS:110    0
halogenbond:CYS:110    0
Name: 45, dtype: object

>  <hbond:GLY:111>  (46) 
hbond:GLY:111    0
hbond:GLY:111    0
Name: 45, dtype: object

>  <hbond:GLY:112>  (46) 
hbond:GLY:112    0
hbond:GLY:112    0
Name: 45, dtype: object

>  <hbond:ILE:113>  (46) 
hbond:ILE:113    0
hbond:ILE:113    0
Name: 45, dtype: object

>  <hydroph_interaction:LEU:114>  (46) 
hydroph_interaction:LEU:114    0
hydroph_interaction:LEU:114    0
Name: 45, dtype: object

>  <hbond:LEU:114>  (46) 
hbond:LEU:114    0
hbond:LEU:114    0
Name: 45, dtype: object

>  <hydroph_interaction:ILE:123>  (46) 
hydroph_interaction:ILE:123    0
hydroph_interaction:ILE:123    0
Name: 45, dtype: object

>  <hbond:ILE:123>  (46) 
hbond:ILE:123    0
hbond:ILE:123    0
Name: 45, dtype: object

>  <hydroph_interaction:VAL:124>  (46) 
hydroph_interaction:VAL:124    1
hydroph_interaction:VAL:124    1
Name: 45, dtype: object

>  <hbond:VAL:124>  (46) 
hbond:VAL:124    0
hbond:VAL:124    0
Name: 45, dtype: object

>  <halogenbond:VAL:124>  (46) 
halogenbond:VAL:124    0
halogenbond:VAL:124    0
Name: 45, dtype: object

>  <hbond:SER:125>  (46) 
hbond:SER:125    0
hbond:SER:125    0
Name: 45, dtype: object

>  <halogenbond:SER:125>  (46) 
halogenbond:SER:125    0
halogenbond:SER:125    0
Name: 45, dtype: object

>  <hydroph_interaction:THR:126>  (46) 
hydroph_interaction:THR:126    0
hydroph_interaction:THR:126    0
Name: 45, dtype: object

>  <hbond:THR:126>  (46) 
hbond:THR:126    0
hbond:THR:126    0
Name: 45, dtype: object

>  <halogenbond:THR:126>  (46) 
halogenbond:THR:126    0
halogenbond:THR:126    0
Name: 45, dtype: object

>  <hbond:GLY:127>  (46) 
hbond:GLY:127    0
hbond:GLY:127    0
Name: 45, dtype: object

>  <halogenbond:GLY:127>  (46) 
halogenbond:GLY:127    0
halogenbond:GLY:127    0
Name: 45, dtype: object

>  <hydroph_interaction:GLY:127>  (46) 
hydroph_interaction:GLY:127    0
hydroph_interaction:GLY:127    0
Name: 45, dtype: object

>  <hbond:GLY:128>  (46) 
hbond:GLY:128    0
hbond:GLY:128    0
Name: 45, dtype: object

>  <halogenbond:GLY:128>  (46) 
halogenbond:GLY:128    0
halogenbond:GLY:128    0
Name: 45, dtype: object

>  <hydroph_interaction:GLY:128>  (46) 
hydroph_interaction:GLY:128    0
hydroph_interaction:GLY:128    0
Name: 45, dtype: object

>  <hbond:ASN:129>  (46) 
hbond:ASN:129    0
hbond:ASN:129    0
Name: 45, dtype: object

>  <hydroph_interaction:ASN:129>  (46) 
hydroph_interaction:ASN:129    0
hydroph_interaction:ASN:129    0
Name: 45, dtype: object

>  <halogenbond:ASN:129>  (46) 
halogenbond:ASN:129    0
halogenbond:ASN:129    0
Name: 45, dtype: object

>  <hbond:GLY:130>  (46) 
hbond:GLY:130    0
hbond:GLY:130    0
Name: 45, dtype: object

>  <hydroph_interaction:LEU:131>  (46) 
hydroph_interaction:LEU:131    0
hydroph_interaction:LEU:131    0
Name: 45, dtype: object

>  <hbond:LEU:131>  (46) 
hbond:LEU:131    0
hbond:LEU:131    0
Name: 45, dtype: object

>  <halogenbond:LEU:131>  (46) 
halogenbond:LEU:131    0
halogenbond:LEU:131    0
Name: 45, dtype: object

>  <hydroph_interaction:VAL:132>  (46) 
hydroph_interaction:VAL:132    0
hydroph_interaction:VAL:132    0
Name: 45, dtype: object

>  <hbond:VAL:132>  (46) 
hbond:VAL:132    0
hbond:VAL:132    0
Name: 45, dtype: object

>  <hbond:GLY:133>  (46) 
hbond:GLY:133    0
hbond:GLY:133    0
Name: 45, dtype: object

>  <halogenbond:GLY:133>  (46) 
halogenbond:GLY:133    0
halogenbond:GLY:133    0
Name: 45, dtype: object

>  <hydroph_interaction:PHE:134>  (46) 
hydroph_interaction:PHE:134    0
hydroph_interaction:PHE:134    0
Name: 45, dtype: object

>  <hbond:PHE:134>  (46) 
hbond:PHE:134    0
hbond:PHE:134    0
Name: 45, dtype: object

>  <pistack:PHE:134>  (46) 
pistack:PHE:134    0
pistack:PHE:134    0
Name: 45, dtype: object

>  <pication:PHE:134>  (46) 
pication:PHE:134    0
pication:PHE:134    0
Name: 45, dtype: object

>  <hydroph_interaction:ALA:135>  (46) 
hydroph_interaction:ALA:135    0
hydroph_interaction:ALA:135    0
Name: 45, dtype: object

>  <hbond:ALA:135>  (46) 
hbond:ALA:135    0
hbond:ALA:135    0
Name: 45, dtype: object

$$$$
PV_005597294848
     RDKit          3D

 41 43  0  0  0  0  0  0  0  0999 V2000
    6.1230   15.2720   23.3800 C   0  0  0  0  0  0  0  0  0  0  0  0
    7.4780   14.8010   23.4130 O   0  0  0  0  0  0  0  0  0  0  0  0
    7.8100   13.9800   24.4580 C   0  0  0  0  0  0  0  0  0  0  0  0
    7.6440   14.3270   25.6220 O   0  0  0  0  0  0  0  0  0  0  0  0
    8.3770   12.6700   24.1450 C   0  0  0  0  0  0  0  0  0  0  0  0
    7.8160   11.3840   24.8210 C   0  0  0  0  0  0  0  0  0  0  0  0
    8.4990   10.1030   24.3750 C   0  0  0  0  0  0  0  0  0  0  0  0
    9.6000   10.1160   23.3880 C   0  0  0  0  0  0  0  0  0  0  0  0
   10.3690    8.7150   22.8740 Cl  0  0  0  0  0  0  0  0  0  0  0  0
   10.0230   11.2900   22.8640 C   0  0  0  0  0  0  0  0  0  0  0  0
    9.4370   12.5770   23.2150 C   0  0  0  0  0  0  0  0  0  0  0  0
   10.0880   13.7080   22.4770 C   0  0  0  0  0  0  0  0  0  0  0  0
   11.4590   13.9690   22.8620 N   0  0  0  0  0  0  0  0  0  0  0  0
   12.5020   14.3290   22.0850 C   0  0  0  0  0  0  0  0  0  0  0  0
   12.4490   14.4230   20.5870 C   0  0  0  0  0  0  0  0  0  0  0  0
   13.5910   14.5980   22.7370 N   0  0  0  0  0  0  0  0  0  0  0  0
   13.2420   14.3940   24.0590 N   0  0  0  0  0  0  0  0  0  0  0  0
   14.2200   14.0810   25.0330 C   0  0  0  0  0  0  0  0  0  0  0  0
   14.9610   12.8570   24.9140 C   0  0  0  0  0  0  0  0  0  0  0  0
   15.8930   12.6060   25.9000 C   0  0  0  0  0  0  0  0  0  0  0  0
   16.1240   13.4720   26.9640 C   0  0  0  0  0  0  0  0  0  0  0  0
   15.4030   14.6510   27.0700 C   0  0  0  0  0  0  0  0  0  0  0  0
   14.4560   14.9480   26.1040 C   0  0  0  0  0  0  0  0  0  0  0  0
   11.8370   14.3770   24.1220 C   0  0  0  0  0  0  0  0  0  0  0  0
   11.0900   14.6600   25.0450 O   0  0  0  0  0  0  0  0  0  0  0  0
    6.0280   16.1330   24.0460 H   0  0  0  0  0  0  0  0  0  0  0  0
    5.8380   15.5960   22.3720 H   0  0  0  0  0  0  0  0  0  0  0  0
    5.4200   14.4980   23.7100 H   0  0  0  0  0  0  0  0  0  0  0  0
    7.0160   11.2960   25.5450 H   0  0  0  0  0  0  0  0  0  0  0  0
    8.1240    9.1980   24.8250 H   0  0  0  0  0  0  0  0  0  0  0  0
   10.8330   11.2540   22.1480 H   0  0  0  0  0  0  0  0  0  0  0  0
    9.4860   14.6010   22.6550 H   0  0  0  0  0  0  0  0  0  0  0  0
   10.0960   13.5670   21.4010 H   0  0  0  0  0  0  0  0  0  0  0  0
   12.9250   13.6430   19.9960 H   0  0  0  0  0  0  0  0  0  0  0  0
   11.4030   14.4860   20.2800 H   0  0  0  0  0  0  0  0  0  0  0  0
   12.9260   15.3570   20.3030 H   0  0  0  0  0  0  0  0  0  0  0  0
   14.8100   12.1560   24.1020 H   0  0  0  0  0  0  0  0  0  0  0  0
   16.4700   11.6860   25.8390 H   0  0  0  0  0  0  0  0  0  0  0  0
   16.8690   13.2250   27.7120 H   0  0  0  0  0  0  0  0  0  0  0  0
   15.5730   15.3360   27.8960 H   0  0  0  0  0  0  0  0  0  0  0  0
   13.9080   15.8730   26.2120 H   0  0  0  0  0  0  0  0  0  0  0  0
  1  2  1  0
  2  3  1  0
  3  4  2  0
  3  5  1  0
  5  6  2  0
  6  7  1  0
  7  8  2  0
  8  9  1  0
  8 10  1  0
 10 11  2  0
 11 12  1  0
 12 13  1  0
 13 14  1  0
 14 15  1  0
 14 16  2  0
 16 17  1  0
 17 18  1  0
 18 19  2  0
 19 20  1  0
 20 21  2  0
 21 22  1  0
 22 23  2  0
 17 24  1  0
 24 25  2  0
 11  5  1  0
 24 13  1  0
 23 18  1  0
  1 26  1  0
  1 27  1  0
  1 28  1  0
  6 29  1  0
  7 30  1  0
 10 31  1  0
 12 32  1  0
 12 33  1  0
 15 34  1  0
 15 35  1  0
 15 36  1  0
 19 37  1  0
 20 38  1  0
 21 39  1  0
 22 40  1  0
 23 41  1  0
A    1
 C1 
A    2
 O1 
A    3
 C2 
A    4
 O2 
A    5
 C3 
A    6
 C4 
A    7
 C5 
A    8
 C6 
A    9
CL1 
A   10
 C7 
A   11
 C8 
A   12
 C9 
A   13
 N1 
A   14
 C10
A   15
 C11
A   16
 N2 
A   17
 N3 
A   18
 C12
A   19
 C13
A   20
 C14
A   21
 C15
A   22
 C16
A   23
 C17
A   24
 C18
A   25
 O3 
A   26
 H1 
A   27
 H2 
A   28
 H3 
A   29
 H4 
A   30
 H5 
A   31
 H6 
A   32
 H7 
A   33
 H8 
A   34
 H9 
A   35
 H10
A   36
 H11
A   37
 H12
A   38
 H13
A   39
 H14
A   40
 H15
A   41
 H16
M  END
>  <ref_pdb>  (47) 
x0310_0A

>  <ref_mols>  (47) 
x0554_0A,x0310_0A

>  <original SMILES>  (47) 
COC(=O)c1ccc(Cl)cc1Cn1c(C)nn(-c2ccccc2)c1=O

>  <rationale>  (47) 
info hbond:E88; hydroph_interaction:P107+Y89+Y90+L22; 

>  <intxn_cluster>  (47) 
206

>  <intxn_cluster_rank>  (47) 
11

>  <N_interactions>  (47) 
7

>  <∆∆G>  (47) 
-12.761227

>  <$/mg>  (47) 
163.0

>  <comRMSD>  (47) 
0.923204

>  <N_rotatable_bonds>  (47) 
6

>  <N_analogues_07>  (47) 
0

>  <deep_P1_sidechain>  (47) 
False

>  <farthest_distance_to_substrate>  (47) 
2.303425

>  <hbond:SER:7>  (47) 
hbond:SER:7    0
hbond:SER:7    0
Name: 46, dtype: object

>  <halogenbond:SER:7>  (47) 
halogenbond:SER:7    0
halogenbond:SER:7    0
Name: 46, dtype: object

>  <hbond:GLY:8>  (47) 
hbond:GLY:8    0
hbond:GLY:8    0
Name: 46, dtype: object

>  <hydroph_interaction:ASN:19>  (47) 
hydroph_interaction:ASN:19    0
hydroph_interaction:ASN:19    0
Name: 46, dtype: object

>  <hbond:ASN:19>  (47) 
hbond:ASN:19    0
hbond:ASN:19    0
Name: 46, dtype: object

>  <halogenbond:ASN:19>  (47) 
halogenbond:ASN:19    0
halogenbond:ASN:19    0
Name: 46, dtype: object

>  <hbond:ARG:20>  (47) 
hbond:ARG:20    0
hbond:ARG:20    0
Name: 46, dtype: object

>  <hydroph_interaction:ARG:20>  (47) 
hydroph_interaction:ARG:20    0
hydroph_interaction:ARG:20    0
Name: 46, dtype: object

>  <saltbridge:ARG:20>  (47) 
saltbridge:ARG:20    0
saltbridge:ARG:20    0
Name: 46, dtype: object

>  <halogenbond:ARG:20>  (47) 
halogenbond:ARG:20    0
halogenbond:ARG:20    0
Name: 46, dtype: object

>  <pication:ARG:20>  (47) 
pication:ARG:20    0
pication:ARG:20    0
Name: 46, dtype: object

>  <hbond:HIS:21>  (47) 
hbond:HIS:21    0
hbond:HIS:21    0
Name: 46, dtype: object

>  <hydroph_interaction:HIS:21>  (47) 
hydroph_interaction:HIS:21    0
hydroph_interaction:HIS:21    0
Name: 46, dtype: object

>  <saltbridge:HIS:21>  (47) 
saltbridge:HIS:21    0
saltbridge:HIS:21    0
Name: 46, dtype: object

>  <pistack:HIS:21>  (47) 
pistack:HIS:21    0
pistack:HIS:21    0
Name: 46, dtype: object

>  <pication:HIS:21>  (47) 
pication:HIS:21    0
pication:HIS:21    0
Name: 46, dtype: object

>  <halogenbond:HIS:21>  (47) 
halogenbond:HIS:21    0
halogenbond:HIS:21    0
Name: 46, dtype: object

>  <hydroph_interaction:LEU:22>  (47) 
hydroph_interaction:LEU:22    1
hydroph_interaction:LEU:22    1
Name: 46, dtype: object

>  <hbond:LEU:22>  (47) 
hbond:LEU:22    0
hbond:LEU:22    0
Name: 46, dtype: object

>  <hydroph_interaction:TRP:28>  (47) 
hydroph_interaction:TRP:28    0
hydroph_interaction:TRP:28    0
Name: 46, dtype: object

>  <hbond:SER:36>  (47) 
hbond:SER:36    0
hbond:SER:36    0
Name: 46, dtype: object

>  <halogenbond:SER:36>  (47) 
halogenbond:SER:36    0
halogenbond:SER:36    0
Name: 46, dtype: object

>  <hbond:ARG:38>  (47) 
hbond:ARG:38    0
hbond:ARG:38    0
Name: 46, dtype: object

>  <halogenbond:ARG:38>  (47) 
halogenbond:ARG:38    0
halogenbond:ARG:38    0
Name: 46, dtype: object

>  <hbond:ASP:39>  (47) 
hbond:ASP:39    0
hbond:ASP:39    0
Name: 46, dtype: object

>  <saltbridge:ASP:39>  (47) 
saltbridge:ASP:39    0
saltbridge:ASP:39    0
Name: 46, dtype: object

>  <hydroph_interaction:ASP:39>  (47) 
hydroph_interaction:ASP:39    0
hydroph_interaction:ASP:39    0
Name: 46, dtype: object

>  <halogenbond:ASP:39>  (47) 
halogenbond:ASP:39    0
halogenbond:ASP:39    0
Name: 46, dtype: object

>  <hydroph_interaction:LEU:40>  (47) 
hydroph_interaction:LEU:40    0
hydroph_interaction:LEU:40    0
Name: 46, dtype: object

>  <hydroph_interaction:TYR:63>  (47) 
hydroph_interaction:TYR:63    0
hydroph_interaction:TYR:63    0
Name: 46, dtype: object

>  <pistack:TYR:63>  (47) 
pistack:TYR:63    0
pistack:TYR:63    0
Name: 46, dtype: object

>  <hbond:TYR:63>  (47) 
hbond:TYR:63    0
hbond:TYR:63    0
Name: 46, dtype: object

>  <hbond:TYR:64>  (47) 
hbond:TYR:64    0
hbond:TYR:64    0
Name: 46, dtype: object

>  <halogenbond:TYR:64>  (47) 
halogenbond:TYR:64    0
halogenbond:TYR:64    0
Name: 46, dtype: object

>  <hydroph_interaction:TYR:64>  (47) 
hydroph_interaction:TYR:64    0
hydroph_interaction:TYR:64    0
Name: 46, dtype: object

>  <hbond:CYS:65>  (47) 
hbond:CYS:65    0
hbond:CYS:65    0
Name: 46, dtype: object

>  <halogenbond:CYS:65>  (47) 
halogenbond:CYS:65    0
halogenbond:CYS:65    0
Name: 46, dtype: object

>  <hbond:SER:66>  (47) 
hbond:SER:66    0
hbond:SER:66    0
Name: 46, dtype: object

>  <hbond:SER:67>  (47) 
hbond:SER:67    0
hbond:SER:67    0
Name: 46, dtype: object

>  <halogenbond:SER:67>  (47) 
halogenbond:SER:67    0
halogenbond:SER:67    0
Name: 46, dtype: object

>  <hydroph_interaction:ARG:68>  (47) 
hydroph_interaction:ARG:68    0
hydroph_interaction:ARG:68    0
Name: 46, dtype: object

>  <hbond:ARG:68>  (47) 
hbond:ARG:68    0
hbond:ARG:68    0
Name: 46, dtype: object

>  <saltbridge:ARG:68>  (47) 
saltbridge:ARG:68    0
saltbridge:ARG:68    0
Name: 46, dtype: object

>  <pication:ARG:68>  (47) 
pication:ARG:68    0
pication:ARG:68    0
Name: 46, dtype: object

>  <hydroph_interaction:TYR:72>  (47) 
hydroph_interaction:TYR:72    0
hydroph_interaction:TYR:72    0
Name: 46, dtype: object

>  <hydroph_interaction:VAL:74>  (47) 
hydroph_interaction:VAL:74    0
hydroph_interaction:VAL:74    0
Name: 46, dtype: object

>  <hydroph_interaction:PHE:76>  (47) 
hydroph_interaction:PHE:76    0
hydroph_interaction:PHE:76    0
Name: 46, dtype: object

>  <hbond:SER:77>  (47) 
hbond:SER:77    0
hbond:SER:77    0
Name: 46, dtype: object

>  <hbond:SER:80>  (47) 
hbond:SER:80    0
hbond:SER:80    0
Name: 46, dtype: object

>  <hbond:LEU:81>  (47) 
hbond:LEU:81    0
hbond:LEU:81    0
Name: 46, dtype: object

>  <halogenbond:LEU:81>  (47) 
halogenbond:LEU:81    0
halogenbond:LEU:81    0
Name: 46, dtype: object

>  <hydroph_interaction:LEU:81>  (47) 
hydroph_interaction:LEU:81    0
hydroph_interaction:LEU:81    0
Name: 46, dtype: object

>  <hydroph_interaction:ILE:82>  (47) 
hydroph_interaction:ILE:82    0
hydroph_interaction:ILE:82    0
Name: 46, dtype: object

>  <hbond:ILE:82>  (47) 
hbond:ILE:82    0
hbond:ILE:82    0
Name: 46, dtype: object

>  <hydroph_interaction:PHE:83>  (47) 
hydroph_interaction:PHE:83    0
hydroph_interaction:PHE:83    0
Name: 46, dtype: object

>  <hbond:PHE:83>  (47) 
hbond:PHE:83    0
hbond:PHE:83    0
Name: 46, dtype: object

>  <halogenbond:PHE:83>  (47) 
halogenbond:PHE:83    0
halogenbond:PHE:83    0
Name: 46, dtype: object

>  <pistack:PHE:83>  (47) 
pistack:PHE:83    0
pistack:PHE:83    0
Name: 46, dtype: object

>  <hydroph_interaction:VAL:84>  (47) 
hydroph_interaction:VAL:84    0
hydroph_interaction:VAL:84    0
Name: 46, dtype: object

>  <hbond:VAL:84>  (47) 
hbond:VAL:84    0
hbond:VAL:84    0
Name: 46, dtype: object

>  <halogenbond:VAL:84>  (47) 
halogenbond:VAL:84    0
halogenbond:VAL:84    0
Name: 46, dtype: object

>  <hydroph_interaction:GLU:85>  (47) 
hydroph_interaction:GLU:85    0
hydroph_interaction:GLU:85    0
Name: 46, dtype: object

>  <hbond:GLU:85>  (47) 
hbond:GLU:85    0
hbond:GLU:85    0
Name: 46, dtype: object

>  <saltbridge:GLU:85>  (47) 
saltbridge:GLU:85    0
saltbridge:GLU:85    0
Name: 46, dtype: object

>  <halogenbond:GLU:85>  (47) 
halogenbond:GLU:85    0
halogenbond:GLU:85    0
Name: 46, dtype: object

>  <hbond:ALA:86>  (47) 
hbond:ALA:86    0
hbond:ALA:86    0
Name: 46, dtype: object

>  <halogenbond:ALA:86>  (47) 
halogenbond:ALA:86    0
halogenbond:ALA:86    0
Name: 46, dtype: object

>  <hydroph_interaction:ALA:86>  (47) 
hydroph_interaction:ALA:86    0
hydroph_interaction:ALA:86    0
Name: 46, dtype: object

>  <hbond:SER:87>  (47) 
hbond:SER:87    0
hbond:SER:87    0
Name: 46, dtype: object

>  <halogenbond:SER:87>  (47) 
halogenbond:SER:87    0
halogenbond:SER:87    0
Name: 46, dtype: object

>  <hbond:GLU:88>  (47) 
hbond:GLU:88    2
hbond:GLU:88    2
Name: 46, dtype: object

>  <hydroph_interaction:GLU:88>  (47) 
hydroph_interaction:GLU:88    0
hydroph_interaction:GLU:88    0
Name: 46, dtype: object

>  <halogenbond:GLU:88>  (47) 
halogenbond:GLU:88    0
halogenbond:GLU:88    0
Name: 46, dtype: object

>  <saltbridge:GLU:88>  (47) 
saltbridge:GLU:88    0
saltbridge:GLU:88    0
Name: 46, dtype: object

>  <hydroph_interaction:TYR:89>  (47) 
hydroph_interaction:TYR:89    2
hydroph_interaction:TYR:89    2
Name: 46, dtype: object

>  <pistack:TYR:89>  (47) 
pistack:TYR:89    0
pistack:TYR:89    0
Name: 46, dtype: object

>  <hbond:TYR:89>  (47) 
hbond:TYR:89    0
hbond:TYR:89    0
Name: 46, dtype: object

>  <halogenbond:TYR:89>  (47) 
halogenbond:TYR:89    0
halogenbond:TYR:89    0
Name: 46, dtype: object

>  <hbond:TYR:90>  (47) 
hbond:TYR:90    0
hbond:TYR:90    0
Name: 46, dtype: object

>  <hydroph_interaction:TYR:90>  (47) 
hydroph_interaction:TYR:90    1
hydroph_interaction:TYR:90    1
Name: 46, dtype: object

>  <pistack:TYR:90>  (47) 
pistack:TYR:90    0
pistack:TYR:90    0
Name: 46, dtype: object

>  <halogenbond:TYR:90>  (47) 
halogenbond:TYR:90    0
halogenbond:TYR:90    0
Name: 46, dtype: object

>  <pication:TYR:90>  (47) 
pication:TYR:90    0
pication:TYR:90    0
Name: 46, dtype: object

>  <hydroph_interaction:PRO:91>  (47) 
hydroph_interaction:PRO:91    0
hydroph_interaction:PRO:91    0
Name: 46, dtype: object

>  <halogenbond:PRO:91>  (47) 
halogenbond:PRO:91    0
halogenbond:PRO:91    0
Name: 46, dtype: object

>  <hbond:PRO:91>  (47) 
hbond:PRO:91    0
hbond:PRO:91    0
Name: 46, dtype: object

>  <hydroph_interaction:ALA:92>  (47) 
hydroph_interaction:ALA:92    0
hydroph_interaction:ALA:92    0
Name: 46, dtype: object

>  <hbond:ARG:93>  (47) 
hbond:ARG:93    0
hbond:ARG:93    0
Name: 46, dtype: object

>  <pication:ARG:93>  (47) 
pication:ARG:93    0
pication:ARG:93    0
Name: 46, dtype: object

>  <saltbridge:ARG:93>  (47) 
saltbridge:ARG:93    0
saltbridge:ARG:93    0
Name: 46, dtype: object

>  <hydroph_interaction:ARG:93>  (47) 
hydroph_interaction:ARG:93    0
hydroph_interaction:ARG:93    0
Name: 46, dtype: object

>  <halogenbond:ARG:93>  (47) 
halogenbond:ARG:93    0
halogenbond:ARG:93    0
Name: 46, dtype: object

>  <hydroph_interaction:TYR:94>  (47) 
hydroph_interaction:TYR:94    0
hydroph_interaction:TYR:94    0
Name: 46, dtype: object

>  <hbond:TYR:94>  (47) 
hbond:TYR:94    0
hbond:TYR:94    0
Name: 46, dtype: object

>  <halogenbond:GLN:95>  (47) 
halogenbond:GLN:95    0
halogenbond:GLN:95    0
Name: 46, dtype: object

>  <hbond:GLN:95>  (47) 
hbond:GLN:95    0
hbond:GLN:95    0
Name: 46, dtype: object

>  <hydroph_interaction:GLN:95>  (47) 
hydroph_interaction:GLN:95    0
hydroph_interaction:GLN:95    0
Name: 46, dtype: object

>  <hbond:SER:96>  (47) 
hbond:SER:96    0
hbond:SER:96    0
Name: 46, dtype: object

>  <hydroph_interaction:LEU:98>  (47) 
hydroph_interaction:LEU:98    0
hydroph_interaction:LEU:98    0
Name: 46, dtype: object

>  <hbond:LEU:98>  (47) 
hbond:LEU:98    0
hbond:LEU:98    0
Name: 46, dtype: object

>  <hbond:MET:99>  (47) 
hbond:MET:99    0
hbond:MET:99    0
Name: 46, dtype: object

>  <hydroph_interaction:MET:99>  (47) 
hydroph_interaction:MET:99    0
hydroph_interaction:MET:99    0
Name: 46, dtype: object

>  <halogenbond:MET:99>  (47) 
halogenbond:MET:99    0
halogenbond:MET:99    0
Name: 46, dtype: object

>  <hydroph_interaction:LEU:100>  (47) 
hydroph_interaction:LEU:100    0
hydroph_interaction:LEU:100    0
Name: 46, dtype: object

>  <hbond:LEU:100>  (47) 
hbond:LEU:100    0
hbond:LEU:100    0
Name: 46, dtype: object

>  <hbond:ALA:101>  (47) 
hbond:ALA:101    0
hbond:ALA:101    0
Name: 46, dtype: object

>  <hydroph_interaction:ALA:101>  (47) 
hydroph_interaction:ALA:101    0
hydroph_interaction:ALA:101    0
Name: 46, dtype: object

>  <hydroph_interaction:VAL:102>  (47) 
hydroph_interaction:VAL:102    0
hydroph_interaction:VAL:102    0
Name: 46, dtype: object

>  <hbond:VAL:102>  (47) 
hbond:VAL:102    0
hbond:VAL:102    0
Name: 46, dtype: object

>  <hbond:GLY:103>  (47) 
hbond:GLY:103    0
hbond:GLY:103    0
Name: 46, dtype: object

>  <halogenbond:GLY:103>  (47) 
halogenbond:GLY:103    0
halogenbond:GLY:103    0
Name: 46, dtype: object

>  <hydroph_interaction:HIS:104>  (47) 
hydroph_interaction:HIS:104    0
hydroph_interaction:HIS:104    0
Name: 46, dtype: object

>  <hbond:HIS:104>  (47) 
hbond:HIS:104    0
hbond:HIS:104    0
Name: 46, dtype: object

>  <saltbridge:HIS:104>  (47) 
saltbridge:HIS:104    0
saltbridge:HIS:104    0
Name: 46, dtype: object

>  <pication:HIS:104>  (47) 
pication:HIS:104    0
pication:HIS:104    0
Name: 46, dtype: object

>  <pistack:HIS:104>  (47) 
pistack:HIS:104    0
pistack:HIS:104    0
Name: 46, dtype: object

>  <halogenbond:HIS:104>  (47) 
halogenbond:HIS:104    0
halogenbond:HIS:104    0
Name: 46, dtype: object

>  <hbond:SER:105>  (47) 
hbond:SER:105    0
hbond:SER:105    0
Name: 46, dtype: object

>  <halogenbond:SER:105>  (47) 
halogenbond:SER:105    0
halogenbond:SER:105    0
Name: 46, dtype: object

>  <hbond:GLU:106>  (47) 
hbond:GLU:106    0
hbond:GLU:106    0
Name: 46, dtype: object

>  <hydroph_interaction:GLU:106>  (47) 
hydroph_interaction:GLU:106    0
hydroph_interaction:GLU:106    0
Name: 46, dtype: object

>  <saltbridge:GLU:106>  (47) 
saltbridge:GLU:106    0
saltbridge:GLU:106    0
Name: 46, dtype: object

>  <halogenbond:GLU:106>  (47) 
halogenbond:GLU:106    0
halogenbond:GLU:106    0
Name: 46, dtype: object

>  <hydroph_interaction:PRO:107>  (47) 
hydroph_interaction:PRO:107    1
hydroph_interaction:PRO:107    1
Name: 46, dtype: object

>  <hbond:PRO:107>  (47) 
hbond:PRO:107    0
hbond:PRO:107    0
Name: 46, dtype: object

>  <halogenbond:PRO:107>  (47) 
halogenbond:PRO:107    0
halogenbond:PRO:107    0
Name: 46, dtype: object

>  <hbond:GLY:108>  (47) 
hbond:GLY:108    0
hbond:GLY:108    0
Name: 46, dtype: object

>  <halogenbond:GLY:108>  (47) 
halogenbond:GLY:108    0
halogenbond:GLY:108    0
Name: 46, dtype: object

>  <hbond:ASP:109>  (47) 
hbond:ASP:109    0
hbond:ASP:109    0
Name: 46, dtype: object

>  <hydroph_interaction:ASP:109>  (47) 
hydroph_interaction:ASP:109    0
hydroph_interaction:ASP:109    0
Name: 46, dtype: object

>  <saltbridge:ASP:109>  (47) 
saltbridge:ASP:109    0
saltbridge:ASP:109    0
Name: 46, dtype: object

>  <hbond:CYS:110>  (47) 
hbond:CYS:110    0
hbond:CYS:110    0
Name: 46, dtype: object

>  <halogenbond:CYS:110>  (47) 
halogenbond:CYS:110    0
halogenbond:CYS:110    0
Name: 46, dtype: object

>  <hbond:GLY:111>  (47) 
hbond:GLY:111    0
hbond:GLY:111    0
Name: 46, dtype: object

>  <hbond:GLY:112>  (47) 
hbond:GLY:112    0
hbond:GLY:112    0
Name: 46, dtype: object

>  <hbond:ILE:113>  (47) 
hbond:ILE:113    0
hbond:ILE:113    0
Name: 46, dtype: object

>  <hydroph_interaction:LEU:114>  (47) 
hydroph_interaction:LEU:114    0
hydroph_interaction:LEU:114    0
Name: 46, dtype: object

>  <hbond:LEU:114>  (47) 
hbond:LEU:114    0
hbond:LEU:114    0
Name: 46, dtype: object

>  <hydroph_interaction:ILE:123>  (47) 
hydroph_interaction:ILE:123    0
hydroph_interaction:ILE:123    0
Name: 46, dtype: object

>  <hbond:ILE:123>  (47) 
hbond:ILE:123    0
hbond:ILE:123    0
Name: 46, dtype: object

>  <hydroph_interaction:VAL:124>  (47) 
hydroph_interaction:VAL:124    0
hydroph_interaction:VAL:124    0
Name: 46, dtype: object

>  <hbond:VAL:124>  (47) 
hbond:VAL:124    0
hbond:VAL:124    0
Name: 46, dtype: object

>  <halogenbond:VAL:124>  (47) 
halogenbond:VAL:124    0
halogenbond:VAL:124    0
Name: 46, dtype: object

>  <hbond:SER:125>  (47) 
hbond:SER:125    0
hbond:SER:125    0
Name: 46, dtype: object

>  <halogenbond:SER:125>  (47) 
halogenbond:SER:125    0
halogenbond:SER:125    0
Name: 46, dtype: object

>  <hydroph_interaction:THR:126>  (47) 
hydroph_interaction:THR:126    0
hydroph_interaction:THR:126    0
Name: 46, dtype: object

>  <hbond:THR:126>  (47) 
hbond:THR:126    0
hbond:THR:126    0
Name: 46, dtype: object

>  <halogenbond:THR:126>  (47) 
halogenbond:THR:126    0
halogenbond:THR:126    0
Name: 46, dtype: object

>  <hbond:GLY:127>  (47) 
hbond:GLY:127    0
hbond:GLY:127    0
Name: 46, dtype: object

>  <halogenbond:GLY:127>  (47) 
halogenbond:GLY:127    0
halogenbond:GLY:127    0
Name: 46, dtype: object

>  <hydroph_interaction:GLY:127>  (47) 
hydroph_interaction:GLY:127    0
hydroph_interaction:GLY:127    0
Name: 46, dtype: object

>  <hbond:GLY:128>  (47) 
hbond:GLY:128    0
hbond:GLY:128    0
Name: 46, dtype: object

>  <halogenbond:GLY:128>  (47) 
halogenbond:GLY:128    0
halogenbond:GLY:128    0
Name: 46, dtype: object

>  <hydroph_interaction:GLY:128>  (47) 
hydroph_interaction:GLY:128    0
hydroph_interaction:GLY:128    0
Name: 46, dtype: object

>  <hbond:ASN:129>  (47) 
hbond:ASN:129    0
hbond:ASN:129    0
Name: 46, dtype: object

>  <hydroph_interaction:ASN:129>  (47) 
hydroph_interaction:ASN:129    0
hydroph_interaction:ASN:129    0
Name: 46, dtype: object

>  <halogenbond:ASN:129>  (47) 
halogenbond:ASN:129    0
halogenbond:ASN:129    0
Name: 46, dtype: object

>  <hbond:GLY:130>  (47) 
hbond:GLY:130    0
hbond:GLY:130    0
Name: 46, dtype: object

>  <hydroph_interaction:LEU:131>  (47) 
hydroph_interaction:LEU:131    0
hydroph_interaction:LEU:131    0
Name: 46, dtype: object

>  <hbond:LEU:131>  (47) 
hbond:LEU:131    0
hbond:LEU:131    0
Name: 46, dtype: object

>  <halogenbond:LEU:131>  (47) 
halogenbond:LEU:131    0
halogenbond:LEU:131    0
Name: 46, dtype: object

>  <hydroph_interaction:VAL:132>  (47) 
hydroph_interaction:VAL:132    0
hydroph_interaction:VAL:132    0
Name: 46, dtype: object

>  <hbond:VAL:132>  (47) 
hbond:VAL:132    0
hbond:VAL:132    0
Name: 46, dtype: object

>  <hbond:GLY:133>  (47) 
hbond:GLY:133    0
hbond:GLY:133    0
Name: 46, dtype: object

>  <halogenbond:GLY:133>  (47) 
halogenbond:GLY:133    0
halogenbond:GLY:133    0
Name: 46, dtype: object

>  <hydroph_interaction:PHE:134>  (47) 
hydroph_interaction:PHE:134    0
hydroph_interaction:PHE:134    0
Name: 46, dtype: object

>  <hbond:PHE:134>  (47) 
hbond:PHE:134    0
hbond:PHE:134    0
Name: 46, dtype: object

>  <pistack:PHE:134>  (47) 
pistack:PHE:134    0
pistack:PHE:134    0
Name: 46, dtype: object

>  <pication:PHE:134>  (47) 
pication:PHE:134    0
pication:PHE:134    0
Name: 46, dtype: object

>  <hydroph_interaction:ALA:135>  (47) 
hydroph_interaction:ALA:135    0
hydroph_interaction:ALA:135    0
Name: 46, dtype: object

>  <hbond:ALA:135>  (47) 
hbond:ALA:135    0
hbond:ALA:135    0
Name: 46, dtype: object

$$$$
Z3055000374
     RDKit          3D

 28 28  0  0  0  0  0  0  0  0999 V2000
   12.1500   16.6260   21.5080 C   0  0  0  0  0  0  0  0  0  0  0  0
   12.9760   15.3650   21.4660 C   0  0  0  0  0  0  0  0  0  0  0  0
   12.2020   14.1330   21.9360 C   0  0  0  0  0  0  0  0  0  0  0  0
   11.3350   14.3930   23.1710 C   0  0  0  0  0  0  0  0  0  0  0  0
   11.7730   14.9400   24.1780 O   0  0  0  0  0  0  0  0  0  0  0  0
   10.0430   13.9300   22.9930 N   0  0  0  0  0  0  0  0  0  0  0  0
    9.6000   12.6380   23.3400 C   0  0  0  0  0  0  0  0  0  0  0  0
   10.1220   11.4720   22.7970 C   0  0  0  0  0  0  0  0  0  0  0  0
    9.6610   10.2220   23.1700 C   0  0  0  0  0  0  0  0  0  0  0  0
   10.2140    9.0730   22.5830 C   0  0  0  0  0  0  0  0  0  0  0  0
    8.6470   10.1360   24.1260 C   0  0  0  0  0  0  0  0  0  0  0  0
    8.1100   11.3000   24.6790 C   0  0  0  0  0  0  0  0  0  0  0  0
    6.7300   11.2130   25.9690 Br  0  0  0  0  0  0  0  0  0  0  0  0
    8.5860   12.5380   24.2850 C   0  0  0  0  0  0  0  0  0  0  0  0
    8.0740   13.6620   24.8160 F   0  0  0  0  0  0  0  0  0  0  0  0
   11.1770   16.4840   21.0280 H   0  0  0  0  0  0  0  0  0  0  0  0
   12.6580   17.4280   20.9820 H   0  0  0  0  0  0  0  0  0  0  0  0
   12.0000   16.9610   22.5360 H   0  0  0  0  0  0  0  0  0  0  0  0
   13.8650   15.4930   22.0940 H   0  0  0  0  0  0  0  0  0  0  0  0
   13.3390   15.2170   20.4390 H   0  0  0  0  0  0  0  0  0  0  0  0
   11.5260   13.8350   21.1260 H   0  0  0  0  0  0  0  0  0  0  0  0
   12.8920   13.3150   22.1480 H   0  0  0  0  0  0  0  0  0  0  0  0
    9.3010   14.6350   22.8540 H   0  0  0  0  0  0  0  0  0  0  0  0
   10.9070   11.5160   22.0660 H   0  0  0  0  0  0  0  0  0  0  0  0
   10.8180    9.3580   21.7190 H   0  0  0  0  0  0  0  0  0  0  0  0
    9.4290    8.4000   22.2410 H   0  0  0  0  0  0  0  0  0  0  0  0
   10.8400    8.5260   23.2920 H   0  0  0  0  0  0  0  0  0  0  0  0
    8.2730    9.1580   24.4330 H   0  0  0  0  0  0  0  0  0  0  0  0
  1  2  1  0
  2  3  1  0
  3  4  1  0
  4  5  2  0
  4  6  1  0
  6  7  1  0
  7  8  2  0
  8  9  1  0
  9 10  1  0
  9 11  2  0
 11 12  1  0
 12 13  1  0
 12 14  2  0
 14 15  1  0
 14  7  1  0
  1 16  1  0
  1 17  1  0
  1 18  1  0
  2 19  1  0
  2 20  1  0
  3 21  1  0
  3 22  1  0
  6 23  1  0
  8 24  1  0
 10 25  1  0
 10 26  1  0
 10 27  1  0
 11 28  1  0
A    1
 C1 
A    2
 C2 
A    3
 C3 
A    4
 C4 
A    5
 O1 
A    6
 N1 
A    7
 C5 
A    8
 C6 
A    9
 C7 
A   10
 C8 
A   11
 C9 
A   12
 C10
A   13
BR1 
A   14
 C11
A   15
 F1 
A   16
 H1 
A   17
 H2 
A   18
 H3 
A   19
 H4 
A   20
 H5 
A   21
 H6 
A   22
 H7 
A   23
 H8 
A   24
 H9 
A   25
 H10
A   26
 H11
A   27
 H12
A   28
 H13
M  END
>  <ref_pdb>  (48) 
x0310_0A

>  <ref_mols>  (48) 
x0451_0A,x0739_0A

>  <original SMILES>  (48) 
CCCC(=O)Nc1cc(C)cc(Br)c1F

>  <rationale>  (48) 
info hbond:E88+S87; hydroph_interaction:V124+Y89+Y90; 

>  <intxn_cluster>  (48) 
107

>  <intxn_cluster_rank>  (48) 
12

>  <N_interactions>  (48) 
6

>  <∆∆G>  (48) 
-11.650286

>  <$/mg>  (48) 
163.0

>  <comRMSD>  (48) 
0.639473

>  <N_rotatable_bonds>  (48) 
5

>  <N_analogues_07>  (48) 
6

>  <deep_P1_sidechain>  (48) 
True

>  <farthest_distance_to_substrate>  (48) 
2.601027

>  <hbond:SER:7>  (48) 
hbond:SER:7    0
hbond:SER:7    0
Name: 47, dtype: object

>  <halogenbond:SER:7>  (48) 
halogenbond:SER:7    0
halogenbond:SER:7    0
Name: 47, dtype: object

>  <hbond:GLY:8>  (48) 
hbond:GLY:8    0
hbond:GLY:8    0
Name: 47, dtype: object

>  <hydroph_interaction:ASN:19>  (48) 
hydroph_interaction:ASN:19    0
hydroph_interaction:ASN:19    0
Name: 47, dtype: object

>  <hbond:ASN:19>  (48) 
hbond:ASN:19    0
hbond:ASN:19    0
Name: 47, dtype: object

>  <halogenbond:ASN:19>  (48) 
halogenbond:ASN:19    0
halogenbond:ASN:19    0
Name: 47, dtype: object

>  <hbond:ARG:20>  (48) 
hbond:ARG:20    0
hbond:ARG:20    0
Name: 47, dtype: object

>  <hydroph_interaction:ARG:20>  (48) 
hydroph_interaction:ARG:20    0
hydroph_interaction:ARG:20    0
Name: 47, dtype: object

>  <saltbridge:ARG:20>  (48) 
saltbridge:ARG:20    0
saltbridge:ARG:20    0
Name: 47, dtype: object

>  <halogenbond:ARG:20>  (48) 
halogenbond:ARG:20    0
halogenbond:ARG:20    0
Name: 47, dtype: object

>  <pication:ARG:20>  (48) 
pication:ARG:20    0
pication:ARG:20    0
Name: 47, dtype: object

>  <hbond:HIS:21>  (48) 
hbond:HIS:21    0
hbond:HIS:21    0
Name: 47, dtype: object

>  <hydroph_interaction:HIS:21>  (48) 
hydroph_interaction:HIS:21    0
hydroph_interaction:HIS:21    0
Name: 47, dtype: object

>  <saltbridge:HIS:21>  (48) 
saltbridge:HIS:21    0
saltbridge:HIS:21    0
Name: 47, dtype: object

>  <pistack:HIS:21>  (48) 
pistack:HIS:21    0
pistack:HIS:21    0
Name: 47, dtype: object

>  <pication:HIS:21>  (48) 
pication:HIS:21    0
pication:HIS:21    0
Name: 47, dtype: object

>  <halogenbond:HIS:21>  (48) 
halogenbond:HIS:21    0
halogenbond:HIS:21    0
Name: 47, dtype: object

>  <hydroph_interaction:LEU:22>  (48) 
hydroph_interaction:LEU:22    0
hydroph_interaction:LEU:22    0
Name: 47, dtype: object

>  <hbond:LEU:22>  (48) 
hbond:LEU:22    0
hbond:LEU:22    0
Name: 47, dtype: object

>  <hydroph_interaction:TRP:28>  (48) 
hydroph_interaction:TRP:28    0
hydroph_interaction:TRP:28    0
Name: 47, dtype: object

>  <hbond:SER:36>  (48) 
hbond:SER:36    0
hbond:SER:36    0
Name: 47, dtype: object

>  <halogenbond:SER:36>  (48) 
halogenbond:SER:36    0
halogenbond:SER:36    0
Name: 47, dtype: object

>  <hbond:ARG:38>  (48) 
hbond:ARG:38    0
hbond:ARG:38    0
Name: 47, dtype: object

>  <halogenbond:ARG:38>  (48) 
halogenbond:ARG:38    0
halogenbond:ARG:38    0
Name: 47, dtype: object

>  <hbond:ASP:39>  (48) 
hbond:ASP:39    0
hbond:ASP:39    0
Name: 47, dtype: object

>  <saltbridge:ASP:39>  (48) 
saltbridge:ASP:39    0
saltbridge:ASP:39    0
Name: 47, dtype: object

>  <hydroph_interaction:ASP:39>  (48) 
hydroph_interaction:ASP:39    0
hydroph_interaction:ASP:39    0
Name: 47, dtype: object

>  <halogenbond:ASP:39>  (48) 
halogenbond:ASP:39    0
halogenbond:ASP:39    0
Name: 47, dtype: object

>  <hydroph_interaction:LEU:40>  (48) 
hydroph_interaction:LEU:40    0
hydroph_interaction:LEU:40    0
Name: 47, dtype: object

>  <hydroph_interaction:TYR:63>  (48) 
hydroph_interaction:TYR:63    0
hydroph_interaction:TYR:63    0
Name: 47, dtype: object

>  <pistack:TYR:63>  (48) 
pistack:TYR:63    0
pistack:TYR:63    0
Name: 47, dtype: object

>  <hbond:TYR:63>  (48) 
hbond:TYR:63    0
hbond:TYR:63    0
Name: 47, dtype: object

>  <hbond:TYR:64>  (48) 
hbond:TYR:64    0
hbond:TYR:64    0
Name: 47, dtype: object

>  <halogenbond:TYR:64>  (48) 
halogenbond:TYR:64    0
halogenbond:TYR:64    0
Name: 47, dtype: object

>  <hydroph_interaction:TYR:64>  (48) 
hydroph_interaction:TYR:64    0
hydroph_interaction:TYR:64    0
Name: 47, dtype: object

>  <hbond:CYS:65>  (48) 
hbond:CYS:65    0
hbond:CYS:65    0
Name: 47, dtype: object

>  <halogenbond:CYS:65>  (48) 
halogenbond:CYS:65    0
halogenbond:CYS:65    0
Name: 47, dtype: object

>  <hbond:SER:66>  (48) 
hbond:SER:66    0
hbond:SER:66    0
Name: 47, dtype: object

>  <hbond:SER:67>  (48) 
hbond:SER:67    0
hbond:SER:67    0
Name: 47, dtype: object

>  <halogenbond:SER:67>  (48) 
halogenbond:SER:67    0
halogenbond:SER:67    0
Name: 47, dtype: object

>  <hydroph_interaction:ARG:68>  (48) 
hydroph_interaction:ARG:68    0
hydroph_interaction:ARG:68    0
Name: 47, dtype: object

>  <hbond:ARG:68>  (48) 
hbond:ARG:68    0
hbond:ARG:68    0
Name: 47, dtype: object

>  <saltbridge:ARG:68>  (48) 
saltbridge:ARG:68    0
saltbridge:ARG:68    0
Name: 47, dtype: object

>  <pication:ARG:68>  (48) 
pication:ARG:68    0
pication:ARG:68    0
Name: 47, dtype: object

>  <hydroph_interaction:TYR:72>  (48) 
hydroph_interaction:TYR:72    0
hydroph_interaction:TYR:72    0
Name: 47, dtype: object

>  <hydroph_interaction:VAL:74>  (48) 
hydroph_interaction:VAL:74    0
hydroph_interaction:VAL:74    0
Name: 47, dtype: object

>  <hydroph_interaction:PHE:76>  (48) 
hydroph_interaction:PHE:76    0
hydroph_interaction:PHE:76    0
Name: 47, dtype: object

>  <hbond:SER:77>  (48) 
hbond:SER:77    0
hbond:SER:77    0
Name: 47, dtype: object

>  <hbond:SER:80>  (48) 
hbond:SER:80    0
hbond:SER:80    0
Name: 47, dtype: object

>  <hbond:LEU:81>  (48) 
hbond:LEU:81    0
hbond:LEU:81    0
Name: 47, dtype: object

>  <halogenbond:LEU:81>  (48) 
halogenbond:LEU:81    0
halogenbond:LEU:81    0
Name: 47, dtype: object

>  <hydroph_interaction:LEU:81>  (48) 
hydroph_interaction:LEU:81    0
hydroph_interaction:LEU:81    0
Name: 47, dtype: object

>  <hydroph_interaction:ILE:82>  (48) 
hydroph_interaction:ILE:82    0
hydroph_interaction:ILE:82    0
Name: 47, dtype: object

>  <hbond:ILE:82>  (48) 
hbond:ILE:82    0
hbond:ILE:82    0
Name: 47, dtype: object

>  <hydroph_interaction:PHE:83>  (48) 
hydroph_interaction:PHE:83    0
hydroph_interaction:PHE:83    0
Name: 47, dtype: object

>  <hbond:PHE:83>  (48) 
hbond:PHE:83    0
hbond:PHE:83    0
Name: 47, dtype: object

>  <halogenbond:PHE:83>  (48) 
halogenbond:PHE:83    0
halogenbond:PHE:83    0
Name: 47, dtype: object

>  <pistack:PHE:83>  (48) 
pistack:PHE:83    0
pistack:PHE:83    0
Name: 47, dtype: object

>  <hydroph_interaction:VAL:84>  (48) 
hydroph_interaction:VAL:84    0
hydroph_interaction:VAL:84    0
Name: 47, dtype: object

>  <hbond:VAL:84>  (48) 
hbond:VAL:84    0
hbond:VAL:84    0
Name: 47, dtype: object

>  <halogenbond:VAL:84>  (48) 
halogenbond:VAL:84    0
halogenbond:VAL:84    0
Name: 47, dtype: object

>  <hydroph_interaction:GLU:85>  (48) 
hydroph_interaction:GLU:85    0
hydroph_interaction:GLU:85    0
Name: 47, dtype: object

>  <hbond:GLU:85>  (48) 
hbond:GLU:85    0
hbond:GLU:85    0
Name: 47, dtype: object

>  <saltbridge:GLU:85>  (48) 
saltbridge:GLU:85    0
saltbridge:GLU:85    0
Name: 47, dtype: object

>  <halogenbond:GLU:85>  (48) 
halogenbond:GLU:85    0
halogenbond:GLU:85    0
Name: 47, dtype: object

>  <hbond:ALA:86>  (48) 
hbond:ALA:86    0
hbond:ALA:86    0
Name: 47, dtype: object

>  <halogenbond:ALA:86>  (48) 
halogenbond:ALA:86    0
halogenbond:ALA:86    0
Name: 47, dtype: object

>  <hydroph_interaction:ALA:86>  (48) 
hydroph_interaction:ALA:86    0
hydroph_interaction:ALA:86    0
Name: 47, dtype: object

>  <hbond:SER:87>  (48) 
hbond:SER:87    2
hbond:SER:87    2
Name: 47, dtype: object

>  <halogenbond:SER:87>  (48) 
halogenbond:SER:87    0
halogenbond:SER:87    0
Name: 47, dtype: object

>  <hbond:GLU:88>  (48) 
hbond:GLU:88    1
hbond:GLU:88    1
Name: 47, dtype: object

>  <hydroph_interaction:GLU:88>  (48) 
hydroph_interaction:GLU:88    0
hydroph_interaction:GLU:88    0
Name: 47, dtype: object

>  <halogenbond:GLU:88>  (48) 
halogenbond:GLU:88    0
halogenbond:GLU:88    0
Name: 47, dtype: object

>  <saltbridge:GLU:88>  (48) 
saltbridge:GLU:88    0
saltbridge:GLU:88    0
Name: 47, dtype: object

>  <hydroph_interaction:TYR:89>  (48) 
hydroph_interaction:TYR:89    1
hydroph_interaction:TYR:89    1
Name: 47, dtype: object

>  <pistack:TYR:89>  (48) 
pistack:TYR:89    0
pistack:TYR:89    0
Name: 47, dtype: object

>  <hbond:TYR:89>  (48) 
hbond:TYR:89    0
hbond:TYR:89    0
Name: 47, dtype: object

>  <halogenbond:TYR:89>  (48) 
halogenbond:TYR:89    0
halogenbond:TYR:89    0
Name: 47, dtype: object

>  <hbond:TYR:90>  (48) 
hbond:TYR:90    0
hbond:TYR:90    0
Name: 47, dtype: object

>  <hydroph_interaction:TYR:90>  (48) 
hydroph_interaction:TYR:90    1
hydroph_interaction:TYR:90    1
Name: 47, dtype: object

>  <pistack:TYR:90>  (48) 
pistack:TYR:90    0
pistack:TYR:90    0
Name: 47, dtype: object

>  <halogenbond:TYR:90>  (48) 
halogenbond:TYR:90    0
halogenbond:TYR:90    0
Name: 47, dtype: object

>  <pication:TYR:90>  (48) 
pication:TYR:90    0
pication:TYR:90    0
Name: 47, dtype: object

>  <hydroph_interaction:PRO:91>  (48) 
hydroph_interaction:PRO:91    0
hydroph_interaction:PRO:91    0
Name: 47, dtype: object

>  <halogenbond:PRO:91>  (48) 
halogenbond:PRO:91    0
halogenbond:PRO:91    0
Name: 47, dtype: object

>  <hbond:PRO:91>  (48) 
hbond:PRO:91    0
hbond:PRO:91    0
Name: 47, dtype: object

>  <hydroph_interaction:ALA:92>  (48) 
hydroph_interaction:ALA:92    0
hydroph_interaction:ALA:92    0
Name: 47, dtype: object

>  <hbond:ARG:93>  (48) 
hbond:ARG:93    0
hbond:ARG:93    0
Name: 47, dtype: object

>  <pication:ARG:93>  (48) 
pication:ARG:93    0
pication:ARG:93    0
Name: 47, dtype: object

>  <saltbridge:ARG:93>  (48) 
saltbridge:ARG:93    0
saltbridge:ARG:93    0
Name: 47, dtype: object

>  <hydroph_interaction:ARG:93>  (48) 
hydroph_interaction:ARG:93    0
hydroph_interaction:ARG:93    0
Name: 47, dtype: object

>  <halogenbond:ARG:93>  (48) 
halogenbond:ARG:93    0
halogenbond:ARG:93    0
Name: 47, dtype: object

>  <hydroph_interaction:TYR:94>  (48) 
hydroph_interaction:TYR:94    0
hydroph_interaction:TYR:94    0
Name: 47, dtype: object

>  <hbond:TYR:94>  (48) 
hbond:TYR:94    0
hbond:TYR:94    0
Name: 47, dtype: object

>  <halogenbond:GLN:95>  (48) 
halogenbond:GLN:95    0
halogenbond:GLN:95    0
Name: 47, dtype: object

>  <hbond:GLN:95>  (48) 
hbond:GLN:95    0
hbond:GLN:95    0
Name: 47, dtype: object

>  <hydroph_interaction:GLN:95>  (48) 
hydroph_interaction:GLN:95    0
hydroph_interaction:GLN:95    0
Name: 47, dtype: object

>  <hbond:SER:96>  (48) 
hbond:SER:96    0
hbond:SER:96    0
Name: 47, dtype: object

>  <hydroph_interaction:LEU:98>  (48) 
hydroph_interaction:LEU:98    0
hydroph_interaction:LEU:98    0
Name: 47, dtype: object

>  <hbond:LEU:98>  (48) 
hbond:LEU:98    0
hbond:LEU:98    0
Name: 47, dtype: object

>  <hbond:MET:99>  (48) 
hbond:MET:99    0
hbond:MET:99    0
Name: 47, dtype: object

>  <hydroph_interaction:MET:99>  (48) 
hydroph_interaction:MET:99    0
hydroph_interaction:MET:99    0
Name: 47, dtype: object

>  <halogenbond:MET:99>  (48) 
halogenbond:MET:99    0
halogenbond:MET:99    0
Name: 47, dtype: object

>  <hydroph_interaction:LEU:100>  (48) 
hydroph_interaction:LEU:100    0
hydroph_interaction:LEU:100    0
Name: 47, dtype: object

>  <hbond:LEU:100>  (48) 
hbond:LEU:100    0
hbond:LEU:100    0
Name: 47, dtype: object

>  <hbond:ALA:101>  (48) 
hbond:ALA:101    0
hbond:ALA:101    0
Name: 47, dtype: object

>  <hydroph_interaction:ALA:101>  (48) 
hydroph_interaction:ALA:101    0
hydroph_interaction:ALA:101    0
Name: 47, dtype: object

>  <hydroph_interaction:VAL:102>  (48) 
hydroph_interaction:VAL:102    0
hydroph_interaction:VAL:102    0
Name: 47, dtype: object

>  <hbond:VAL:102>  (48) 
hbond:VAL:102    0
hbond:VAL:102    0
Name: 47, dtype: object

>  <hbond:GLY:103>  (48) 
hbond:GLY:103    0
hbond:GLY:103    0
Name: 47, dtype: object

>  <halogenbond:GLY:103>  (48) 
halogenbond:GLY:103    0
halogenbond:GLY:103    0
Name: 47, dtype: object

>  <hydroph_interaction:HIS:104>  (48) 
hydroph_interaction:HIS:104    0
hydroph_interaction:HIS:104    0
Name: 47, dtype: object

>  <hbond:HIS:104>  (48) 
hbond:HIS:104    0
hbond:HIS:104    0
Name: 47, dtype: object

>  <saltbridge:HIS:104>  (48) 
saltbridge:HIS:104    0
saltbridge:HIS:104    0
Name: 47, dtype: object

>  <pication:HIS:104>  (48) 
pication:HIS:104    0
pication:HIS:104    0
Name: 47, dtype: object

>  <pistack:HIS:104>  (48) 
pistack:HIS:104    0
pistack:HIS:104    0
Name: 47, dtype: object

>  <halogenbond:HIS:104>  (48) 
halogenbond:HIS:104    0
halogenbond:HIS:104    0
Name: 47, dtype: object

>  <hbond:SER:105>  (48) 
hbond:SER:105    0
hbond:SER:105    0
Name: 47, dtype: object

>  <halogenbond:SER:105>  (48) 
halogenbond:SER:105    0
halogenbond:SER:105    0
Name: 47, dtype: object

>  <hbond:GLU:106>  (48) 
hbond:GLU:106    0
hbond:GLU:106    0
Name: 47, dtype: object

>  <hydroph_interaction:GLU:106>  (48) 
hydroph_interaction:GLU:106    0
hydroph_interaction:GLU:106    0
Name: 47, dtype: object

>  <saltbridge:GLU:106>  (48) 
saltbridge:GLU:106    0
saltbridge:GLU:106    0
Name: 47, dtype: object

>  <halogenbond:GLU:106>  (48) 
halogenbond:GLU:106    0
halogenbond:GLU:106    0
Name: 47, dtype: object

>  <hydroph_interaction:PRO:107>  (48) 
hydroph_interaction:PRO:107    0
hydroph_interaction:PRO:107    0
Name: 47, dtype: object

>  <hbond:PRO:107>  (48) 
hbond:PRO:107    0
hbond:PRO:107    0
Name: 47, dtype: object

>  <halogenbond:PRO:107>  (48) 
halogenbond:PRO:107    0
halogenbond:PRO:107    0
Name: 47, dtype: object

>  <hbond:GLY:108>  (48) 
hbond:GLY:108    0
hbond:GLY:108    0
Name: 47, dtype: object

>  <halogenbond:GLY:108>  (48) 
halogenbond:GLY:108    0
halogenbond:GLY:108    0
Name: 47, dtype: object

>  <hbond:ASP:109>  (48) 
hbond:ASP:109    0
hbond:ASP:109    0
Name: 47, dtype: object

>  <hydroph_interaction:ASP:109>  (48) 
hydroph_interaction:ASP:109    0
hydroph_interaction:ASP:109    0
Name: 47, dtype: object

>  <saltbridge:ASP:109>  (48) 
saltbridge:ASP:109    0
saltbridge:ASP:109    0
Name: 47, dtype: object

>  <hbond:CYS:110>  (48) 
hbond:CYS:110    0
hbond:CYS:110    0
Name: 47, dtype: object

>  <halogenbond:CYS:110>  (48) 
halogenbond:CYS:110    0
halogenbond:CYS:110    0
Name: 47, dtype: object

>  <hbond:GLY:111>  (48) 
hbond:GLY:111    0
hbond:GLY:111    0
Name: 47, dtype: object

>  <hbond:GLY:112>  (48) 
hbond:GLY:112    0
hbond:GLY:112    0
Name: 47, dtype: object

>  <hbond:ILE:113>  (48) 
hbond:ILE:113    0
hbond:ILE:113    0
Name: 47, dtype: object

>  <hydroph_interaction:LEU:114>  (48) 
hydroph_interaction:LEU:114    0
hydroph_interaction:LEU:114    0
Name: 47, dtype: object

>  <hbond:LEU:114>  (48) 
hbond:LEU:114    0
hbond:LEU:114    0
Name: 47, dtype: object

>  <hydroph_interaction:ILE:123>  (48) 
hydroph_interaction:ILE:123    0
hydroph_interaction:ILE:123    0
Name: 47, dtype: object

>  <hbond:ILE:123>  (48) 
hbond:ILE:123    0
hbond:ILE:123    0
Name: 47, dtype: object

>  <hydroph_interaction:VAL:124>  (48) 
hydroph_interaction:VAL:124    1
hydroph_interaction:VAL:124    1
Name: 47, dtype: object

>  <hbond:VAL:124>  (48) 
hbond:VAL:124    0
hbond:VAL:124    0
Name: 47, dtype: object

>  <halogenbond:VAL:124>  (48) 
halogenbond:VAL:124    0
halogenbond:VAL:124    0
Name: 47, dtype: object

>  <hbond:SER:125>  (48) 
hbond:SER:125    0
hbond:SER:125    0
Name: 47, dtype: object

>  <halogenbond:SER:125>  (48) 
halogenbond:SER:125    0
halogenbond:SER:125    0
Name: 47, dtype: object

>  <hydroph_interaction:THR:126>  (48) 
hydroph_interaction:THR:126    0
hydroph_interaction:THR:126    0
Name: 47, dtype: object

>  <hbond:THR:126>  (48) 
hbond:THR:126    0
hbond:THR:126    0
Name: 47, dtype: object

>  <halogenbond:THR:126>  (48) 
halogenbond:THR:126    0
halogenbond:THR:126    0
Name: 47, dtype: object

>  <hbond:GLY:127>  (48) 
hbond:GLY:127    0
hbond:GLY:127    0
Name: 47, dtype: object

>  <halogenbond:GLY:127>  (48) 
halogenbond:GLY:127    0
halogenbond:GLY:127    0
Name: 47, dtype: object

>  <hydroph_interaction:GLY:127>  (48) 
hydroph_interaction:GLY:127    0
hydroph_interaction:GLY:127    0
Name: 47, dtype: object

>  <hbond:GLY:128>  (48) 
hbond:GLY:128    0
hbond:GLY:128    0
Name: 47, dtype: object

>  <halogenbond:GLY:128>  (48) 
halogenbond:GLY:128    0
halogenbond:GLY:128    0
Name: 47, dtype: object

>  <hydroph_interaction:GLY:128>  (48) 
hydroph_interaction:GLY:128    0
hydroph_interaction:GLY:128    0
Name: 47, dtype: object

>  <hbond:ASN:129>  (48) 
hbond:ASN:129    0
hbond:ASN:129    0
Name: 47, dtype: object

>  <hydroph_interaction:ASN:129>  (48) 
hydroph_interaction:ASN:129    0
hydroph_interaction:ASN:129    0
Name: 47, dtype: object

>  <halogenbond:ASN:129>  (48) 
halogenbond:ASN:129    0
halogenbond:ASN:129    0
Name: 47, dtype: object

>  <hbond:GLY:130>  (48) 
hbond:GLY:130    0
hbond:GLY:130    0
Name: 47, dtype: object

>  <hydroph_interaction:LEU:131>  (48) 
hydroph_interaction:LEU:131    0
hydroph_interaction:LEU:131    0
Name: 47, dtype: object

>  <hbond:LEU:131>  (48) 
hbond:LEU:131    0
hbond:LEU:131    0
Name: 47, dtype: object

>  <halogenbond:LEU:131>  (48) 
halogenbond:LEU:131    0
halogenbond:LEU:131    0
Name: 47, dtype: object

>  <hydroph_interaction:VAL:132>  (48) 
hydroph_interaction:VAL:132    0
hydroph_interaction:VAL:132    0
Name: 47, dtype: object

>  <hbond:VAL:132>  (48) 
hbond:VAL:132    0
hbond:VAL:132    0
Name: 47, dtype: object

>  <hbond:GLY:133>  (48) 
hbond:GLY:133    0
hbond:GLY:133    0
Name: 47, dtype: object

>  <halogenbond:GLY:133>  (48) 
halogenbond:GLY:133    0
halogenbond:GLY:133    0
Name: 47, dtype: object

>  <hydroph_interaction:PHE:134>  (48) 
hydroph_interaction:PHE:134    0
hydroph_interaction:PHE:134    0
Name: 47, dtype: object

>  <hbond:PHE:134>  (48) 
hbond:PHE:134    0
hbond:PHE:134    0
Name: 47, dtype: object

>  <pistack:PHE:134>  (48) 
pistack:PHE:134    0
pistack:PHE:134    0
Name: 47, dtype: object

>  <pication:PHE:134>  (48) 
pication:PHE:134    0
pication:PHE:134    0
Name: 47, dtype: object

>  <hydroph_interaction:ALA:135>  (48) 
hydroph_interaction:ALA:135    0
hydroph_interaction:ALA:135    0
Name: 47, dtype: object

>  <hbond:ALA:135>  (48) 
hbond:ALA:135    0
hbond:ALA:135    0
Name: 47, dtype: object

$$$$
Z5537254692
     RDKit          3D

 36 36  0  0  0  0  0  0  0  0999 V2000
    8.0640   18.6380   18.5440 C   0  0  0  0  0  0  0  0  0  0  0  0
    8.6890   17.3780   18.2030 O   0  0  0  0  0  0  0  0  0  0  0  0
    9.1060   16.8500   19.3690 C   0  0  0  0  0  0  0  0  0  0  0  0
    8.8060   17.4780   20.3240 O   0  0  0  0  0  0  0  0  0  0  0  0
    9.8900   15.5330   19.5330 C   0  0  0  0  0  0  0  0  0  0  0  0
   10.8450   15.4420   20.6020 C   0  0  0  0  0  0  0  0  0  0  0  0
   10.6890   14.4430   21.5800 C   0  0  0  0  0  0  0  0  0  0  0  0
   11.8290   13.8350   22.0890 C   0  0  0  0  0  0  0  0  0  0  0  0
    9.4710   14.0420   21.9980 C   0  0  0  0  0  0  0  0  0  0  0  0
    9.1510   13.0080   22.8860 C   0  0  0  0  0  0  0  0  0  0  0  0
    9.8360   11.8120   22.6980 N   0  0  0  0  0  0  0  0  0  0  0  0
    9.6030   10.7240   23.4190 C   0  0  0  0  0  0  0  0  0  0  0  0
   10.3180    9.4390   23.1790 C   0  0  0  0  0  0  0  0  0  0  0  0
    8.5750   10.7620   24.5130 C   0  0  0  0  0  0  0  0  0  0  0  0
    7.9120   11.9600   24.7050 C   0  0  0  0  0  0  0  0  0  0  0  0
    8.1720   13.0980   23.9070 C   0  0  0  0  0  0  0  0  0  0  0  0
    7.3880   14.3360   24.1710 C   0  0  0  0  0  0  0  0  0  0  0  0
    8.0000   18.7740   19.6270 H   0  0  0  0  0  0  0  0  0  0  0  0
    7.0750   18.7580   18.1300 H   0  0  0  0  0  0  0  0  0  0  0  0
    8.6850   19.4170   18.1420 H   0  0  0  0  0  0  0  0  0  0  0  0
   10.3840   15.3290   18.5730 H   0  0  0  0  0  0  0  0  0  0  0  0
    9.1920   14.7110   19.6910 H   0  0  0  0  0  0  0  0  0  0  0  0
   11.8250   15.2590   20.1420 H   0  0  0  0  0  0  0  0  0  0  0  0
   10.9480   16.4060   21.0920 H   0  0  0  0  0  0  0  0  0  0  0  0
   12.4080   14.4050   22.8120 H   0  0  0  0  0  0  0  0  0  0  0  0
   12.5630   13.5010   21.3610 H   0  0  0  0  0  0  0  0  0  0  0  0
   11.5090   12.9390   22.6300 H   0  0  0  0  0  0  0  0  0  0  0  0
    8.5800   14.5170   21.6010 H   0  0  0  0  0  0  0  0  0  0  0  0
    9.8620    8.6980   23.7980 H   0  0  0  0  0  0  0  0  0  0  0  0
   10.2450    9.1260   22.1310 H   0  0  0  0  0  0  0  0  0  0  0  0
   11.3670    9.4940   23.4590 H   0  0  0  0  0  0  0  0  0  0  0  0
    8.4170    9.8420   25.0810 H   0  0  0  0  0  0  0  0  0  0  0  0
    7.1750   11.9310   25.5160 H   0  0  0  0  0  0  0  0  0  0  0  0
    6.9400   14.7080   23.2450 H   0  0  0  0  0  0  0  0  0  0  0  0
    8.0180   15.1260   24.5900 H   0  0  0  0  0  0  0  0  0  0  0  0
    6.5940   14.1440   24.9000 H   0  0  0  0  0  0  0  0  0  0  0  0
  1  2  1  0
  2  3  1  0
  3  4  2  0
  3  5  1  0
  5  6  1  0
  6  7  1  0
  7  8  1  0
  7  9  2  3
  9 10  1  0
 10 11  2  0
 11 12  1  0
 12 13  1  0
 12 14  2  0
 14 15  1  0
 15 16  2  0
 16 17  1  0
 16 10  1  0
  1 18  1  0
  1 19  1  0
  1 20  1  0
  5 21  1  0
  5 22  1  0
  6 23  1  0
  6 24  1  0
  8 25  1  0
  8 26  1  0
  8 27  1  0
  9 28  1  0
 13 29  1  0
 13 30  1  0
 13 31  1  0
 14 32  1  0
 15 33  1  0
 17 34  1  0
 17 35  1  0
 17 36  1  0
A    1
 C1 
A    2
 O1 
A    3
 C2 
A    4
 O2 
A    5
 C3 
A    6
 C4 
A    7
 C5 
A    8
 C6 
A    9
 C7 
A   10
 C8 
A   11
 N1 
A   12
 C9 
A   13
 C10
A   14
 C11
A   15
 C12
A   16
 C13
A   17
 C14
A   18
 H1 
A   19
 H2 
A   20
 H3 
A   21
 H4 
A   22
 H5 
A   23
 H6 
A   24
 H7 
A   25
 H8 
A   26
 H9 
A   27
 H10
A   28
 H11
A   29
 H12
A   30
 H13
A   31
 H14
A   32
 H15
A   33
 H16
A   34
 H17
A   35
 H18
A   36
 H19
M  END
>  <ref_pdb>  (49) 
x0310_0A

>  <ref_mols>  (49) 
x0554_0A,x0732_0A

>  <original SMILES>  (49) 
COC(=O)CCC(C)=Cc1nc(C)ccc1C

>  <rationale>  (49) 
info hydroph_interaction:V124+Y90+T126; saltbridge:R93; 

>  <intxn_cluster>  (49) 
101

>  <intxn_cluster_rank>  (49) 
13

>  <N_interactions>  (49) 
4

>  <∆∆G>  (49) 
-8.56223

>  <$/mg>  (49) 
244.5

>  <comRMSD>  (49) 
0.936827

>  <N_rotatable_bonds>  (49) 
8

>  <N_analogues_07>  (49) 
0

>  <deep_P1_sidechain>  (49) 
True

>  <farthest_distance_to_substrate>  (49) 
2.217292

>  <hbond:SER:7>  (49) 
hbond:SER:7    0
hbond:SER:7    0
Name: 48, dtype: object

>  <halogenbond:SER:7>  (49) 
halogenbond:SER:7    0
halogenbond:SER:7    0
Name: 48, dtype: object

>  <hbond:GLY:8>  (49) 
hbond:GLY:8    0
hbond:GLY:8    0
Name: 48, dtype: object

>  <hydroph_interaction:ASN:19>  (49) 
hydroph_interaction:ASN:19    0
hydroph_interaction:ASN:19    0
Name: 48, dtype: object

>  <hbond:ASN:19>  (49) 
hbond:ASN:19    0
hbond:ASN:19    0
Name: 48, dtype: object

>  <halogenbond:ASN:19>  (49) 
halogenbond:ASN:19    0
halogenbond:ASN:19    0
Name: 48, dtype: object

>  <hbond:ARG:20>  (49) 
hbond:ARG:20    0
hbond:ARG:20    0
Name: 48, dtype: object

>  <hydroph_interaction:ARG:20>  (49) 
hydroph_interaction:ARG:20    0
hydroph_interaction:ARG:20    0
Name: 48, dtype: object

>  <saltbridge:ARG:20>  (49) 
saltbridge:ARG:20    0
saltbridge:ARG:20    0
Name: 48, dtype: object

>  <halogenbond:ARG:20>  (49) 
halogenbond:ARG:20    0
halogenbond:ARG:20    0
Name: 48, dtype: object

>  <pication:ARG:20>  (49) 
pication:ARG:20    0
pication:ARG:20    0
Name: 48, dtype: object

>  <hbond:HIS:21>  (49) 
hbond:HIS:21    0
hbond:HIS:21    0
Name: 48, dtype: object

>  <hydroph_interaction:HIS:21>  (49) 
hydroph_interaction:HIS:21    0
hydroph_interaction:HIS:21    0
Name: 48, dtype: object

>  <saltbridge:HIS:21>  (49) 
saltbridge:HIS:21    0
saltbridge:HIS:21    0
Name: 48, dtype: object

>  <pistack:HIS:21>  (49) 
pistack:HIS:21    0
pistack:HIS:21    0
Name: 48, dtype: object

>  <pication:HIS:21>  (49) 
pication:HIS:21    0
pication:HIS:21    0
Name: 48, dtype: object

>  <halogenbond:HIS:21>  (49) 
halogenbond:HIS:21    0
halogenbond:HIS:21    0
Name: 48, dtype: object

>  <hydroph_interaction:LEU:22>  (49) 
hydroph_interaction:LEU:22    0
hydroph_interaction:LEU:22    0
Name: 48, dtype: object

>  <hbond:LEU:22>  (49) 
hbond:LEU:22    0
hbond:LEU:22    0
Name: 48, dtype: object

>  <hydroph_interaction:TRP:28>  (49) 
hydroph_interaction:TRP:28    0
hydroph_interaction:TRP:28    0
Name: 48, dtype: object

>  <hbond:SER:36>  (49) 
hbond:SER:36    0
hbond:SER:36    0
Name: 48, dtype: object

>  <halogenbond:SER:36>  (49) 
halogenbond:SER:36    0
halogenbond:SER:36    0
Name: 48, dtype: object

>  <hbond:ARG:38>  (49) 
hbond:ARG:38    0
hbond:ARG:38    0
Name: 48, dtype: object

>  <halogenbond:ARG:38>  (49) 
halogenbond:ARG:38    0
halogenbond:ARG:38    0
Name: 48, dtype: object

>  <hbond:ASP:39>  (49) 
hbond:ASP:39    0
hbond:ASP:39    0
Name: 48, dtype: object

>  <saltbridge:ASP:39>  (49) 
saltbridge:ASP:39    0
saltbridge:ASP:39    0
Name: 48, dtype: object

>  <hydroph_interaction:ASP:39>  (49) 
hydroph_interaction:ASP:39    0
hydroph_interaction:ASP:39    0
Name: 48, dtype: object

>  <halogenbond:ASP:39>  (49) 
halogenbond:ASP:39    0
halogenbond:ASP:39    0
Name: 48, dtype: object

>  <hydroph_interaction:LEU:40>  (49) 
hydroph_interaction:LEU:40    0
hydroph_interaction:LEU:40    0
Name: 48, dtype: object

>  <hydroph_interaction:TYR:63>  (49) 
hydroph_interaction:TYR:63    0
hydroph_interaction:TYR:63    0
Name: 48, dtype: object

>  <pistack:TYR:63>  (49) 
pistack:TYR:63    0
pistack:TYR:63    0
Name: 48, dtype: object

>  <hbond:TYR:63>  (49) 
hbond:TYR:63    0
hbond:TYR:63    0
Name: 48, dtype: object

>  <hbond:TYR:64>  (49) 
hbond:TYR:64    0
hbond:TYR:64    0
Name: 48, dtype: object

>  <halogenbond:TYR:64>  (49) 
halogenbond:TYR:64    0
halogenbond:TYR:64    0
Name: 48, dtype: object

>  <hydroph_interaction:TYR:64>  (49) 
hydroph_interaction:TYR:64    0
hydroph_interaction:TYR:64    0
Name: 48, dtype: object

>  <hbond:CYS:65>  (49) 
hbond:CYS:65    0
hbond:CYS:65    0
Name: 48, dtype: object

>  <halogenbond:CYS:65>  (49) 
halogenbond:CYS:65    0
halogenbond:CYS:65    0
Name: 48, dtype: object

>  <hbond:SER:66>  (49) 
hbond:SER:66    0
hbond:SER:66    0
Name: 48, dtype: object

>  <hbond:SER:67>  (49) 
hbond:SER:67    0
hbond:SER:67    0
Name: 48, dtype: object

>  <halogenbond:SER:67>  (49) 
halogenbond:SER:67    0
halogenbond:SER:67    0
Name: 48, dtype: object

>  <hydroph_interaction:ARG:68>  (49) 
hydroph_interaction:ARG:68    0
hydroph_interaction:ARG:68    0
Name: 48, dtype: object

>  <hbond:ARG:68>  (49) 
hbond:ARG:68    0
hbond:ARG:68    0
Name: 48, dtype: object

>  <saltbridge:ARG:68>  (49) 
saltbridge:ARG:68    0
saltbridge:ARG:68    0
Name: 48, dtype: object

>  <pication:ARG:68>  (49) 
pication:ARG:68    0
pication:ARG:68    0
Name: 48, dtype: object

>  <hydroph_interaction:TYR:72>  (49) 
hydroph_interaction:TYR:72    0
hydroph_interaction:TYR:72    0
Name: 48, dtype: object

>  <hydroph_interaction:VAL:74>  (49) 
hydroph_interaction:VAL:74    0
hydroph_interaction:VAL:74    0
Name: 48, dtype: object

>  <hydroph_interaction:PHE:76>  (49) 
hydroph_interaction:PHE:76    0
hydroph_interaction:PHE:76    0
Name: 48, dtype: object

>  <hbond:SER:77>  (49) 
hbond:SER:77    0
hbond:SER:77    0
Name: 48, dtype: object

>  <hbond:SER:80>  (49) 
hbond:SER:80    0
hbond:SER:80    0
Name: 48, dtype: object

>  <hbond:LEU:81>  (49) 
hbond:LEU:81    0
hbond:LEU:81    0
Name: 48, dtype: object

>  <halogenbond:LEU:81>  (49) 
halogenbond:LEU:81    0
halogenbond:LEU:81    0
Name: 48, dtype: object

>  <hydroph_interaction:LEU:81>  (49) 
hydroph_interaction:LEU:81    0
hydroph_interaction:LEU:81    0
Name: 48, dtype: object

>  <hydroph_interaction:ILE:82>  (49) 
hydroph_interaction:ILE:82    0
hydroph_interaction:ILE:82    0
Name: 48, dtype: object

>  <hbond:ILE:82>  (49) 
hbond:ILE:82    0
hbond:ILE:82    0
Name: 48, dtype: object

>  <hydroph_interaction:PHE:83>  (49) 
hydroph_interaction:PHE:83    0
hydroph_interaction:PHE:83    0
Name: 48, dtype: object

>  <hbond:PHE:83>  (49) 
hbond:PHE:83    0
hbond:PHE:83    0
Name: 48, dtype: object

>  <halogenbond:PHE:83>  (49) 
halogenbond:PHE:83    0
halogenbond:PHE:83    0
Name: 48, dtype: object

>  <pistack:PHE:83>  (49) 
pistack:PHE:83    0
pistack:PHE:83    0
Name: 48, dtype: object

>  <hydroph_interaction:VAL:84>  (49) 
hydroph_interaction:VAL:84    0
hydroph_interaction:VAL:84    0
Name: 48, dtype: object

>  <hbond:VAL:84>  (49) 
hbond:VAL:84    0
hbond:VAL:84    0
Name: 48, dtype: object

>  <halogenbond:VAL:84>  (49) 
halogenbond:VAL:84    0
halogenbond:VAL:84    0
Name: 48, dtype: object

>  <hydroph_interaction:GLU:85>  (49) 
hydroph_interaction:GLU:85    0
hydroph_interaction:GLU:85    0
Name: 48, dtype: object

>  <hbond:GLU:85>  (49) 
hbond:GLU:85    0
hbond:GLU:85    0
Name: 48, dtype: object

>  <saltbridge:GLU:85>  (49) 
saltbridge:GLU:85    0
saltbridge:GLU:85    0
Name: 48, dtype: object

>  <halogenbond:GLU:85>  (49) 
halogenbond:GLU:85    0
halogenbond:GLU:85    0
Name: 48, dtype: object

>  <hbond:ALA:86>  (49) 
hbond:ALA:86    0
hbond:ALA:86    0
Name: 48, dtype: object

>  <halogenbond:ALA:86>  (49) 
halogenbond:ALA:86    0
halogenbond:ALA:86    0
Name: 48, dtype: object

>  <hydroph_interaction:ALA:86>  (49) 
hydroph_interaction:ALA:86    0
hydroph_interaction:ALA:86    0
Name: 48, dtype: object

>  <hbond:SER:87>  (49) 
hbond:SER:87    0
hbond:SER:87    0
Name: 48, dtype: object

>  <halogenbond:SER:87>  (49) 
halogenbond:SER:87    0
halogenbond:SER:87    0
Name: 48, dtype: object

>  <hbond:GLU:88>  (49) 
hbond:GLU:88    0
hbond:GLU:88    0
Name: 48, dtype: object

>  <hydroph_interaction:GLU:88>  (49) 
hydroph_interaction:GLU:88    0
hydroph_interaction:GLU:88    0
Name: 48, dtype: object

>  <halogenbond:GLU:88>  (49) 
halogenbond:GLU:88    0
halogenbond:GLU:88    0
Name: 48, dtype: object

>  <saltbridge:GLU:88>  (49) 
saltbridge:GLU:88    0
saltbridge:GLU:88    0
Name: 48, dtype: object

>  <hydroph_interaction:TYR:89>  (49) 
hydroph_interaction:TYR:89    0
hydroph_interaction:TYR:89    0
Name: 48, dtype: object

>  <pistack:TYR:89>  (49) 
pistack:TYR:89    0
pistack:TYR:89    0
Name: 48, dtype: object

>  <hbond:TYR:89>  (49) 
hbond:TYR:89    0
hbond:TYR:89    0
Name: 48, dtype: object

>  <halogenbond:TYR:89>  (49) 
halogenbond:TYR:89    0
halogenbond:TYR:89    0
Name: 48, dtype: object

>  <hbond:TYR:90>  (49) 
hbond:TYR:90    0
hbond:TYR:90    0
Name: 48, dtype: object

>  <hydroph_interaction:TYR:90>  (49) 
hydroph_interaction:TYR:90    1
hydroph_interaction:TYR:90    1
Name: 48, dtype: object

>  <pistack:TYR:90>  (49) 
pistack:TYR:90    0
pistack:TYR:90    0
Name: 48, dtype: object

>  <halogenbond:TYR:90>  (49) 
halogenbond:TYR:90    0
halogenbond:TYR:90    0
Name: 48, dtype: object

>  <pication:TYR:90>  (49) 
pication:TYR:90    0
pication:TYR:90    0
Name: 48, dtype: object

>  <hydroph_interaction:PRO:91>  (49) 
hydroph_interaction:PRO:91    0
hydroph_interaction:PRO:91    0
Name: 48, dtype: object

>  <halogenbond:PRO:91>  (49) 
halogenbond:PRO:91    0
halogenbond:PRO:91    0
Name: 48, dtype: object

>  <hbond:PRO:91>  (49) 
hbond:PRO:91    0
hbond:PRO:91    0
Name: 48, dtype: object

>  <hydroph_interaction:ALA:92>  (49) 
hydroph_interaction:ALA:92    0
hydroph_interaction:ALA:92    0
Name: 48, dtype: object

>  <hbond:ARG:93>  (49) 
hbond:ARG:93    0
hbond:ARG:93    0
Name: 48, dtype: object

>  <pication:ARG:93>  (49) 
pication:ARG:93    0
pication:ARG:93    0
Name: 48, dtype: object

>  <saltbridge:ARG:93>  (49) 
saltbridge:ARG:93    1
saltbridge:ARG:93    1
Name: 48, dtype: object

>  <hydroph_interaction:ARG:93>  (49) 
hydroph_interaction:ARG:93    0
hydroph_interaction:ARG:93    0
Name: 48, dtype: object

>  <halogenbond:ARG:93>  (49) 
halogenbond:ARG:93    0
halogenbond:ARG:93    0
Name: 48, dtype: object

>  <hydroph_interaction:TYR:94>  (49) 
hydroph_interaction:TYR:94    0
hydroph_interaction:TYR:94    0
Name: 48, dtype: object

>  <hbond:TYR:94>  (49) 
hbond:TYR:94    0
hbond:TYR:94    0
Name: 48, dtype: object

>  <halogenbond:GLN:95>  (49) 
halogenbond:GLN:95    0
halogenbond:GLN:95    0
Name: 48, dtype: object

>  <hbond:GLN:95>  (49) 
hbond:GLN:95    0
hbond:GLN:95    0
Name: 48, dtype: object

>  <hydroph_interaction:GLN:95>  (49) 
hydroph_interaction:GLN:95    0
hydroph_interaction:GLN:95    0
Name: 48, dtype: object

>  <hbond:SER:96>  (49) 
hbond:SER:96    0
hbond:SER:96    0
Name: 48, dtype: object

>  <hydroph_interaction:LEU:98>  (49) 
hydroph_interaction:LEU:98    0
hydroph_interaction:LEU:98    0
Name: 48, dtype: object

>  <hbond:LEU:98>  (49) 
hbond:LEU:98    0
hbond:LEU:98    0
Name: 48, dtype: object

>  <hbond:MET:99>  (49) 
hbond:MET:99    0
hbond:MET:99    0
Name: 48, dtype: object

>  <hydroph_interaction:MET:99>  (49) 
hydroph_interaction:MET:99    0
hydroph_interaction:MET:99    0
Name: 48, dtype: object

>  <halogenbond:MET:99>  (49) 
halogenbond:MET:99    0
halogenbond:MET:99    0
Name: 48, dtype: object

>  <hydroph_interaction:LEU:100>  (49) 
hydroph_interaction:LEU:100    0
hydroph_interaction:LEU:100    0
Name: 48, dtype: object

>  <hbond:LEU:100>  (49) 
hbond:LEU:100    0
hbond:LEU:100    0
Name: 48, dtype: object

>  <hbond:ALA:101>  (49) 
hbond:ALA:101    0
hbond:ALA:101    0
Name: 48, dtype: object

>  <hydroph_interaction:ALA:101>  (49) 
hydroph_interaction:ALA:101    0
hydroph_interaction:ALA:101    0
Name: 48, dtype: object

>  <hydroph_interaction:VAL:102>  (49) 
hydroph_interaction:VAL:102    0
hydroph_interaction:VAL:102    0
Name: 48, dtype: object

>  <hbond:VAL:102>  (49) 
hbond:VAL:102    0
hbond:VAL:102    0
Name: 48, dtype: object

>  <hbond:GLY:103>  (49) 
hbond:GLY:103    0
hbond:GLY:103    0
Name: 48, dtype: object

>  <halogenbond:GLY:103>  (49) 
halogenbond:GLY:103    0
halogenbond:GLY:103    0
Name: 48, dtype: object

>  <hydroph_interaction:HIS:104>  (49) 
hydroph_interaction:HIS:104    0
hydroph_interaction:HIS:104    0
Name: 48, dtype: object

>  <hbond:HIS:104>  (49) 
hbond:HIS:104    0
hbond:HIS:104    0
Name: 48, dtype: object

>  <saltbridge:HIS:104>  (49) 
saltbridge:HIS:104    0
saltbridge:HIS:104    0
Name: 48, dtype: object

>  <pication:HIS:104>  (49) 
pication:HIS:104    0
pication:HIS:104    0
Name: 48, dtype: object

>  <pistack:HIS:104>  (49) 
pistack:HIS:104    0
pistack:HIS:104    0
Name: 48, dtype: object

>  <halogenbond:HIS:104>  (49) 
halogenbond:HIS:104    0
halogenbond:HIS:104    0
Name: 48, dtype: object

>  <hbond:SER:105>  (49) 
hbond:SER:105    0
hbond:SER:105    0
Name: 48, dtype: object

>  <halogenbond:SER:105>  (49) 
halogenbond:SER:105    0
halogenbond:SER:105    0
Name: 48, dtype: object

>  <hbond:GLU:106>  (49) 
hbond:GLU:106    0
hbond:GLU:106    0
Name: 48, dtype: object

>  <hydroph_interaction:GLU:106>  (49) 
hydroph_interaction:GLU:106    0
hydroph_interaction:GLU:106    0
Name: 48, dtype: object

>  <saltbridge:GLU:106>  (49) 
saltbridge:GLU:106    0
saltbridge:GLU:106    0
Name: 48, dtype: object

>  <halogenbond:GLU:106>  (49) 
halogenbond:GLU:106    0
halogenbond:GLU:106    0
Name: 48, dtype: object

>  <hydroph_interaction:PRO:107>  (49) 
hydroph_interaction:PRO:107    0
hydroph_interaction:PRO:107    0
Name: 48, dtype: object

>  <hbond:PRO:107>  (49) 
hbond:PRO:107    0
hbond:PRO:107    0
Name: 48, dtype: object

>  <halogenbond:PRO:107>  (49) 
halogenbond:PRO:107    0
halogenbond:PRO:107    0
Name: 48, dtype: object

>  <hbond:GLY:108>  (49) 
hbond:GLY:108    0
hbond:GLY:108    0
Name: 48, dtype: object

>  <halogenbond:GLY:108>  (49) 
halogenbond:GLY:108    0
halogenbond:GLY:108    0
Name: 48, dtype: object

>  <hbond:ASP:109>  (49) 
hbond:ASP:109    0
hbond:ASP:109    0
Name: 48, dtype: object

>  <hydroph_interaction:ASP:109>  (49) 
hydroph_interaction:ASP:109    0
hydroph_interaction:ASP:109    0
Name: 48, dtype: object

>  <saltbridge:ASP:109>  (49) 
saltbridge:ASP:109    0
saltbridge:ASP:109    0
Name: 48, dtype: object

>  <hbond:CYS:110>  (49) 
hbond:CYS:110    0
hbond:CYS:110    0
Name: 48, dtype: object

>  <halogenbond:CYS:110>  (49) 
halogenbond:CYS:110    0
halogenbond:CYS:110    0
Name: 48, dtype: object

>  <hbond:GLY:111>  (49) 
hbond:GLY:111    0
hbond:GLY:111    0
Name: 48, dtype: object

>  <hbond:GLY:112>  (49) 
hbond:GLY:112    0
hbond:GLY:112    0
Name: 48, dtype: object

>  <hbond:ILE:113>  (49) 
hbond:ILE:113    0
hbond:ILE:113    0
Name: 48, dtype: object

>  <hydroph_interaction:LEU:114>  (49) 
hydroph_interaction:LEU:114    0
hydroph_interaction:LEU:114    0
Name: 48, dtype: object

>  <hbond:LEU:114>  (49) 
hbond:LEU:114    0
hbond:LEU:114    0
Name: 48, dtype: object

>  <hydroph_interaction:ILE:123>  (49) 
hydroph_interaction:ILE:123    0
hydroph_interaction:ILE:123    0
Name: 48, dtype: object

>  <hbond:ILE:123>  (49) 
hbond:ILE:123    0
hbond:ILE:123    0
Name: 48, dtype: object

>  <hydroph_interaction:VAL:124>  (49) 
hydroph_interaction:VAL:124    1
hydroph_interaction:VAL:124    1
Name: 48, dtype: object

>  <hbond:VAL:124>  (49) 
hbond:VAL:124    0
hbond:VAL:124    0
Name: 48, dtype: object

>  <halogenbond:VAL:124>  (49) 
halogenbond:VAL:124    0
halogenbond:VAL:124    0
Name: 48, dtype: object

>  <hbond:SER:125>  (49) 
hbond:SER:125    0
hbond:SER:125    0
Name: 48, dtype: object

>  <halogenbond:SER:125>  (49) 
halogenbond:SER:125    0
halogenbond:SER:125    0
Name: 48, dtype: object

>  <hydroph_interaction:THR:126>  (49) 
hydroph_interaction:THR:126    1
hydroph_interaction:THR:126    1
Name: 48, dtype: object

>  <hbond:THR:126>  (49) 
hbond:THR:126    0
hbond:THR:126    0
Name: 48, dtype: object

>  <halogenbond:THR:126>  (49) 
halogenbond:THR:126    0
halogenbond:THR:126    0
Name: 48, dtype: object

>  <hbond:GLY:127>  (49) 
hbond:GLY:127    0
hbond:GLY:127    0
Name: 48, dtype: object

>  <halogenbond:GLY:127>  (49) 
halogenbond:GLY:127    0
halogenbond:GLY:127    0
Name: 48, dtype: object

>  <hydroph_interaction:GLY:127>  (49) 
hydroph_interaction:GLY:127    0
hydroph_interaction:GLY:127    0
Name: 48, dtype: object

>  <hbond:GLY:128>  (49) 
hbond:GLY:128    0
hbond:GLY:128    0
Name: 48, dtype: object

>  <halogenbond:GLY:128>  (49) 
halogenbond:GLY:128    0
halogenbond:GLY:128    0
Name: 48, dtype: object

>  <hydroph_interaction:GLY:128>  (49) 
hydroph_interaction:GLY:128    0
hydroph_interaction:GLY:128    0
Name: 48, dtype: object

>  <hbond:ASN:129>  (49) 
hbond:ASN:129    0
hbond:ASN:129    0
Name: 48, dtype: object

>  <hydroph_interaction:ASN:129>  (49) 
hydroph_interaction:ASN:129    0
hydroph_interaction:ASN:129    0
Name: 48, dtype: object

>  <halogenbond:ASN:129>  (49) 
halogenbond:ASN:129    0
halogenbond:ASN:129    0
Name: 48, dtype: object

>  <hbond:GLY:130>  (49) 
hbond:GLY:130    0
hbond:GLY:130    0
Name: 48, dtype: object

>  <hydroph_interaction:LEU:131>  (49) 
hydroph_interaction:LEU:131    0
hydroph_interaction:LEU:131    0
Name: 48, dtype: object

>  <hbond:LEU:131>  (49) 
hbond:LEU:131    0
hbond:LEU:131    0
Name: 48, dtype: object

>  <halogenbond:LEU:131>  (49) 
halogenbond:LEU:131    0
halogenbond:LEU:131    0
Name: 48, dtype: object

>  <hydroph_interaction:VAL:132>  (49) 
hydroph_interaction:VAL:132    0
hydroph_interaction:VAL:132    0
Name: 48, dtype: object

>  <hbond:VAL:132>  (49) 
hbond:VAL:132    0
hbond:VAL:132    0
Name: 48, dtype: object

>  <hbond:GLY:133>  (49) 
hbond:GLY:133    0
hbond:GLY:133    0
Name: 48, dtype: object

>  <halogenbond:GLY:133>  (49) 
halogenbond:GLY:133    0
halogenbond:GLY:133    0
Name: 48, dtype: object

>  <hydroph_interaction:PHE:134>  (49) 
hydroph_interaction:PHE:134    0
hydroph_interaction:PHE:134    0
Name: 48, dtype: object

>  <hbond:PHE:134>  (49) 
hbond:PHE:134    0
hbond:PHE:134    0
Name: 48, dtype: object

>  <pistack:PHE:134>  (49) 
pistack:PHE:134    0
pistack:PHE:134    0
Name: 48, dtype: object

>  <pication:PHE:134>  (49) 
pication:PHE:134    0
pication:PHE:134    0
Name: 48, dtype: object

>  <hydroph_interaction:ALA:135>  (49) 
hydroph_interaction:ALA:135    0
hydroph_interaction:ALA:135    0
Name: 48, dtype: object

>  <hbond:ALA:135>  (49) 
hbond:ALA:135    0
hbond:ALA:135    0
Name: 48, dtype: object

$$$$
Z2511833107
     RDKit          3D

 29 29  0  0  0  0  0  0  0  0999 V2000
    4.0580    9.3410   19.0040 C   0  0  0  0  0  0  0  0  0  0  0  0
    4.7210   10.3760   18.4560 N   0  0  0  0  0  0  0  0  0  0  0  0
    3.7430   11.3480   18.6350 C   0  0  0  0  0  0  0  0  0  0  0  0
    3.3910   12.2500   17.4730 C   0  0  0  0  0  0  0  0  0  0  0  0
    2.2940   13.1680   17.8180 C   0  0  0  0  0  0  0  0  0  0  0  0
    1.6270   13.2130   19.1420 C   0  0  0  0  0  0  0  0  0  0  0  0
    0.5170   14.1240   19.4590 C   0  0  0  0  0  0  0  0  0  0  0  0
   -0.1050   14.8460   18.3770 C   0  0  0  0  0  0  0  0  0  0  0  0
    1.0100   15.0360   20.5900 C   0  0  0  0  0  0  0  0  0  0  0  0
   -0.6270   13.2380   20.0140 C   0  0  0  0  0  0  0  0  0  0  0  0
    2.0770   12.3490   20.1140 C   0  0  0  0  0  0  0  0  0  0  0  0
    1.3630   12.3830   21.6690 Cl  0  0  0  0  0  0  0  0  0  0  0  0
    3.0960   11.4460   19.8590 C   0  0  0  0  0  0  0  0  0  0  0  0
    3.7650    8.5770   18.2890 H   0  0  0  0  0  0  0  0  0  0  0  0
    3.1610    9.7210   19.4730 H   0  0  0  0  0  0  0  0  0  0  0  0
    4.6030    8.8430   19.7560 H   0  0  0  0  0  0  0  0  0  0  0  0
    5.5780   10.4910   18.9810 H   0  0  0  0  0  0  0  0  0  0  0  0
    3.8710   12.2220   16.4960 H   0  0  0  0  0  0  0  0  0  0  0  0
    1.9530   13.8490   17.0440 H   0  0  0  0  0  0  0  0  0  0  0  0
   -1.1950   14.8430   18.4720 H   0  0  0  0  0  0  0  0  0  0  0  0
    0.2400   15.8830   18.3240 H   0  0  0  0  0  0  0  0  0  0  0  0
    0.1230   14.3650   17.4190 H   0  0  0  0  0  0  0  0  0  0  0  0
    2.0690   14.9180   20.7680 H   0  0  0  0  0  0  0  0  0  0  0  0
    0.4720   14.7630   21.5110 H   0  0  0  0  0  0  0  0  0  0  0  0
    0.8320   16.0860   20.3950 H   0  0  0  0  0  0  0  0  0  0  0  0
   -0.2920   12.2140   20.1930 H   0  0  0  0  0  0  0  0  0  0  0  0
   -1.0230   13.5930   20.9650 H   0  0  0  0  0  0  0  0  0  0  0  0
   -1.4590   13.1890   19.3120 H   0  0  0  0  0  0  0  0  0  0  0  0
    3.3410   10.8050   20.7110 H   0  0  0  0  0  0  0  0  0  0  0  0
  1  2  1  0
  2  3  1  0
  3  4  2  0
  4  5  1  0
  5  6  2  0
  6  7  1  0
  7  8  1  0
  7  9  1  0
  7 10  1  0
  6 11  1  0
 11 12  1  0
 11 13  2  0
 13  3  1  0
  1 14  1  0
  1 15  1  0
  1 16  1  0
  2 17  1  0
  4 18  1  0
  5 19  1  0
  8 20  1  0
  8 21  1  0
  8 22  1  0
  9 23  1  0
  9 24  1  0
  9 25  1  0
 10 26  1  0
 10 27  1  0
 10 28  1  0
 13 29  1  0
A    1
 C1 
A    2
 N1 
A    3
 C2 
A    4
 C3 
A    5
 C4 
A    6
 C5 
A    7
 C6 
A    8
 C7 
A    9
 C8 
A   10
 C9 
A   11
 C10
A   12
CL1 
A   13
 C11
A   14
 H1 
A   15
 H2 
A   16
 H3 
A   17
 H4 
A   18
 H5 
A   19
 H6 
A   20
 H7 
A   21
 H8 
A   22
 H9 
A   23
 H10
A   24
 H11
A   25
 H12
A   26
 H13
A   27
 H14
A   28
 H15
A   29
 H16
M  END
>  <ref_pdb>  (50) 
x0310_0A

>  <ref_mols>  (50) 
x0473_0A,x0416_0A

>  <original SMILES>  (50) 
CNc1ccc(C(C)(C)C)c(Cl)c1

>  <rationale>  (50) 
info halogenbond:N129; hbond:T126; hydroph_interaction:V84+E85+I82+L100; 

>  <intxn_cluster>  (50) 
205

>  <intxn_cluster_rank>  (50) 
13

>  <N_interactions>  (50) 
6

>  <∆∆G>  (50) 
-6.647269

>  <$/mg>  (50) 
nan

>  <comRMSD>  (50) 
0.887201

>  <N_rotatable_bonds>  (50) 
2

>  <N_analogues_07>  (50) 
0

>  <deep_P1_sidechain>  (50) 
False

>  <farthest_distance_to_substrate>  (50) 
3.903233

>  <hbond:SER:7>  (50) 
hbond:SER:7    0
hbond:SER:7    0
Name: 49, dtype: object

>  <halogenbond:SER:7>  (50) 
halogenbond:SER:7    0
halogenbond:SER:7    0
Name: 49, dtype: object

>  <hbond:GLY:8>  (50) 
hbond:GLY:8    0
hbond:GLY:8    0
Name: 49, dtype: object

>  <hydroph_interaction:ASN:19>  (50) 
hydroph_interaction:ASN:19    0
hydroph_interaction:ASN:19    0
Name: 49, dtype: object

>  <hbond:ASN:19>  (50) 
hbond:ASN:19    0
hbond:ASN:19    0
Name: 49, dtype: object

>  <halogenbond:ASN:19>  (50) 
halogenbond:ASN:19    0
halogenbond:ASN:19    0
Name: 49, dtype: object

>  <hbond:ARG:20>  (50) 
hbond:ARG:20    0
hbond:ARG:20    0
Name: 49, dtype: object

>  <hydroph_interaction:ARG:20>  (50) 
hydroph_interaction:ARG:20    0
hydroph_interaction:ARG:20    0
Name: 49, dtype: object

>  <saltbridge:ARG:20>  (50) 
saltbridge:ARG:20    0
saltbridge:ARG:20    0
Name: 49, dtype: object

>  <halogenbond:ARG:20>  (50) 
halogenbond:ARG:20    0
halogenbond:ARG:20    0
Name: 49, dtype: object

>  <pication:ARG:20>  (50) 
pication:ARG:20    0
pication:ARG:20    0
Name: 49, dtype: object

>  <hbond:HIS:21>  (50) 
hbond:HIS:21    0
hbond:HIS:21    0
Name: 49, dtype: object

>  <hydroph_interaction:HIS:21>  (50) 
hydroph_interaction:HIS:21    0
hydroph_interaction:HIS:21    0
Name: 49, dtype: object

>  <saltbridge:HIS:21>  (50) 
saltbridge:HIS:21    0
saltbridge:HIS:21    0
Name: 49, dtype: object

>  <pistack:HIS:21>  (50) 
pistack:HIS:21    0
pistack:HIS:21    0
Name: 49, dtype: object

>  <pication:HIS:21>  (50) 
pication:HIS:21    0
pication:HIS:21    0
Name: 49, dtype: object

>  <halogenbond:HIS:21>  (50) 
halogenbond:HIS:21    0
halogenbond:HIS:21    0
Name: 49, dtype: object

>  <hydroph_interaction:LEU:22>  (50) 
hydroph_interaction:LEU:22    0
hydroph_interaction:LEU:22    0
Name: 49, dtype: object

>  <hbond:LEU:22>  (50) 
hbond:LEU:22    0
hbond:LEU:22    0
Name: 49, dtype: object

>  <hydroph_interaction:TRP:28>  (50) 
hydroph_interaction:TRP:28    0
hydroph_interaction:TRP:28    0
Name: 49, dtype: object

>  <hbond:SER:36>  (50) 
hbond:SER:36    0
hbond:SER:36    0
Name: 49, dtype: object

>  <halogenbond:SER:36>  (50) 
halogenbond:SER:36    0
halogenbond:SER:36    0
Name: 49, dtype: object

>  <hbond:ARG:38>  (50) 
hbond:ARG:38    0
hbond:ARG:38    0
Name: 49, dtype: object

>  <halogenbond:ARG:38>  (50) 
halogenbond:ARG:38    0
halogenbond:ARG:38    0
Name: 49, dtype: object

>  <hbond:ASP:39>  (50) 
hbond:ASP:39    0
hbond:ASP:39    0
Name: 49, dtype: object

>  <saltbridge:ASP:39>  (50) 
saltbridge:ASP:39    0
saltbridge:ASP:39    0
Name: 49, dtype: object

>  <hydroph_interaction:ASP:39>  (50) 
hydroph_interaction:ASP:39    0
hydroph_interaction:ASP:39    0
Name: 49, dtype: object

>  <halogenbond:ASP:39>  (50) 
halogenbond:ASP:39    0
halogenbond:ASP:39    0
Name: 49, dtype: object

>  <hydroph_interaction:LEU:40>  (50) 
hydroph_interaction:LEU:40    0
hydroph_interaction:LEU:40    0
Name: 49, dtype: object

>  <hydroph_interaction:TYR:63>  (50) 
hydroph_interaction:TYR:63    0
hydroph_interaction:TYR:63    0
Name: 49, dtype: object

>  <pistack:TYR:63>  (50) 
pistack:TYR:63    0
pistack:TYR:63    0
Name: 49, dtype: object

>  <hbond:TYR:63>  (50) 
hbond:TYR:63    0
hbond:TYR:63    0
Name: 49, dtype: object

>  <hbond:TYR:64>  (50) 
hbond:TYR:64    0
hbond:TYR:64    0
Name: 49, dtype: object

>  <halogenbond:TYR:64>  (50) 
halogenbond:TYR:64    0
halogenbond:TYR:64    0
Name: 49, dtype: object

>  <hydroph_interaction:TYR:64>  (50) 
hydroph_interaction:TYR:64    0
hydroph_interaction:TYR:64    0
Name: 49, dtype: object

>  <hbond:CYS:65>  (50) 
hbond:CYS:65    0
hbond:CYS:65    0
Name: 49, dtype: object

>  <halogenbond:CYS:65>  (50) 
halogenbond:CYS:65    0
halogenbond:CYS:65    0
Name: 49, dtype: object

>  <hbond:SER:66>  (50) 
hbond:SER:66    0
hbond:SER:66    0
Name: 49, dtype: object

>  <hbond:SER:67>  (50) 
hbond:SER:67    0
hbond:SER:67    0
Name: 49, dtype: object

>  <halogenbond:SER:67>  (50) 
halogenbond:SER:67    0
halogenbond:SER:67    0
Name: 49, dtype: object

>  <hydroph_interaction:ARG:68>  (50) 
hydroph_interaction:ARG:68    0
hydroph_interaction:ARG:68    0
Name: 49, dtype: object

>  <hbond:ARG:68>  (50) 
hbond:ARG:68    0
hbond:ARG:68    0
Name: 49, dtype: object

>  <saltbridge:ARG:68>  (50) 
saltbridge:ARG:68    0
saltbridge:ARG:68    0
Name: 49, dtype: object

>  <pication:ARG:68>  (50) 
pication:ARG:68    0
pication:ARG:68    0
Name: 49, dtype: object

>  <hydroph_interaction:TYR:72>  (50) 
hydroph_interaction:TYR:72    0
hydroph_interaction:TYR:72    0
Name: 49, dtype: object

>  <hydroph_interaction:VAL:74>  (50) 
hydroph_interaction:VAL:74    0
hydroph_interaction:VAL:74    0
Name: 49, dtype: object

>  <hydroph_interaction:PHE:76>  (50) 
hydroph_interaction:PHE:76    0
hydroph_interaction:PHE:76    0
Name: 49, dtype: object

>  <hbond:SER:77>  (50) 
hbond:SER:77    0
hbond:SER:77    0
Name: 49, dtype: object

>  <hbond:SER:80>  (50) 
hbond:SER:80    0
hbond:SER:80    0
Name: 49, dtype: object

>  <hbond:LEU:81>  (50) 
hbond:LEU:81    0
hbond:LEU:81    0
Name: 49, dtype: object

>  <halogenbond:LEU:81>  (50) 
halogenbond:LEU:81    0
halogenbond:LEU:81    0
Name: 49, dtype: object

>  <hydroph_interaction:LEU:81>  (50) 
hydroph_interaction:LEU:81    0
hydroph_interaction:LEU:81    0
Name: 49, dtype: object

>  <hydroph_interaction:ILE:82>  (50) 
hydroph_interaction:ILE:82    1
hydroph_interaction:ILE:82    1
Name: 49, dtype: object

>  <hbond:ILE:82>  (50) 
hbond:ILE:82    0
hbond:ILE:82    0
Name: 49, dtype: object

>  <hydroph_interaction:PHE:83>  (50) 
hydroph_interaction:PHE:83    0
hydroph_interaction:PHE:83    0
Name: 49, dtype: object

>  <hbond:PHE:83>  (50) 
hbond:PHE:83    0
hbond:PHE:83    0
Name: 49, dtype: object

>  <halogenbond:PHE:83>  (50) 
halogenbond:PHE:83    0
halogenbond:PHE:83    0
Name: 49, dtype: object

>  <pistack:PHE:83>  (50) 
pistack:PHE:83    0
pistack:PHE:83    0
Name: 49, dtype: object

>  <hydroph_interaction:VAL:84>  (50) 
hydroph_interaction:VAL:84    1
hydroph_interaction:VAL:84    1
Name: 49, dtype: object

>  <hbond:VAL:84>  (50) 
hbond:VAL:84    0
hbond:VAL:84    0
Name: 49, dtype: object

>  <halogenbond:VAL:84>  (50) 
halogenbond:VAL:84    0
halogenbond:VAL:84    0
Name: 49, dtype: object

>  <hydroph_interaction:GLU:85>  (50) 
hydroph_interaction:GLU:85    1
hydroph_interaction:GLU:85    1
Name: 49, dtype: object

>  <hbond:GLU:85>  (50) 
hbond:GLU:85    0
hbond:GLU:85    0
Name: 49, dtype: object

>  <saltbridge:GLU:85>  (50) 
saltbridge:GLU:85    0
saltbridge:GLU:85    0
Name: 49, dtype: object

>  <halogenbond:GLU:85>  (50) 
halogenbond:GLU:85    0
halogenbond:GLU:85    0
Name: 49, dtype: object

>  <hbond:ALA:86>  (50) 
hbond:ALA:86    0
hbond:ALA:86    0
Name: 49, dtype: object

>  <halogenbond:ALA:86>  (50) 
halogenbond:ALA:86    0
halogenbond:ALA:86    0
Name: 49, dtype: object

>  <hydroph_interaction:ALA:86>  (50) 
hydroph_interaction:ALA:86    0
hydroph_interaction:ALA:86    0
Name: 49, dtype: object

>  <hbond:SER:87>  (50) 
hbond:SER:87    0
hbond:SER:87    0
Name: 49, dtype: object

>  <halogenbond:SER:87>  (50) 
halogenbond:SER:87    0
halogenbond:SER:87    0
Name: 49, dtype: object

>  <hbond:GLU:88>  (50) 
hbond:GLU:88    0
hbond:GLU:88    0
Name: 49, dtype: object

>  <hydroph_interaction:GLU:88>  (50) 
hydroph_interaction:GLU:88    0
hydroph_interaction:GLU:88    0
Name: 49, dtype: object

>  <halogenbond:GLU:88>  (50) 
halogenbond:GLU:88    0
halogenbond:GLU:88    0
Name: 49, dtype: object

>  <saltbridge:GLU:88>  (50) 
saltbridge:GLU:88    0
saltbridge:GLU:88    0
Name: 49, dtype: object

>  <hydroph_interaction:TYR:89>  (50) 
hydroph_interaction:TYR:89    0
hydroph_interaction:TYR:89    0
Name: 49, dtype: object

>  <pistack:TYR:89>  (50) 
pistack:TYR:89    0
pistack:TYR:89    0
Name: 49, dtype: object

>  <hbond:TYR:89>  (50) 
hbond:TYR:89    0
hbond:TYR:89    0
Name: 49, dtype: object

>  <halogenbond:TYR:89>  (50) 
halogenbond:TYR:89    0
halogenbond:TYR:89    0
Name: 49, dtype: object

>  <hbond:TYR:90>  (50) 
hbond:TYR:90    0
hbond:TYR:90    0
Name: 49, dtype: object

>  <hydroph_interaction:TYR:90>  (50) 
hydroph_interaction:TYR:90    0
hydroph_interaction:TYR:90    0
Name: 49, dtype: object

>  <pistack:TYR:90>  (50) 
pistack:TYR:90    0
pistack:TYR:90    0
Name: 49, dtype: object

>  <halogenbond:TYR:90>  (50) 
halogenbond:TYR:90    0
halogenbond:TYR:90    0
Name: 49, dtype: object

>  <pication:TYR:90>  (50) 
pication:TYR:90    0
pication:TYR:90    0
Name: 49, dtype: object

>  <hydroph_interaction:PRO:91>  (50) 
hydroph_interaction:PRO:91    0
hydroph_interaction:PRO:91    0
Name: 49, dtype: object

>  <halogenbond:PRO:91>  (50) 
halogenbond:PRO:91    0
halogenbond:PRO:91    0
Name: 49, dtype: object

>  <hbond:PRO:91>  (50) 
hbond:PRO:91    0
hbond:PRO:91    0
Name: 49, dtype: object

>  <hydroph_interaction:ALA:92>  (50) 
hydroph_interaction:ALA:92    0
hydroph_interaction:ALA:92    0
Name: 49, dtype: object

>  <hbond:ARG:93>  (50) 
hbond:ARG:93    0
hbond:ARG:93    0
Name: 49, dtype: object

>  <pication:ARG:93>  (50) 
pication:ARG:93    0
pication:ARG:93    0
Name: 49, dtype: object

>  <saltbridge:ARG:93>  (50) 
saltbridge:ARG:93    0
saltbridge:ARG:93    0
Name: 49, dtype: object

>  <hydroph_interaction:ARG:93>  (50) 
hydroph_interaction:ARG:93    0
hydroph_interaction:ARG:93    0
Name: 49, dtype: object

>  <halogenbond:ARG:93>  (50) 
halogenbond:ARG:93    0
halogenbond:ARG:93    0
Name: 49, dtype: object

>  <hydroph_interaction:TYR:94>  (50) 
hydroph_interaction:TYR:94    0
hydroph_interaction:TYR:94    0
Name: 49, dtype: object

>  <hbond:TYR:94>  (50) 
hbond:TYR:94    0
hbond:TYR:94    0
Name: 49, dtype: object

>  <halogenbond:GLN:95>  (50) 
halogenbond:GLN:95    0
halogenbond:GLN:95    0
Name: 49, dtype: object

>  <hbond:GLN:95>  (50) 
hbond:GLN:95    0
hbond:GLN:95    0
Name: 49, dtype: object

>  <hydroph_interaction:GLN:95>  (50) 
hydroph_interaction:GLN:95    0
hydroph_interaction:GLN:95    0
Name: 49, dtype: object

>  <hbond:SER:96>  (50) 
hbond:SER:96    0
hbond:SER:96    0
Name: 49, dtype: object

>  <hydroph_interaction:LEU:98>  (50) 
hydroph_interaction:LEU:98    0
hydroph_interaction:LEU:98    0
Name: 49, dtype: object

>  <hbond:LEU:98>  (50) 
hbond:LEU:98    0
hbond:LEU:98    0
Name: 49, dtype: object

>  <hbond:MET:99>  (50) 
hbond:MET:99    0
hbond:MET:99    0
Name: 49, dtype: object

>  <hydroph_interaction:MET:99>  (50) 
hydroph_interaction:MET:99    0
hydroph_interaction:MET:99    0
Name: 49, dtype: object

>  <halogenbond:MET:99>  (50) 
halogenbond:MET:99    0
halogenbond:MET:99    0
Name: 49, dtype: object

>  <hydroph_interaction:LEU:100>  (50) 
hydroph_interaction:LEU:100    1
hydroph_interaction:LEU:100    1
Name: 49, dtype: object

>  <hbond:LEU:100>  (50) 
hbond:LEU:100    0
hbond:LEU:100    0
Name: 49, dtype: object

>  <hbond:ALA:101>  (50) 
hbond:ALA:101    0
hbond:ALA:101    0
Name: 49, dtype: object

>  <hydroph_interaction:ALA:101>  (50) 
hydroph_interaction:ALA:101    0
hydroph_interaction:ALA:101    0
Name: 49, dtype: object

>  <hydroph_interaction:VAL:102>  (50) 
hydroph_interaction:VAL:102    0
hydroph_interaction:VAL:102    0
Name: 49, dtype: object

>  <hbond:VAL:102>  (50) 
hbond:VAL:102    0
hbond:VAL:102    0
Name: 49, dtype: object

>  <hbond:GLY:103>  (50) 
hbond:GLY:103    0
hbond:GLY:103    0
Name: 49, dtype: object

>  <halogenbond:GLY:103>  (50) 
halogenbond:GLY:103    0
halogenbond:GLY:103    0
Name: 49, dtype: object

>  <hydroph_interaction:HIS:104>  (50) 
hydroph_interaction:HIS:104    0
hydroph_interaction:HIS:104    0
Name: 49, dtype: object

>  <hbond:HIS:104>  (50) 
hbond:HIS:104    0
hbond:HIS:104    0
Name: 49, dtype: object

>  <saltbridge:HIS:104>  (50) 
saltbridge:HIS:104    0
saltbridge:HIS:104    0
Name: 49, dtype: object

>  <pication:HIS:104>  (50) 
pication:HIS:104    0
pication:HIS:104    0
Name: 49, dtype: object

>  <pistack:HIS:104>  (50) 
pistack:HIS:104    0
pistack:HIS:104    0
Name: 49, dtype: object

>  <halogenbond:HIS:104>  (50) 
halogenbond:HIS:104    0
halogenbond:HIS:104    0
Name: 49, dtype: object

>  <hbond:SER:105>  (50) 
hbond:SER:105    0
hbond:SER:105    0
Name: 49, dtype: object

>  <halogenbond:SER:105>  (50) 
halogenbond:SER:105    0
halogenbond:SER:105    0
Name: 49, dtype: object

>  <hbond:GLU:106>  (50) 
hbond:GLU:106    0
hbond:GLU:106    0
Name: 49, dtype: object

>  <hydroph_interaction:GLU:106>  (50) 
hydroph_interaction:GLU:106    0
hydroph_interaction:GLU:106    0
Name: 49, dtype: object

>  <saltbridge:GLU:106>  (50) 
saltbridge:GLU:106    0
saltbridge:GLU:106    0
Name: 49, dtype: object

>  <halogenbond:GLU:106>  (50) 
halogenbond:GLU:106    0
halogenbond:GLU:106    0
Name: 49, dtype: object

>  <hydroph_interaction:PRO:107>  (50) 
hydroph_interaction:PRO:107    0
hydroph_interaction:PRO:107    0
Name: 49, dtype: object

>  <hbond:PRO:107>  (50) 
hbond:PRO:107    0
hbond:PRO:107    0
Name: 49, dtype: object

>  <halogenbond:PRO:107>  (50) 
halogenbond:PRO:107    0
halogenbond:PRO:107    0
Name: 49, dtype: object

>  <hbond:GLY:108>  (50) 
hbond:GLY:108    0
hbond:GLY:108    0
Name: 49, dtype: object

>  <halogenbond:GLY:108>  (50) 
halogenbond:GLY:108    0
halogenbond:GLY:108    0
Name: 49, dtype: object

>  <hbond:ASP:109>  (50) 
hbond:ASP:109    0
hbond:ASP:109    0
Name: 49, dtype: object

>  <hydroph_interaction:ASP:109>  (50) 
hydroph_interaction:ASP:109    0
hydroph_interaction:ASP:109    0
Name: 49, dtype: object

>  <saltbridge:ASP:109>  (50) 
saltbridge:ASP:109    0
saltbridge:ASP:109    0
Name: 49, dtype: object

>  <hbond:CYS:110>  (50) 
hbond:CYS:110    0
hbond:CYS:110    0
Name: 49, dtype: object

>  <halogenbond:CYS:110>  (50) 
halogenbond:CYS:110    0
halogenbond:CYS:110    0
Name: 49, dtype: object

>  <hbond:GLY:111>  (50) 
hbond:GLY:111    0
hbond:GLY:111    0
Name: 49, dtype: object

>  <hbond:GLY:112>  (50) 
hbond:GLY:112    0
hbond:GLY:112    0
Name: 49, dtype: object

>  <hbond:ILE:113>  (50) 
hbond:ILE:113    0
hbond:ILE:113    0
Name: 49, dtype: object

>  <hydroph_interaction:LEU:114>  (50) 
hydroph_interaction:LEU:114    0
hydroph_interaction:LEU:114    0
Name: 49, dtype: object

>  <hbond:LEU:114>  (50) 
hbond:LEU:114    0
hbond:LEU:114    0
Name: 49, dtype: object

>  <hydroph_interaction:ILE:123>  (50) 
hydroph_interaction:ILE:123    0
hydroph_interaction:ILE:123    0
Name: 49, dtype: object

>  <hbond:ILE:123>  (50) 
hbond:ILE:123    0
hbond:ILE:123    0
Name: 49, dtype: object

>  <hydroph_interaction:VAL:124>  (50) 
hydroph_interaction:VAL:124    0
hydroph_interaction:VAL:124    0
Name: 49, dtype: object

>  <hbond:VAL:124>  (50) 
hbond:VAL:124    0
hbond:VAL:124    0
Name: 49, dtype: object

>  <halogenbond:VAL:124>  (50) 
halogenbond:VAL:124    0
halogenbond:VAL:124    0
Name: 49, dtype: object

>  <hbond:SER:125>  (50) 
hbond:SER:125    0
hbond:SER:125    0
Name: 49, dtype: object

>  <halogenbond:SER:125>  (50) 
halogenbond:SER:125    0
halogenbond:SER:125    0
Name: 49, dtype: object

>  <hydroph_interaction:THR:126>  (50) 
hydroph_interaction:THR:126    0
hydroph_interaction:THR:126    0
Name: 49, dtype: object

>  <hbond:THR:126>  (50) 
hbond:THR:126    1
hbond:THR:126    1
Name: 49, dtype: object

>  <halogenbond:THR:126>  (50) 
halogenbond:THR:126    0
halogenbond:THR:126    0
Name: 49, dtype: object

>  <hbond:GLY:127>  (50) 
hbond:GLY:127    0
hbond:GLY:127    0
Name: 49, dtype: object

>  <halogenbond:GLY:127>  (50) 
halogenbond:GLY:127    0
halogenbond:GLY:127    0
Name: 49, dtype: object

>  <hydroph_interaction:GLY:127>  (50) 
hydroph_interaction:GLY:127    0
hydroph_interaction:GLY:127    0
Name: 49, dtype: object

>  <hbond:GLY:128>  (50) 
hbond:GLY:128    0
hbond:GLY:128    0
Name: 49, dtype: object

>  <halogenbond:GLY:128>  (50) 
halogenbond:GLY:128    0
halogenbond:GLY:128    0
Name: 49, dtype: object

>  <hydroph_interaction:GLY:128>  (50) 
hydroph_interaction:GLY:128    0
hydroph_interaction:GLY:128    0
Name: 49, dtype: object

>  <hbond:ASN:129>  (50) 
hbond:ASN:129    0
hbond:ASN:129    0
Name: 49, dtype: object

>  <hydroph_interaction:ASN:129>  (50) 
hydroph_interaction:ASN:129    0
hydroph_interaction:ASN:129    0
Name: 49, dtype: object

>  <halogenbond:ASN:129>  (50) 
halogenbond:ASN:129    1
halogenbond:ASN:129    1
Name: 49, dtype: object

>  <hbond:GLY:130>  (50) 
hbond:GLY:130    0
hbond:GLY:130    0
Name: 49, dtype: object

>  <hydroph_interaction:LEU:131>  (50) 
hydroph_interaction:LEU:131    0
hydroph_interaction:LEU:131    0
Name: 49, dtype: object

>  <hbond:LEU:131>  (50) 
hbond:LEU:131    0
hbond:LEU:131    0
Name: 49, dtype: object

>  <halogenbond:LEU:131>  (50) 
halogenbond:LEU:131    0
halogenbond:LEU:131    0
Name: 49, dtype: object

>  <hydroph_interaction:VAL:132>  (50) 
hydroph_interaction:VAL:132    0
hydroph_interaction:VAL:132    0
Name: 49, dtype: object

>  <hbond:VAL:132>  (50) 
hbond:VAL:132    0
hbond:VAL:132    0
Name: 49, dtype: object

>  <hbond:GLY:133>  (50) 
hbond:GLY:133    0
hbond:GLY:133    0
Name: 49, dtype: object

>  <halogenbond:GLY:133>  (50) 
halogenbond:GLY:133    0
halogenbond:GLY:133    0
Name: 49, dtype: object

>  <hydroph_interaction:PHE:134>  (50) 
hydroph_interaction:PHE:134    0
hydroph_interaction:PHE:134    0
Name: 49, dtype: object

>  <hbond:PHE:134>  (50) 
hbond:PHE:134    0
hbond:PHE:134    0
Name: 49, dtype: object

>  <pistack:PHE:134>  (50) 
pistack:PHE:134    0
pistack:PHE:134    0
Name: 49, dtype: object

>  <pication:PHE:134>  (50) 
pication:PHE:134    0
pication:PHE:134    0
Name: 49, dtype: object

>  <hydroph_interaction:ALA:135>  (50) 
hydroph_interaction:ALA:135    0
hydroph_interaction:ALA:135    0
Name: 49, dtype: object

>  <hbond:ALA:135>  (50) 
hbond:ALA:135    0
hbond:ALA:135    0
Name: 49, dtype: object

$$$$
Z3465836346
     RDKit          3D

 32 34  0  0  0  0  0  0  0  0999 V2000
   13.3260   16.2770   20.5000 C   0  0  0  0  0  0  0  0  0  0  0  0
   12.3210   15.3660   21.1250 C   0  0  0  0  0  0  0  0  0  0  0  0
   10.8660   15.5030   20.7100 C   0  0  0  0  0  0  0  0  0  0  0  0
    9.9560   14.5270   21.3850 C   0  0  0  0  0  0  0  0  0  0  0  0
   10.4830   13.6070   22.2980 C   0  0  0  0  0  0  0  0  0  0  0  0
    9.8070   12.6360   22.9650 C   0  0  0  0  0  0  0  0  0  0  0  0
   10.1430   11.2620   22.7020 C   0  0  0  0  0  0  0  0  0  0  0  0
    9.4310   10.4320   23.4000 N   0  0  0  0  0  0  0  0  0  0  0  0
    9.5950    9.0330   23.2910 C   0  0  0  0  0  0  0  0  0  0  0  0
    8.5650   11.1360   24.1980 C   0  0  0  0  0  0  0  0  0  0  0  0
    7.6330   10.6680   25.0950 C   0  0  0  0  0  0  0  0  0  0  0  0
    6.8070   11.6430   25.8450 C   0  0  0  0  0  0  0  0  0  0  0  0
    6.9860   13.0000   25.6320 C   0  0  0  0  0  0  0  0  0  0  0  0
    7.9560   13.4380   24.6990 C   0  0  0  0  0  0  0  0  0  0  0  0
    8.7610   12.5250   23.9630 C   0  0  0  0  0  0  0  0  0  0  0  0
   11.8310   13.5880   22.5990 C   0  0  0  0  0  0  0  0  0  0  0  0
   12.7350   14.4400   22.0380 C   0  0  0  0  0  0  0  0  0  0  0  0
   14.2620   16.2160   21.0410 H   0  0  0  0  0  0  0  0  0  0  0  0
   12.9620   17.3040   20.5250 H   0  0  0  0  0  0  0  0  0  0  0  0
   13.5190   15.9540   19.4830 H   0  0  0  0  0  0  0  0  0  0  0  0
   10.5850   16.2650   19.9770 H   0  0  0  0  0  0  0  0  0  0  0  0
    8.8970   14.5880   21.1090 H   0  0  0  0  0  0  0  0  0  0  0  0
   10.9150   11.0370   21.9840 H   0  0  0  0  0  0  0  0  0  0  0  0
   10.6630    8.7990   23.3250 H   0  0  0  0  0  0  0  0  0  0  0  0
    9.0690    8.5910   24.1280 H   0  0  0  0  0  0  0  0  0  0  0  0
    9.1740    8.6730   22.3520 H   0  0  0  0  0  0  0  0  0  0  0  0
    7.5140    9.6090   25.2430 H   0  0  0  0  0  0  0  0  0  0  0  0
    6.0630   11.2950   26.5590 H   0  0  0  0  0  0  0  0  0  0  0  0
    6.3820   13.7130   26.1820 H   0  0  0  0  0  0  0  0  0  0  0  0
    8.0880   14.5050   24.5390 H   0  0  0  0  0  0  0  0  0  0  0  0
   12.1980   12.8580   23.3160 H   0  0  0  0  0  0  0  0  0  0  0  0
   13.7800   14.3690   22.3200 H   0  0  0  0  0  0  0  0  0  0  0  0
  1  2  1  0
  2  3  2  0
  3  4  1  0
  4  5  2  0
  5  6  1  0
  6  7  2  0
  7  8  1  0
  8  9  1  0
  8 10  1  0
 10 11  2  0
 11 12  1  0
 12 13  2  0
 13 14  1  0
 14 15  2  0
  5 16  1  0
 16 17  2  0
 17  2  1  0
 15  6  1  0
 15 10  1  0
  1 18  1  0
  1 19  1  0
  1 20  1  0
  3 21  1  0
  4 22  1  0
  7 23  1  0
  9 24  1  0
  9 25  1  0
  9 26  1  0
 11 27  1  0
 12 28  1  0
 13 29  1  0
 14 30  1  0
 16 31  1  0
 17 32  1  0
A    1
 C1 
A    2
 C2 
A    3
 C3 
A    4
 C4 
A    5
 C5 
A    6
 C6 
A    7
 C7 
A    8
 N1 
A    9
 C8 
A   10
 C9 
A   11
 C10
A   12
 C11
A   13
 C12
A   14
 C13
A   15
 C14
A   16
 C15
A   17
 C16
A   18
 H1 
A   19
 H2 
A   20
 H3 
A   21
 H4 
A   22
 H5 
A   23
 H6 
A   24
 H7 
A   25
 H8 
A   26
 H9 
A   27
 H10
A   28
 H11
A   29
 H12
A   30
 H13
A   31
 H14
A   32
 H15
M  END
>  <ref_pdb>  (51) 
x0310_0A

>  <ref_mols>  (51) 
x0451_0A,x0812_0A

>  <original SMILES>  (51) 
Cc1ccc(-c2cn(C)c3ccccc23)cc1

>  <rationale>  (51) 
info hydroph_interaction:Y89+Y90+H21; 

>  <intxn_cluster>  (51) 
206

>  <intxn_cluster_rank>  (51) 
13

>  <N_interactions>  (51) 
3

>  <∆∆G>  (51) 
-11.787186

>  <$/mg>  (51) 
163.0

>  <comRMSD>  (51) 
0.932055

>  <N_rotatable_bonds>  (51) 
3

>  <N_analogues_07>  (51) 
7

>  <deep_P1_sidechain>  (51) 
False

>  <farthest_distance_to_substrate>  (51) 
2.531963

>  <hbond:SER:7>  (51) 
hbond:SER:7    0
hbond:SER:7    0
Name: 50, dtype: object

>  <halogenbond:SER:7>  (51) 
halogenbond:SER:7    0
halogenbond:SER:7    0
Name: 50, dtype: object

>  <hbond:GLY:8>  (51) 
hbond:GLY:8    0
hbond:GLY:8    0
Name: 50, dtype: object

>  <hydroph_interaction:ASN:19>  (51) 
hydroph_interaction:ASN:19    0
hydroph_interaction:ASN:19    0
Name: 50, dtype: object

>  <hbond:ASN:19>  (51) 
hbond:ASN:19    0
hbond:ASN:19    0
Name: 50, dtype: object

>  <halogenbond:ASN:19>  (51) 
halogenbond:ASN:19    0
halogenbond:ASN:19    0
Name: 50, dtype: object

>  <hbond:ARG:20>  (51) 
hbond:ARG:20    0
hbond:ARG:20    0
Name: 50, dtype: object

>  <hydroph_interaction:ARG:20>  (51) 
hydroph_interaction:ARG:20    0
hydroph_interaction:ARG:20    0
Name: 50, dtype: object

>  <saltbridge:ARG:20>  (51) 
saltbridge:ARG:20    0
saltbridge:ARG:20    0
Name: 50, dtype: object

>  <halogenbond:ARG:20>  (51) 
halogenbond:ARG:20    0
halogenbond:ARG:20    0
Name: 50, dtype: object

>  <pication:ARG:20>  (51) 
pication:ARG:20    0
pication:ARG:20    0
Name: 50, dtype: object

>  <hbond:HIS:21>  (51) 
hbond:HIS:21    0
hbond:HIS:21    0
Name: 50, dtype: object

>  <hydroph_interaction:HIS:21>  (51) 
hydroph_interaction:HIS:21    1
hydroph_interaction:HIS:21    1
Name: 50, dtype: object

>  <saltbridge:HIS:21>  (51) 
saltbridge:HIS:21    0
saltbridge:HIS:21    0
Name: 50, dtype: object

>  <pistack:HIS:21>  (51) 
pistack:HIS:21    0
pistack:HIS:21    0
Name: 50, dtype: object

>  <pication:HIS:21>  (51) 
pication:HIS:21    0
pication:HIS:21    0
Name: 50, dtype: object

>  <halogenbond:HIS:21>  (51) 
halogenbond:HIS:21    0
halogenbond:HIS:21    0
Name: 50, dtype: object

>  <hydroph_interaction:LEU:22>  (51) 
hydroph_interaction:LEU:22    0
hydroph_interaction:LEU:22    0
Name: 50, dtype: object

>  <hbond:LEU:22>  (51) 
hbond:LEU:22    0
hbond:LEU:22    0
Name: 50, dtype: object

>  <hydroph_interaction:TRP:28>  (51) 
hydroph_interaction:TRP:28    0
hydroph_interaction:TRP:28    0
Name: 50, dtype: object

>  <hbond:SER:36>  (51) 
hbond:SER:36    0
hbond:SER:36    0
Name: 50, dtype: object

>  <halogenbond:SER:36>  (51) 
halogenbond:SER:36    0
halogenbond:SER:36    0
Name: 50, dtype: object

>  <hbond:ARG:38>  (51) 
hbond:ARG:38    0
hbond:ARG:38    0
Name: 50, dtype: object

>  <halogenbond:ARG:38>  (51) 
halogenbond:ARG:38    0
halogenbond:ARG:38    0
Name: 50, dtype: object

>  <hbond:ASP:39>  (51) 
hbond:ASP:39    0
hbond:ASP:39    0
Name: 50, dtype: object

>  <saltbridge:ASP:39>  (51) 
saltbridge:ASP:39    0
saltbridge:ASP:39    0
Name: 50, dtype: object

>  <hydroph_interaction:ASP:39>  (51) 
hydroph_interaction:ASP:39    0
hydroph_interaction:ASP:39    0
Name: 50, dtype: object

>  <halogenbond:ASP:39>  (51) 
halogenbond:ASP:39    0
halogenbond:ASP:39    0
Name: 50, dtype: object

>  <hydroph_interaction:LEU:40>  (51) 
hydroph_interaction:LEU:40    0
hydroph_interaction:LEU:40    0
Name: 50, dtype: object

>  <hydroph_interaction:TYR:63>  (51) 
hydroph_interaction:TYR:63    0
hydroph_interaction:TYR:63    0
Name: 50, dtype: object

>  <pistack:TYR:63>  (51) 
pistack:TYR:63    0
pistack:TYR:63    0
Name: 50, dtype: object

>  <hbond:TYR:63>  (51) 
hbond:TYR:63    0
hbond:TYR:63    0
Name: 50, dtype: object

>  <hbond:TYR:64>  (51) 
hbond:TYR:64    0
hbond:TYR:64    0
Name: 50, dtype: object

>  <halogenbond:TYR:64>  (51) 
halogenbond:TYR:64    0
halogenbond:TYR:64    0
Name: 50, dtype: object

>  <hydroph_interaction:TYR:64>  (51) 
hydroph_interaction:TYR:64    0
hydroph_interaction:TYR:64    0
Name: 50, dtype: object

>  <hbond:CYS:65>  (51) 
hbond:CYS:65    0
hbond:CYS:65    0
Name: 50, dtype: object

>  <halogenbond:CYS:65>  (51) 
halogenbond:CYS:65    0
halogenbond:CYS:65    0
Name: 50, dtype: object

>  <hbond:SER:66>  (51) 
hbond:SER:66    0
hbond:SER:66    0
Name: 50, dtype: object

>  <hbond:SER:67>  (51) 
hbond:SER:67    0
hbond:SER:67    0
Name: 50, dtype: object

>  <halogenbond:SER:67>  (51) 
halogenbond:SER:67    0
halogenbond:SER:67    0
Name: 50, dtype: object

>  <hydroph_interaction:ARG:68>  (51) 
hydroph_interaction:ARG:68    0
hydroph_interaction:ARG:68    0
Name: 50, dtype: object

>  <hbond:ARG:68>  (51) 
hbond:ARG:68    0
hbond:ARG:68    0
Name: 50, dtype: object

>  <saltbridge:ARG:68>  (51) 
saltbridge:ARG:68    0
saltbridge:ARG:68    0
Name: 50, dtype: object

>  <pication:ARG:68>  (51) 
pication:ARG:68    0
pication:ARG:68    0
Name: 50, dtype: object

>  <hydroph_interaction:TYR:72>  (51) 
hydroph_interaction:TYR:72    0
hydroph_interaction:TYR:72    0
Name: 50, dtype: object

>  <hydroph_interaction:VAL:74>  (51) 
hydroph_interaction:VAL:74    0
hydroph_interaction:VAL:74    0
Name: 50, dtype: object

>  <hydroph_interaction:PHE:76>  (51) 
hydroph_interaction:PHE:76    0
hydroph_interaction:PHE:76    0
Name: 50, dtype: object

>  <hbond:SER:77>  (51) 
hbond:SER:77    0
hbond:SER:77    0
Name: 50, dtype: object

>  <hbond:SER:80>  (51) 
hbond:SER:80    0
hbond:SER:80    0
Name: 50, dtype: object

>  <hbond:LEU:81>  (51) 
hbond:LEU:81    0
hbond:LEU:81    0
Name: 50, dtype: object

>  <halogenbond:LEU:81>  (51) 
halogenbond:LEU:81    0
halogenbond:LEU:81    0
Name: 50, dtype: object

>  <hydroph_interaction:LEU:81>  (51) 
hydroph_interaction:LEU:81    0
hydroph_interaction:LEU:81    0
Name: 50, dtype: object

>  <hydroph_interaction:ILE:82>  (51) 
hydroph_interaction:ILE:82    0
hydroph_interaction:ILE:82    0
Name: 50, dtype: object

>  <hbond:ILE:82>  (51) 
hbond:ILE:82    0
hbond:ILE:82    0
Name: 50, dtype: object

>  <hydroph_interaction:PHE:83>  (51) 
hydroph_interaction:PHE:83    0
hydroph_interaction:PHE:83    0
Name: 50, dtype: object

>  <hbond:PHE:83>  (51) 
hbond:PHE:83    0
hbond:PHE:83    0
Name: 50, dtype: object

>  <halogenbond:PHE:83>  (51) 
halogenbond:PHE:83    0
halogenbond:PHE:83    0
Name: 50, dtype: object

>  <pistack:PHE:83>  (51) 
pistack:PHE:83    0
pistack:PHE:83    0
Name: 50, dtype: object

>  <hydroph_interaction:VAL:84>  (51) 
hydroph_interaction:VAL:84    0
hydroph_interaction:VAL:84    0
Name: 50, dtype: object

>  <hbond:VAL:84>  (51) 
hbond:VAL:84    0
hbond:VAL:84    0
Name: 50, dtype: object

>  <halogenbond:VAL:84>  (51) 
halogenbond:VAL:84    0
halogenbond:VAL:84    0
Name: 50, dtype: object

>  <hydroph_interaction:GLU:85>  (51) 
hydroph_interaction:GLU:85    0
hydroph_interaction:GLU:85    0
Name: 50, dtype: object

>  <hbond:GLU:85>  (51) 
hbond:GLU:85    0
hbond:GLU:85    0
Name: 50, dtype: object

>  <saltbridge:GLU:85>  (51) 
saltbridge:GLU:85    0
saltbridge:GLU:85    0
Name: 50, dtype: object

>  <halogenbond:GLU:85>  (51) 
halogenbond:GLU:85    0
halogenbond:GLU:85    0
Name: 50, dtype: object

>  <hbond:ALA:86>  (51) 
hbond:ALA:86    0
hbond:ALA:86    0
Name: 50, dtype: object

>  <halogenbond:ALA:86>  (51) 
halogenbond:ALA:86    0
halogenbond:ALA:86    0
Name: 50, dtype: object

>  <hydroph_interaction:ALA:86>  (51) 
hydroph_interaction:ALA:86    0
hydroph_interaction:ALA:86    0
Name: 50, dtype: object

>  <hbond:SER:87>  (51) 
hbond:SER:87    0
hbond:SER:87    0
Name: 50, dtype: object

>  <halogenbond:SER:87>  (51) 
halogenbond:SER:87    0
halogenbond:SER:87    0
Name: 50, dtype: object

>  <hbond:GLU:88>  (51) 
hbond:GLU:88    0
hbond:GLU:88    0
Name: 50, dtype: object

>  <hydroph_interaction:GLU:88>  (51) 
hydroph_interaction:GLU:88    0
hydroph_interaction:GLU:88    0
Name: 50, dtype: object

>  <halogenbond:GLU:88>  (51) 
halogenbond:GLU:88    0
halogenbond:GLU:88    0
Name: 50, dtype: object

>  <saltbridge:GLU:88>  (51) 
saltbridge:GLU:88    0
saltbridge:GLU:88    0
Name: 50, dtype: object

>  <hydroph_interaction:TYR:89>  (51) 
hydroph_interaction:TYR:89    1
hydroph_interaction:TYR:89    1
Name: 50, dtype: object

>  <pistack:TYR:89>  (51) 
pistack:TYR:89    0
pistack:TYR:89    0
Name: 50, dtype: object

>  <hbond:TYR:89>  (51) 
hbond:TYR:89    0
hbond:TYR:89    0
Name: 50, dtype: object

>  <halogenbond:TYR:89>  (51) 
halogenbond:TYR:89    0
halogenbond:TYR:89    0
Name: 50, dtype: object

>  <hbond:TYR:90>  (51) 
hbond:TYR:90    0
hbond:TYR:90    0
Name: 50, dtype: object

>  <hydroph_interaction:TYR:90>  (51) 
hydroph_interaction:TYR:90    1
hydroph_interaction:TYR:90    1
Name: 50, dtype: object

>  <pistack:TYR:90>  (51) 
pistack:TYR:90    0
pistack:TYR:90    0
Name: 50, dtype: object

>  <halogenbond:TYR:90>  (51) 
halogenbond:TYR:90    0
halogenbond:TYR:90    0
Name: 50, dtype: object

>  <pication:TYR:90>  (51) 
pication:TYR:90    0
pication:TYR:90    0
Name: 50, dtype: object

>  <hydroph_interaction:PRO:91>  (51) 
hydroph_interaction:PRO:91    0
hydroph_interaction:PRO:91    0
Name: 50, dtype: object

>  <halogenbond:PRO:91>  (51) 
halogenbond:PRO:91    0
halogenbond:PRO:91    0
Name: 50, dtype: object

>  <hbond:PRO:91>  (51) 
hbond:PRO:91    0
hbond:PRO:91    0
Name: 50, dtype: object

>  <hydroph_interaction:ALA:92>  (51) 
hydroph_interaction:ALA:92    0
hydroph_interaction:ALA:92    0
Name: 50, dtype: object

>  <hbond:ARG:93>  (51) 
hbond:ARG:93    0
hbond:ARG:93    0
Name: 50, dtype: object

>  <pication:ARG:93>  (51) 
pication:ARG:93    0
pication:ARG:93    0
Name: 50, dtype: object

>  <saltbridge:ARG:93>  (51) 
saltbridge:ARG:93    0
saltbridge:ARG:93    0
Name: 50, dtype: object

>  <hydroph_interaction:ARG:93>  (51) 
hydroph_interaction:ARG:93    0
hydroph_interaction:ARG:93    0
Name: 50, dtype: object

>  <halogenbond:ARG:93>  (51) 
halogenbond:ARG:93    0
halogenbond:ARG:93    0
Name: 50, dtype: object

>  <hydroph_interaction:TYR:94>  (51) 
hydroph_interaction:TYR:94    0
hydroph_interaction:TYR:94    0
Name: 50, dtype: object

>  <hbond:TYR:94>  (51) 
hbond:TYR:94    0
hbond:TYR:94    0
Name: 50, dtype: object

>  <halogenbond:GLN:95>  (51) 
halogenbond:GLN:95    0
halogenbond:GLN:95    0
Name: 50, dtype: object

>  <hbond:GLN:95>  (51) 
hbond:GLN:95    0
hbond:GLN:95    0
Name: 50, dtype: object

>  <hydroph_interaction:GLN:95>  (51) 
hydroph_interaction:GLN:95    0
hydroph_interaction:GLN:95    0
Name: 50, dtype: object

>  <hbond:SER:96>  (51) 
hbond:SER:96    0
hbond:SER:96    0
Name: 50, dtype: object

>  <hydroph_interaction:LEU:98>  (51) 
hydroph_interaction:LEU:98    0
hydroph_interaction:LEU:98    0
Name: 50, dtype: object

>  <hbond:LEU:98>  (51) 
hbond:LEU:98    0
hbond:LEU:98    0
Name: 50, dtype: object

>  <hbond:MET:99>  (51) 
hbond:MET:99    0
hbond:MET:99    0
Name: 50, dtype: object

>  <hydroph_interaction:MET:99>  (51) 
hydroph_interaction:MET:99    0
hydroph_interaction:MET:99    0
Name: 50, dtype: object

>  <halogenbond:MET:99>  (51) 
halogenbond:MET:99    0
halogenbond:MET:99    0
Name: 50, dtype: object

>  <hydroph_interaction:LEU:100>  (51) 
hydroph_interaction:LEU:100    0
hydroph_interaction:LEU:100    0
Name: 50, dtype: object

>  <hbond:LEU:100>  (51) 
hbond:LEU:100    0
hbond:LEU:100    0
Name: 50, dtype: object

>  <hbond:ALA:101>  (51) 
hbond:ALA:101    0
hbond:ALA:101    0
Name: 50, dtype: object

>  <hydroph_interaction:ALA:101>  (51) 
hydroph_interaction:ALA:101    0
hydroph_interaction:ALA:101    0
Name: 50, dtype: object

>  <hydroph_interaction:VAL:102>  (51) 
hydroph_interaction:VAL:102    0
hydroph_interaction:VAL:102    0
Name: 50, dtype: object

>  <hbond:VAL:102>  (51) 
hbond:VAL:102    0
hbond:VAL:102    0
Name: 50, dtype: object

>  <hbond:GLY:103>  (51) 
hbond:GLY:103    0
hbond:GLY:103    0
Name: 50, dtype: object

>  <halogenbond:GLY:103>  (51) 
halogenbond:GLY:103    0
halogenbond:GLY:103    0
Name: 50, dtype: object

>  <hydroph_interaction:HIS:104>  (51) 
hydroph_interaction:HIS:104    0
hydroph_interaction:HIS:104    0
Name: 50, dtype: object

>  <hbond:HIS:104>  (51) 
hbond:HIS:104    0
hbond:HIS:104    0
Name: 50, dtype: object

>  <saltbridge:HIS:104>  (51) 
saltbridge:HIS:104    0
saltbridge:HIS:104    0
Name: 50, dtype: object

>  <pication:HIS:104>  (51) 
pication:HIS:104    0
pication:HIS:104    0
Name: 50, dtype: object

>  <pistack:HIS:104>  (51) 
pistack:HIS:104    0
pistack:HIS:104    0
Name: 50, dtype: object

>  <halogenbond:HIS:104>  (51) 
halogenbond:HIS:104    0
halogenbond:HIS:104    0
Name: 50, dtype: object

>  <hbond:SER:105>  (51) 
hbond:SER:105    0
hbond:SER:105    0
Name: 50, dtype: object

>  <halogenbond:SER:105>  (51) 
halogenbond:SER:105    0
halogenbond:SER:105    0
Name: 50, dtype: object

>  <hbond:GLU:106>  (51) 
hbond:GLU:106    0
hbond:GLU:106    0
Name: 50, dtype: object

>  <hydroph_interaction:GLU:106>  (51) 
hydroph_interaction:GLU:106    0
hydroph_interaction:GLU:106    0
Name: 50, dtype: object

>  <saltbridge:GLU:106>  (51) 
saltbridge:GLU:106    0
saltbridge:GLU:106    0
Name: 50, dtype: object

>  <halogenbond:GLU:106>  (51) 
halogenbond:GLU:106    0
halogenbond:GLU:106    0
Name: 50, dtype: object

>  <hydroph_interaction:PRO:107>  (51) 
hydroph_interaction:PRO:107    0
hydroph_interaction:PRO:107    0
Name: 50, dtype: object

>  <hbond:PRO:107>  (51) 
hbond:PRO:107    0
hbond:PRO:107    0
Name: 50, dtype: object

>  <halogenbond:PRO:107>  (51) 
halogenbond:PRO:107    0
halogenbond:PRO:107    0
Name: 50, dtype: object

>  <hbond:GLY:108>  (51) 
hbond:GLY:108    0
hbond:GLY:108    0
Name: 50, dtype: object

>  <halogenbond:GLY:108>  (51) 
halogenbond:GLY:108    0
halogenbond:GLY:108    0
Name: 50, dtype: object

>  <hbond:ASP:109>  (51) 
hbond:ASP:109    0
hbond:ASP:109    0
Name: 50, dtype: object

>  <hydroph_interaction:ASP:109>  (51) 
hydroph_interaction:ASP:109    0
hydroph_interaction:ASP:109    0
Name: 50, dtype: object

>  <saltbridge:ASP:109>  (51) 
saltbridge:ASP:109    0
saltbridge:ASP:109    0
Name: 50, dtype: object

>  <hbond:CYS:110>  (51) 
hbond:CYS:110    0
hbond:CYS:110    0
Name: 50, dtype: object

>  <halogenbond:CYS:110>  (51) 
halogenbond:CYS:110    0
halogenbond:CYS:110    0
Name: 50, dtype: object

>  <hbond:GLY:111>  (51) 
hbond:GLY:111    0
hbond:GLY:111    0
Name: 50, dtype: object

>  <hbond:GLY:112>  (51) 
hbond:GLY:112    0
hbond:GLY:112    0
Name: 50, dtype: object

>  <hbond:ILE:113>  (51) 
hbond:ILE:113    0
hbond:ILE:113    0
Name: 50, dtype: object

>  <hydroph_interaction:LEU:114>  (51) 
hydroph_interaction:LEU:114    0
hydroph_interaction:LEU:114    0
Name: 50, dtype: object

>  <hbond:LEU:114>  (51) 
hbond:LEU:114    0
hbond:LEU:114    0
Name: 50, dtype: object

>  <hydroph_interaction:ILE:123>  (51) 
hydroph_interaction:ILE:123    0
hydroph_interaction:ILE:123    0
Name: 50, dtype: object

>  <hbond:ILE:123>  (51) 
hbond:ILE:123    0
hbond:ILE:123    0
Name: 50, dtype: object

>  <hydroph_interaction:VAL:124>  (51) 
hydroph_interaction:VAL:124    0
hydroph_interaction:VAL:124    0
Name: 50, dtype: object

>  <hbond:VAL:124>  (51) 
hbond:VAL:124    0
hbond:VAL:124    0
Name: 50, dtype: object

>  <halogenbond:VAL:124>  (51) 
halogenbond:VAL:124    0
halogenbond:VAL:124    0
Name: 50, dtype: object

>  <hbond:SER:125>  (51) 
hbond:SER:125    0
hbond:SER:125    0
Name: 50, dtype: object

>  <halogenbond:SER:125>  (51) 
halogenbond:SER:125    0
halogenbond:SER:125    0
Name: 50, dtype: object

>  <hydroph_interaction:THR:126>  (51) 
hydroph_interaction:THR:126    0
hydroph_interaction:THR:126    0
Name: 50, dtype: object

>  <hbond:THR:126>  (51) 
hbond:THR:126    0
hbond:THR:126    0
Name: 50, dtype: object

>  <halogenbond:THR:126>  (51) 
halogenbond:THR:126    0
halogenbond:THR:126    0
Name: 50, dtype: object

>  <hbond:GLY:127>  (51) 
hbond:GLY:127    0
hbond:GLY:127    0
Name: 50, dtype: object

>  <halogenbond:GLY:127>  (51) 
halogenbond:GLY:127    0
halogenbond:GLY:127    0
Name: 50, dtype: object

>  <hydroph_interaction:GLY:127>  (51) 
hydroph_interaction:GLY:127    0
hydroph_interaction:GLY:127    0
Name: 50, dtype: object

>  <hbond:GLY:128>  (51) 
hbond:GLY:128    0
hbond:GLY:128    0
Name: 50, dtype: object

>  <halogenbond:GLY:128>  (51) 
halogenbond:GLY:128    0
halogenbond:GLY:128    0
Name: 50, dtype: object

>  <hydroph_interaction:GLY:128>  (51) 
hydroph_interaction:GLY:128    0
hydroph_interaction:GLY:128    0
Name: 50, dtype: object

>  <hbond:ASN:129>  (51) 
hbond:ASN:129    0
hbond:ASN:129    0
Name: 50, dtype: object

>  <hydroph_interaction:ASN:129>  (51) 
hydroph_interaction:ASN:129    0
hydroph_interaction:ASN:129    0
Name: 50, dtype: object

>  <halogenbond:ASN:129>  (51) 
halogenbond:ASN:129    0
halogenbond:ASN:129    0
Name: 50, dtype: object

>  <hbond:GLY:130>  (51) 
hbond:GLY:130    0
hbond:GLY:130    0
Name: 50, dtype: object

>  <hydroph_interaction:LEU:131>  (51) 
hydroph_interaction:LEU:131    0
hydroph_interaction:LEU:131    0
Name: 50, dtype: object

>  <hbond:LEU:131>  (51) 
hbond:LEU:131    0
hbond:LEU:131    0
Name: 50, dtype: object

>  <halogenbond:LEU:131>  (51) 
halogenbond:LEU:131    0
halogenbond:LEU:131    0
Name: 50, dtype: object

>  <hydroph_interaction:VAL:132>  (51) 
hydroph_interaction:VAL:132    0
hydroph_interaction:VAL:132    0
Name: 50, dtype: object

>  <hbond:VAL:132>  (51) 
hbond:VAL:132    0
hbond:VAL:132    0
Name: 50, dtype: object

>  <hbond:GLY:133>  (51) 
hbond:GLY:133    0
hbond:GLY:133    0
Name: 50, dtype: object

>  <halogenbond:GLY:133>  (51) 
halogenbond:GLY:133    0
halogenbond:GLY:133    0
Name: 50, dtype: object

>  <hydroph_interaction:PHE:134>  (51) 
hydroph_interaction:PHE:134    0
hydroph_interaction:PHE:134    0
Name: 50, dtype: object

>  <hbond:PHE:134>  (51) 
hbond:PHE:134    0
hbond:PHE:134    0
Name: 50, dtype: object

>  <pistack:PHE:134>  (51) 
pistack:PHE:134    0
pistack:PHE:134    0
Name: 50, dtype: object

>  <pication:PHE:134>  (51) 
pication:PHE:134    0
pication:PHE:134    0
Name: 50, dtype: object

>  <hydroph_interaction:ALA:135>  (51) 
hydroph_interaction:ALA:135    0
hydroph_interaction:ALA:135    0
Name: 50, dtype: object

>  <hbond:ALA:135>  (51) 
hbond:ALA:135    0
hbond:ALA:135    0
Name: 50, dtype: object

$$$$
PV_006511642661
     RDKit          3D

 33 34  0  0  0  0  0  0  0  0999 V2000
    3.7300    8.9890   18.5090 N   0  0  0  0  0  0  0  0  0  0  0  0
    3.9490    9.9310   19.5360 C   0  0  0  0  0  0  0  0  0  0  0  0
    3.2860   11.1070   19.1370 C   0  0  0  0  0  0  0  0  0  0  0  0
    3.7070   11.5390   17.9190 C   0  0  0  0  0  0  0  0  0  0  0  0
    3.1550   12.6540   17.3710 C   0  0  0  0  0  0  0  0  0  0  0  0
    2.1700   13.3220   18.0910 C   0  0  0  0  0  0  0  0  0  0  0  0
    1.7440   12.8690   19.3460 C   0  0  0  0  0  0  0  0  0  0  0  0
    0.6480   13.6060   20.1410 C   0  0  0  0  0  0  0  0  0  0  0  0
   -0.2500   13.7280   18.8890 C   0  0  0  0  0  0  0  0  0  0  0  0
   -0.7530   15.0280   19.4970 C   0  0  0  0  0  0  0  0  0  0  0  0
   -2.1170   15.1590   20.1000 C   0  0  0  0  0  0  0  0  0  0  0  0
   -2.5510   16.4580   20.6950 C   0  0  0  0  0  0  0  0  0  0  0  0
   -1.6480   17.5200   20.6640 C   0  0  0  0  0  0  0  0  0  0  0  0
   -0.3690   17.3660   20.0860 C   0  0  0  0  0  0  0  0  0  0  0  0
    0.0630   16.1600   19.5180 C   0  0  0  0  0  0  0  0  0  0  0  0
    2.3190   11.7370   19.8790 C   0  0  0  0  0  0  0  0  0  0  0  0
    2.8340    9.1980   18.0700 H   0  0  0  0  0  0  0  0  0  0  0  0
    3.6130    8.0720   18.9230 H   0  0  0  0  0  0  0  0  0  0  0  0
    5.0000   10.1280   19.6360 H   0  0  0  0  0  0  0  0  0  0  0  0
    3.5430    9.6160   20.4850 H   0  0  0  0  0  0  0  0  0  0  0  0
    4.4690   11.0640   17.2990 H   0  0  0  0  0  0  0  0  0  0  0  0
    3.4990   12.9750   16.3980 H   0  0  0  0  0  0  0  0  0  0  0  0
    1.7030   14.2080   17.6950 H   0  0  0  0  0  0  0  0  0  0  0  0
    0.9420   14.5330   20.6430 H   0  0  0  0  0  0  0  0  0  0  0  0
    0.2150   12.9420   20.9010 H   0  0  0  0  0  0  0  0  0  0  0  0
    0.2050   13.7620   17.8950 H   0  0  0  0  0  0  0  0  0  0  0  0
   -1.0450   12.9710   18.8900 H   0  0  0  0  0  0  0  0  0  0  0  0
   -2.7300   14.2560   20.0630 H   0  0  0  0  0  0  0  0  0  0  0  0
   -3.5380   16.5710   21.1400 H   0  0  0  0  0  0  0  0  0  0  0  0
   -1.9330   18.4800   21.0910 H   0  0  0  0  0  0  0  0  0  0  0  0
    0.3080   18.2070   20.0810 H   0  0  0  0  0  0  0  0  0  0  0  0
    1.0570   16.1100   19.0890 H   0  0  0  0  0  0  0  0  0  0  0  0
    2.0150   11.3490   20.8540 H   0  0  0  0  0  0  0  0  0  0  0  0
  1  2  1  0
  2  3  1  0
  3  4  2  0
  4  5  1  0
  5  6  2  0
  6  7  1  0
  7  8  1  0
  8  9  1  0
  9 10  1  0
 10 11  2  0
 11 12  1  0
 12 13  2  0
 13 14  1  0
 14 15  2  0
  7 16  2  0
 16  3  1  0
 15 10  1  0
  1 17  1  0
  1 18  1  0
  2 19  1  0
  2 20  1  0
  4 21  1  0
  5 22  1  0
  6 23  1  0
  8 24  1  0
  8 25  1  0
  9 26  1  0
  9 27  1  0
 11 28  1  0
 12 29  1  0
 13 30  1  0
 14 31  1  0
 15 32  1  0
 16 33  1  0
A    1
 N1 
A    2
 C1 
A    3
 C2 
A    4
 C3 
A    5
 C4 
A    6
 C5 
A    7
 C6 
A    8
 C7 
A    9
 C8 
A   10
 C9 
A   11
 C10
A   12
 C11
A   13
 C12
A   14
 C13
A   15
 C14
A   16
 C15
A   17
 H1 
A   18
 H2 
A   19
 H3 
A   20
 H4 
A   21
 H5 
A   22
 H6 
A   23
 H7 
A   24
 H8 
A   25
 H9 
A   26
 H10
A   27
 H11
A   28
 H12
A   29
 H13
A   30
 H14
A   31
 H15
A   32
 H16
A   33
 H17
M  END
>  <ref_pdb>  (52) 
x0310_0A

>  <ref_mols>  (52) 
x0473_0A,x0911_0A

>  <original SMILES>  (52) 
NCc1cccc(CCc2ccccc2)c1

>  <rationale>  (52) 
info hbond:V132; hydroph_interaction:V84+E85+I82+L100+L131+F83; 

>  <intxn_cluster>  (52) 
204

>  <intxn_cluster_rank>  (52) 
13

>  <N_interactions>  (52) 
7

>  <∆∆G>  (52) 
-6.645165

>  <$/mg>  (52) 
nan

>  <comRMSD>  (52) 
0.818038

>  <N_rotatable_bonds>  (52) 
5

>  <N_analogues_07>  (52) 
0

>  <deep_P1_sidechain>  (52) 
False

>  <farthest_distance_to_substrate>  (52) 
4.969556

>  <hbond:SER:7>  (52) 
hbond:SER:7    0
hbond:SER:7    0
Name: 51, dtype: object

>  <halogenbond:SER:7>  (52) 
halogenbond:SER:7    0
halogenbond:SER:7    0
Name: 51, dtype: object

>  <hbond:GLY:8>  (52) 
hbond:GLY:8    0
hbond:GLY:8    0
Name: 51, dtype: object

>  <hydroph_interaction:ASN:19>  (52) 
hydroph_interaction:ASN:19    0
hydroph_interaction:ASN:19    0
Name: 51, dtype: object

>  <hbond:ASN:19>  (52) 
hbond:ASN:19    0
hbond:ASN:19    0
Name: 51, dtype: object

>  <halogenbond:ASN:19>  (52) 
halogenbond:ASN:19    0
halogenbond:ASN:19    0
Name: 51, dtype: object

>  <hbond:ARG:20>  (52) 
hbond:ARG:20    0
hbond:ARG:20    0
Name: 51, dtype: object

>  <hydroph_interaction:ARG:20>  (52) 
hydroph_interaction:ARG:20    0
hydroph_interaction:ARG:20    0
Name: 51, dtype: object

>  <saltbridge:ARG:20>  (52) 
saltbridge:ARG:20    0
saltbridge:ARG:20    0
Name: 51, dtype: object

>  <halogenbond:ARG:20>  (52) 
halogenbond:ARG:20    0
halogenbond:ARG:20    0
Name: 51, dtype: object

>  <pication:ARG:20>  (52) 
pication:ARG:20    0
pication:ARG:20    0
Name: 51, dtype: object

>  <hbond:HIS:21>  (52) 
hbond:HIS:21    0
hbond:HIS:21    0
Name: 51, dtype: object

>  <hydroph_interaction:HIS:21>  (52) 
hydroph_interaction:HIS:21    0
hydroph_interaction:HIS:21    0
Name: 51, dtype: object

>  <saltbridge:HIS:21>  (52) 
saltbridge:HIS:21    0
saltbridge:HIS:21    0
Name: 51, dtype: object

>  <pistack:HIS:21>  (52) 
pistack:HIS:21    0
pistack:HIS:21    0
Name: 51, dtype: object

>  <pication:HIS:21>  (52) 
pication:HIS:21    0
pication:HIS:21    0
Name: 51, dtype: object

>  <halogenbond:HIS:21>  (52) 
halogenbond:HIS:21    0
halogenbond:HIS:21    0
Name: 51, dtype: object

>  <hydroph_interaction:LEU:22>  (52) 
hydroph_interaction:LEU:22    0
hydroph_interaction:LEU:22    0
Name: 51, dtype: object

>  <hbond:LEU:22>  (52) 
hbond:LEU:22    0
hbond:LEU:22    0
Name: 51, dtype: object

>  <hydroph_interaction:TRP:28>  (52) 
hydroph_interaction:TRP:28    0
hydroph_interaction:TRP:28    0
Name: 51, dtype: object

>  <hbond:SER:36>  (52) 
hbond:SER:36    0
hbond:SER:36    0
Name: 51, dtype: object

>  <halogenbond:SER:36>  (52) 
halogenbond:SER:36    0
halogenbond:SER:36    0
Name: 51, dtype: object

>  <hbond:ARG:38>  (52) 
hbond:ARG:38    0
hbond:ARG:38    0
Name: 51, dtype: object

>  <halogenbond:ARG:38>  (52) 
halogenbond:ARG:38    0
halogenbond:ARG:38    0
Name: 51, dtype: object

>  <hbond:ASP:39>  (52) 
hbond:ASP:39    0
hbond:ASP:39    0
Name: 51, dtype: object

>  <saltbridge:ASP:39>  (52) 
saltbridge:ASP:39    0
saltbridge:ASP:39    0
Name: 51, dtype: object

>  <hydroph_interaction:ASP:39>  (52) 
hydroph_interaction:ASP:39    0
hydroph_interaction:ASP:39    0
Name: 51, dtype: object

>  <halogenbond:ASP:39>  (52) 
halogenbond:ASP:39    0
halogenbond:ASP:39    0
Name: 51, dtype: object

>  <hydroph_interaction:LEU:40>  (52) 
hydroph_interaction:LEU:40    0
hydroph_interaction:LEU:40    0
Name: 51, dtype: object

>  <hydroph_interaction:TYR:63>  (52) 
hydroph_interaction:TYR:63    0
hydroph_interaction:TYR:63    0
Name: 51, dtype: object

>  <pistack:TYR:63>  (52) 
pistack:TYR:63    0
pistack:TYR:63    0
Name: 51, dtype: object

>  <hbond:TYR:63>  (52) 
hbond:TYR:63    0
hbond:TYR:63    0
Name: 51, dtype: object

>  <hbond:TYR:64>  (52) 
hbond:TYR:64    0
hbond:TYR:64    0
Name: 51, dtype: object

>  <halogenbond:TYR:64>  (52) 
halogenbond:TYR:64    0
halogenbond:TYR:64    0
Name: 51, dtype: object

>  <hydroph_interaction:TYR:64>  (52) 
hydroph_interaction:TYR:64    0
hydroph_interaction:TYR:64    0
Name: 51, dtype: object

>  <hbond:CYS:65>  (52) 
hbond:CYS:65    0
hbond:CYS:65    0
Name: 51, dtype: object

>  <halogenbond:CYS:65>  (52) 
halogenbond:CYS:65    0
halogenbond:CYS:65    0
Name: 51, dtype: object

>  <hbond:SER:66>  (52) 
hbond:SER:66    0
hbond:SER:66    0
Name: 51, dtype: object

>  <hbond:SER:67>  (52) 
hbond:SER:67    0
hbond:SER:67    0
Name: 51, dtype: object

>  <halogenbond:SER:67>  (52) 
halogenbond:SER:67    0
halogenbond:SER:67    0
Name: 51, dtype: object

>  <hydroph_interaction:ARG:68>  (52) 
hydroph_interaction:ARG:68    0
hydroph_interaction:ARG:68    0
Name: 51, dtype: object

>  <hbond:ARG:68>  (52) 
hbond:ARG:68    0
hbond:ARG:68    0
Name: 51, dtype: object

>  <saltbridge:ARG:68>  (52) 
saltbridge:ARG:68    0
saltbridge:ARG:68    0
Name: 51, dtype: object

>  <pication:ARG:68>  (52) 
pication:ARG:68    0
pication:ARG:68    0
Name: 51, dtype: object

>  <hydroph_interaction:TYR:72>  (52) 
hydroph_interaction:TYR:72    0
hydroph_interaction:TYR:72    0
Name: 51, dtype: object

>  <hydroph_interaction:VAL:74>  (52) 
hydroph_interaction:VAL:74    0
hydroph_interaction:VAL:74    0
Name: 51, dtype: object

>  <hydroph_interaction:PHE:76>  (52) 
hydroph_interaction:PHE:76    0
hydroph_interaction:PHE:76    0
Name: 51, dtype: object

>  <hbond:SER:77>  (52) 
hbond:SER:77    0
hbond:SER:77    0
Name: 51, dtype: object

>  <hbond:SER:80>  (52) 
hbond:SER:80    0
hbond:SER:80    0
Name: 51, dtype: object

>  <hbond:LEU:81>  (52) 
hbond:LEU:81    0
hbond:LEU:81    0
Name: 51, dtype: object

>  <halogenbond:LEU:81>  (52) 
halogenbond:LEU:81    0
halogenbond:LEU:81    0
Name: 51, dtype: object

>  <hydroph_interaction:LEU:81>  (52) 
hydroph_interaction:LEU:81    0
hydroph_interaction:LEU:81    0
Name: 51, dtype: object

>  <hydroph_interaction:ILE:82>  (52) 
hydroph_interaction:ILE:82    1
hydroph_interaction:ILE:82    1
Name: 51, dtype: object

>  <hbond:ILE:82>  (52) 
hbond:ILE:82    0
hbond:ILE:82    0
Name: 51, dtype: object

>  <hydroph_interaction:PHE:83>  (52) 
hydroph_interaction:PHE:83    1
hydroph_interaction:PHE:83    1
Name: 51, dtype: object

>  <hbond:PHE:83>  (52) 
hbond:PHE:83    0
hbond:PHE:83    0
Name: 51, dtype: object

>  <halogenbond:PHE:83>  (52) 
halogenbond:PHE:83    0
halogenbond:PHE:83    0
Name: 51, dtype: object

>  <pistack:PHE:83>  (52) 
pistack:PHE:83    0
pistack:PHE:83    0
Name: 51, dtype: object

>  <hydroph_interaction:VAL:84>  (52) 
hydroph_interaction:VAL:84    1
hydroph_interaction:VAL:84    1
Name: 51, dtype: object

>  <hbond:VAL:84>  (52) 
hbond:VAL:84    0
hbond:VAL:84    0
Name: 51, dtype: object

>  <halogenbond:VAL:84>  (52) 
halogenbond:VAL:84    0
halogenbond:VAL:84    0
Name: 51, dtype: object

>  <hydroph_interaction:GLU:85>  (52) 
hydroph_interaction:GLU:85    1
hydroph_interaction:GLU:85    1
Name: 51, dtype: object

>  <hbond:GLU:85>  (52) 
hbond:GLU:85    0
hbond:GLU:85    0
Name: 51, dtype: object

>  <saltbridge:GLU:85>  (52) 
saltbridge:GLU:85    0
saltbridge:GLU:85    0
Name: 51, dtype: object

>  <halogenbond:GLU:85>  (52) 
halogenbond:GLU:85    0
halogenbond:GLU:85    0
Name: 51, dtype: object

>  <hbond:ALA:86>  (52) 
hbond:ALA:86    0
hbond:ALA:86    0
Name: 51, dtype: object

>  <halogenbond:ALA:86>  (52) 
halogenbond:ALA:86    0
halogenbond:ALA:86    0
Name: 51, dtype: object

>  <hydroph_interaction:ALA:86>  (52) 
hydroph_interaction:ALA:86    0
hydroph_interaction:ALA:86    0
Name: 51, dtype: object

>  <hbond:SER:87>  (52) 
hbond:SER:87    0
hbond:SER:87    0
Name: 51, dtype: object

>  <halogenbond:SER:87>  (52) 
halogenbond:SER:87    0
halogenbond:SER:87    0
Name: 51, dtype: object

>  <hbond:GLU:88>  (52) 
hbond:GLU:88    0
hbond:GLU:88    0
Name: 51, dtype: object

>  <hydroph_interaction:GLU:88>  (52) 
hydroph_interaction:GLU:88    0
hydroph_interaction:GLU:88    0
Name: 51, dtype: object

>  <halogenbond:GLU:88>  (52) 
halogenbond:GLU:88    0
halogenbond:GLU:88    0
Name: 51, dtype: object

>  <saltbridge:GLU:88>  (52) 
saltbridge:GLU:88    0
saltbridge:GLU:88    0
Name: 51, dtype: object

>  <hydroph_interaction:TYR:89>  (52) 
hydroph_interaction:TYR:89    0
hydroph_interaction:TYR:89    0
Name: 51, dtype: object

>  <pistack:TYR:89>  (52) 
pistack:TYR:89    0
pistack:TYR:89    0
Name: 51, dtype: object

>  <hbond:TYR:89>  (52) 
hbond:TYR:89    0
hbond:TYR:89    0
Name: 51, dtype: object

>  <halogenbond:TYR:89>  (52) 
halogenbond:TYR:89    0
halogenbond:TYR:89    0
Name: 51, dtype: object

>  <hbond:TYR:90>  (52) 
hbond:TYR:90    0
hbond:TYR:90    0
Name: 51, dtype: object

>  <hydroph_interaction:TYR:90>  (52) 
hydroph_interaction:TYR:90    0
hydroph_interaction:TYR:90    0
Name: 51, dtype: object

>  <pistack:TYR:90>  (52) 
pistack:TYR:90    0
pistack:TYR:90    0
Name: 51, dtype: object

>  <halogenbond:TYR:90>  (52) 
halogenbond:TYR:90    0
halogenbond:TYR:90    0
Name: 51, dtype: object

>  <pication:TYR:90>  (52) 
pication:TYR:90    0
pication:TYR:90    0
Name: 51, dtype: object

>  <hydroph_interaction:PRO:91>  (52) 
hydroph_interaction:PRO:91    0
hydroph_interaction:PRO:91    0
Name: 51, dtype: object

>  <halogenbond:PRO:91>  (52) 
halogenbond:PRO:91    0
halogenbond:PRO:91    0
Name: 51, dtype: object

>  <hbond:PRO:91>  (52) 
hbond:PRO:91    0
hbond:PRO:91    0
Name: 51, dtype: object

>  <hydroph_interaction:ALA:92>  (52) 
hydroph_interaction:ALA:92    0
hydroph_interaction:ALA:92    0
Name: 51, dtype: object

>  <hbond:ARG:93>  (52) 
hbond:ARG:93    0
hbond:ARG:93    0
Name: 51, dtype: object

>  <pication:ARG:93>  (52) 
pication:ARG:93    0
pication:ARG:93    0
Name: 51, dtype: object

>  <saltbridge:ARG:93>  (52) 
saltbridge:ARG:93    0
saltbridge:ARG:93    0
Name: 51, dtype: object

>  <hydroph_interaction:ARG:93>  (52) 
hydroph_interaction:ARG:93    0
hydroph_interaction:ARG:93    0
Name: 51, dtype: object

>  <halogenbond:ARG:93>  (52) 
halogenbond:ARG:93    0
halogenbond:ARG:93    0
Name: 51, dtype: object

>  <hydroph_interaction:TYR:94>  (52) 
hydroph_interaction:TYR:94    0
hydroph_interaction:TYR:94    0
Name: 51, dtype: object

>  <hbond:TYR:94>  (52) 
hbond:TYR:94    0
hbond:TYR:94    0
Name: 51, dtype: object

>  <halogenbond:GLN:95>  (52) 
halogenbond:GLN:95    0
halogenbond:GLN:95    0
Name: 51, dtype: object

>  <hbond:GLN:95>  (52) 
hbond:GLN:95    0
hbond:GLN:95    0
Name: 51, dtype: object

>  <hydroph_interaction:GLN:95>  (52) 
hydroph_interaction:GLN:95    0
hydroph_interaction:GLN:95    0
Name: 51, dtype: object

>  <hbond:SER:96>  (52) 
hbond:SER:96    0
hbond:SER:96    0
Name: 51, dtype: object

>  <hydroph_interaction:LEU:98>  (52) 
hydroph_interaction:LEU:98    0
hydroph_interaction:LEU:98    0
Name: 51, dtype: object

>  <hbond:LEU:98>  (52) 
hbond:LEU:98    0
hbond:LEU:98    0
Name: 51, dtype: object

>  <hbond:MET:99>  (52) 
hbond:MET:99    0
hbond:MET:99    0
Name: 51, dtype: object

>  <hydroph_interaction:MET:99>  (52) 
hydroph_interaction:MET:99    0
hydroph_interaction:MET:99    0
Name: 51, dtype: object

>  <halogenbond:MET:99>  (52) 
halogenbond:MET:99    0
halogenbond:MET:99    0
Name: 51, dtype: object

>  <hydroph_interaction:LEU:100>  (52) 
hydroph_interaction:LEU:100    1
hydroph_interaction:LEU:100    1
Name: 51, dtype: object

>  <hbond:LEU:100>  (52) 
hbond:LEU:100    0
hbond:LEU:100    0
Name: 51, dtype: object

>  <hbond:ALA:101>  (52) 
hbond:ALA:101    0
hbond:ALA:101    0
Name: 51, dtype: object

>  <hydroph_interaction:ALA:101>  (52) 
hydroph_interaction:ALA:101    0
hydroph_interaction:ALA:101    0
Name: 51, dtype: object

>  <hydroph_interaction:VAL:102>  (52) 
hydroph_interaction:VAL:102    0
hydroph_interaction:VAL:102    0
Name: 51, dtype: object

>  <hbond:VAL:102>  (52) 
hbond:VAL:102    0
hbond:VAL:102    0
Name: 51, dtype: object

>  <hbond:GLY:103>  (52) 
hbond:GLY:103    0
hbond:GLY:103    0
Name: 51, dtype: object

>  <halogenbond:GLY:103>  (52) 
halogenbond:GLY:103    0
halogenbond:GLY:103    0
Name: 51, dtype: object

>  <hydroph_interaction:HIS:104>  (52) 
hydroph_interaction:HIS:104    0
hydroph_interaction:HIS:104    0
Name: 51, dtype: object

>  <hbond:HIS:104>  (52) 
hbond:HIS:104    0
hbond:HIS:104    0
Name: 51, dtype: object

>  <saltbridge:HIS:104>  (52) 
saltbridge:HIS:104    0
saltbridge:HIS:104    0
Name: 51, dtype: object

>  <pication:HIS:104>  (52) 
pication:HIS:104    0
pication:HIS:104    0
Name: 51, dtype: object

>  <pistack:HIS:104>  (52) 
pistack:HIS:104    0
pistack:HIS:104    0
Name: 51, dtype: object

>  <halogenbond:HIS:104>  (52) 
halogenbond:HIS:104    0
halogenbond:HIS:104    0
Name: 51, dtype: object

>  <hbond:SER:105>  (52) 
hbond:SER:105    0
hbond:SER:105    0
Name: 51, dtype: object

>  <halogenbond:SER:105>  (52) 
halogenbond:SER:105    0
halogenbond:SER:105    0
Name: 51, dtype: object

>  <hbond:GLU:106>  (52) 
hbond:GLU:106    0
hbond:GLU:106    0
Name: 51, dtype: object

>  <hydroph_interaction:GLU:106>  (52) 
hydroph_interaction:GLU:106    0
hydroph_interaction:GLU:106    0
Name: 51, dtype: object

>  <saltbridge:GLU:106>  (52) 
saltbridge:GLU:106    0
saltbridge:GLU:106    0
Name: 51, dtype: object

>  <halogenbond:GLU:106>  (52) 
halogenbond:GLU:106    0
halogenbond:GLU:106    0
Name: 51, dtype: object

>  <hydroph_interaction:PRO:107>  (52) 
hydroph_interaction:PRO:107    0
hydroph_interaction:PRO:107    0
Name: 51, dtype: object

>  <hbond:PRO:107>  (52) 
hbond:PRO:107    0
hbond:PRO:107    0
Name: 51, dtype: object

>  <halogenbond:PRO:107>  (52) 
halogenbond:PRO:107    0
halogenbond:PRO:107    0
Name: 51, dtype: object

>  <hbond:GLY:108>  (52) 
hbond:GLY:108    0
hbond:GLY:108    0
Name: 51, dtype: object

>  <halogenbond:GLY:108>  (52) 
halogenbond:GLY:108    0
halogenbond:GLY:108    0
Name: 51, dtype: object

>  <hbond:ASP:109>  (52) 
hbond:ASP:109    0
hbond:ASP:109    0
Name: 51, dtype: object

>  <hydroph_interaction:ASP:109>  (52) 
hydroph_interaction:ASP:109    0
hydroph_interaction:ASP:109    0
Name: 51, dtype: object

>  <saltbridge:ASP:109>  (52) 
saltbridge:ASP:109    0
saltbridge:ASP:109    0
Name: 51, dtype: object

>  <hbond:CYS:110>  (52) 
hbond:CYS:110    0
hbond:CYS:110    0
Name: 51, dtype: object

>  <halogenbond:CYS:110>  (52) 
halogenbond:CYS:110    0
halogenbond:CYS:110    0
Name: 51, dtype: object

>  <hbond:GLY:111>  (52) 
hbond:GLY:111    0
hbond:GLY:111    0
Name: 51, dtype: object

>  <hbond:GLY:112>  (52) 
hbond:GLY:112    0
hbond:GLY:112    0
Name: 51, dtype: object

>  <hbond:ILE:113>  (52) 
hbond:ILE:113    0
hbond:ILE:113    0
Name: 51, dtype: object

>  <hydroph_interaction:LEU:114>  (52) 
hydroph_interaction:LEU:114    0
hydroph_interaction:LEU:114    0
Name: 51, dtype: object

>  <hbond:LEU:114>  (52) 
hbond:LEU:114    0
hbond:LEU:114    0
Name: 51, dtype: object

>  <hydroph_interaction:ILE:123>  (52) 
hydroph_interaction:ILE:123    0
hydroph_interaction:ILE:123    0
Name: 51, dtype: object

>  <hbond:ILE:123>  (52) 
hbond:ILE:123    0
hbond:ILE:123    0
Name: 51, dtype: object

>  <hydroph_interaction:VAL:124>  (52) 
hydroph_interaction:VAL:124    0
hydroph_interaction:VAL:124    0
Name: 51, dtype: object

>  <hbond:VAL:124>  (52) 
hbond:VAL:124    0
hbond:VAL:124    0
Name: 51, dtype: object

>  <halogenbond:VAL:124>  (52) 
halogenbond:VAL:124    0
halogenbond:VAL:124    0
Name: 51, dtype: object

>  <hbond:SER:125>  (52) 
hbond:SER:125    0
hbond:SER:125    0
Name: 51, dtype: object

>  <halogenbond:SER:125>  (52) 
halogenbond:SER:125    0
halogenbond:SER:125    0
Name: 51, dtype: object

>  <hydroph_interaction:THR:126>  (52) 
hydroph_interaction:THR:126    0
hydroph_interaction:THR:126    0
Name: 51, dtype: object

>  <hbond:THR:126>  (52) 
hbond:THR:126    0
hbond:THR:126    0
Name: 51, dtype: object

>  <halogenbond:THR:126>  (52) 
halogenbond:THR:126    0
halogenbond:THR:126    0
Name: 51, dtype: object

>  <hbond:GLY:127>  (52) 
hbond:GLY:127    0
hbond:GLY:127    0
Name: 51, dtype: object

>  <halogenbond:GLY:127>  (52) 
halogenbond:GLY:127    0
halogenbond:GLY:127    0
Name: 51, dtype: object

>  <hydroph_interaction:GLY:127>  (52) 
hydroph_interaction:GLY:127    0
hydroph_interaction:GLY:127    0
Name: 51, dtype: object

>  <hbond:GLY:128>  (52) 
hbond:GLY:128    0
hbond:GLY:128    0
Name: 51, dtype: object

>  <halogenbond:GLY:128>  (52) 
halogenbond:GLY:128    0
halogenbond:GLY:128    0
Name: 51, dtype: object

>  <hydroph_interaction:GLY:128>  (52) 
hydroph_interaction:GLY:128    0
hydroph_interaction:GLY:128    0
Name: 51, dtype: object

>  <hbond:ASN:129>  (52) 
hbond:ASN:129    0
hbond:ASN:129    0
Name: 51, dtype: object

>  <hydroph_interaction:ASN:129>  (52) 
hydroph_interaction:ASN:129    0
hydroph_interaction:ASN:129    0
Name: 51, dtype: object

>  <halogenbond:ASN:129>  (52) 
halogenbond:ASN:129    0
halogenbond:ASN:129    0
Name: 51, dtype: object

>  <hbond:GLY:130>  (52) 
hbond:GLY:130    0
hbond:GLY:130    0
Name: 51, dtype: object

>  <hydroph_interaction:LEU:131>  (52) 
hydroph_interaction:LEU:131    1
hydroph_interaction:LEU:131    1
Name: 51, dtype: object

>  <hbond:LEU:131>  (52) 
hbond:LEU:131    0
hbond:LEU:131    0
Name: 51, dtype: object

>  <halogenbond:LEU:131>  (52) 
halogenbond:LEU:131    0
halogenbond:LEU:131    0
Name: 51, dtype: object

>  <hydroph_interaction:VAL:132>  (52) 
hydroph_interaction:VAL:132    0
hydroph_interaction:VAL:132    0
Name: 51, dtype: object

>  <hbond:VAL:132>  (52) 
hbond:VAL:132    1
hbond:VAL:132    1
Name: 51, dtype: object

>  <hbond:GLY:133>  (52) 
hbond:GLY:133    0
hbond:GLY:133    0
Name: 51, dtype: object

>  <halogenbond:GLY:133>  (52) 
halogenbond:GLY:133    0
halogenbond:GLY:133    0
Name: 51, dtype: object

>  <hydroph_interaction:PHE:134>  (52) 
hydroph_interaction:PHE:134    0
hydroph_interaction:PHE:134    0
Name: 51, dtype: object

>  <hbond:PHE:134>  (52) 
hbond:PHE:134    0
hbond:PHE:134    0
Name: 51, dtype: object

>  <pistack:PHE:134>  (52) 
pistack:PHE:134    0
pistack:PHE:134    0
Name: 51, dtype: object

>  <pication:PHE:134>  (52) 
pication:PHE:134    0
pication:PHE:134    0
Name: 51, dtype: object

>  <hydroph_interaction:ALA:135>  (52) 
hydroph_interaction:ALA:135    0
hydroph_interaction:ALA:135    0
Name: 51, dtype: object

>  <hbond:ALA:135>  (52) 
hbond:ALA:135    0
hbond:ALA:135    0
Name: 51, dtype: object

$$$$
Z159567140
     RDKit          3D

 23 23  0  0  0  0  0  0  0  0999 V2000
    0.4270   13.7110   23.0020 C   0  0  0  0  0  0  0  0  0  0  0  0
   -0.1110   13.2380   21.7370 N   0  0  0  0  0  0  0  0  0  0  0  0
    0.9480   12.7490   20.8710 C   0  0  0  0  0  0  0  0  0  0  0  0
    2.1970   13.5270   21.0930 C   0  0  0  0  0  0  0  0  0  0  0  0
    0.5710   12.8670   19.4040 C   0  0  0  0  0  0  0  0  0  0  0  0
   -0.6500   13.6420   18.9350 C   0  0  0  0  0  0  0  0  0  0  0  0
   -0.9840   13.7370   17.5930 C   0  0  0  0  0  0  0  0  0  0  0  0
   -0.0930   13.0400   16.6050 C   0  0  0  0  0  0  0  0  0  0  0  0
    1.0240   12.3400   17.0660 C   0  0  0  0  0  0  0  0  0  0  0  0
    1.3510   12.2560   18.4170 C   0  0  0  0  0  0  0  0  0  0  0  0
    2.9240   11.2640   18.8230 Br  0  0  0  0  0  0  0  0  0  0  0  0
    0.7800   12.8840   23.6190 H   0  0  0  0  0  0  0  0  0  0  0  0
   -0.3190   14.2840   23.5640 H   0  0  0  0  0  0  0  0  0  0  0  0
    1.2830   14.3640   22.8200 H   0  0  0  0  0  0  0  0  0  0  0  0
   -0.7800   12.4910   21.9080 H   0  0  0  0  0  0  0  0  0  0  0  0
    1.1430   11.6890   21.0800 H   0  0  0  0  0  0  0  0  0  0  0  0
    2.5580   13.4210   22.1230 H   0  0  0  0  0  0  0  0  0  0  0  0
    3.0070   13.1880   20.4370 H   0  0  0  0  0  0  0  0  0  0  0  0
    2.0460   14.5940   20.9080 H   0  0  0  0  0  0  0  0  0  0  0  0
   -1.2400   14.1130   19.7250 H   0  0  0  0  0  0  0  0  0  0  0  0
   -1.8560   14.2930   17.2720 H   0  0  0  0  0  0  0  0  0  0  0  0
   -0.3150   13.0830   15.5440 H   0  0  0  0  0  0  0  0  0  0  0  0
    1.6600   11.8480   16.3530 H   0  0  0  0  0  0  0  0  0  0  0  0
  1  2  1  0
  2  3  1  0
  3  4  1  0
  3  5  1  0
  5  6  2  0
  6  7  1  0
  7  8  2  0
  8  9  1  0
  9 10  2  0
 10 11  1  0
 10  5  1  0
  1 12  1  0
  1 13  1  0
  1 14  1  0
  2 15  1  0
  3 16  1  0
  4 17  1  0
  4 18  1  0
  4 19  1  0
  6 20  1  0
  7 21  1  0
  8 22  1  0
  9 23  1  0
A    1
 C1 
A    2
 N1 
A    3
 C2 
A    4
 C3 
A    5
 C4 
A    6
 C5 
A    7
 C6 
A    8
 C7 
A    9
 C8 
A   10
 C9 
A   11
BR1 
A   12
 H1 
A   13
 H2 
A   14
 H3 
A   15
 H4 
A   16
 H5 
A   17
 H6 
A   18
 H7 
A   19
 H8 
A   20
 H9 
A   21
 H10
A   22
 H11
A   23
 H12
M  END
>  <ref_pdb>  (53) 
x0310_0A

>  <ref_mols>  (53) 
x0451_0A,x0853_0A

>  <original SMILES>  (53) 
CNC(C)c1ccccc1Br

>  <rationale>  (53) 
info halogenbond:T126; hbond:G128; hydroph_interaction:I82+L100; 

>  <intxn_cluster>  (53) 
204

>  <intxn_cluster_rank>  (53) 
14

>  <N_interactions>  (53) 
4

>  <∆∆G>  (53) 
-5.820921

>  <$/mg>  (53) 
nan

>  <comRMSD>  (53) 
0.572166

>  <N_rotatable_bonds>  (53) 
4

>  <N_analogues_07>  (53) 
0

>  <deep_P1_sidechain>  (53) 
False

>  <farthest_distance_to_substrate>  (53) 
4.963063

>  <hbond:SER:7>  (53) 
hbond:SER:7    0
hbond:SER:7    0
Name: 52, dtype: object

>  <halogenbond:SER:7>  (53) 
halogenbond:SER:7    0
halogenbond:SER:7    0
Name: 52, dtype: object

>  <hbond:GLY:8>  (53) 
hbond:GLY:8    0
hbond:GLY:8    0
Name: 52, dtype: object

>  <hydroph_interaction:ASN:19>  (53) 
hydroph_interaction:ASN:19    0
hydroph_interaction:ASN:19    0
Name: 52, dtype: object

>  <hbond:ASN:19>  (53) 
hbond:ASN:19    0
hbond:ASN:19    0
Name: 52, dtype: object

>  <halogenbond:ASN:19>  (53) 
halogenbond:ASN:19    0
halogenbond:ASN:19    0
Name: 52, dtype: object

>  <hbond:ARG:20>  (53) 
hbond:ARG:20    0
hbond:ARG:20    0
Name: 52, dtype: object

>  <hydroph_interaction:ARG:20>  (53) 
hydroph_interaction:ARG:20    0
hydroph_interaction:ARG:20    0
Name: 52, dtype: object

>  <saltbridge:ARG:20>  (53) 
saltbridge:ARG:20    0
saltbridge:ARG:20    0
Name: 52, dtype: object

>  <halogenbond:ARG:20>  (53) 
halogenbond:ARG:20    0
halogenbond:ARG:20    0
Name: 52, dtype: object

>  <pication:ARG:20>  (53) 
pication:ARG:20    0
pication:ARG:20    0
Name: 52, dtype: object

>  <hbond:HIS:21>  (53) 
hbond:HIS:21    0
hbond:HIS:21    0
Name: 52, dtype: object

>  <hydroph_interaction:HIS:21>  (53) 
hydroph_interaction:HIS:21    0
hydroph_interaction:HIS:21    0
Name: 52, dtype: object

>  <saltbridge:HIS:21>  (53) 
saltbridge:HIS:21    0
saltbridge:HIS:21    0
Name: 52, dtype: object

>  <pistack:HIS:21>  (53) 
pistack:HIS:21    0
pistack:HIS:21    0
Name: 52, dtype: object

>  <pication:HIS:21>  (53) 
pication:HIS:21    0
pication:HIS:21    0
Name: 52, dtype: object

>  <halogenbond:HIS:21>  (53) 
halogenbond:HIS:21    0
halogenbond:HIS:21    0
Name: 52, dtype: object

>  <hydroph_interaction:LEU:22>  (53) 
hydroph_interaction:LEU:22    0
hydroph_interaction:LEU:22    0
Name: 52, dtype: object

>  <hbond:LEU:22>  (53) 
hbond:LEU:22    0
hbond:LEU:22    0
Name: 52, dtype: object

>  <hydroph_interaction:TRP:28>  (53) 
hydroph_interaction:TRP:28    0
hydroph_interaction:TRP:28    0
Name: 52, dtype: object

>  <hbond:SER:36>  (53) 
hbond:SER:36    0
hbond:SER:36    0
Name: 52, dtype: object

>  <halogenbond:SER:36>  (53) 
halogenbond:SER:36    0
halogenbond:SER:36    0
Name: 52, dtype: object

>  <hbond:ARG:38>  (53) 
hbond:ARG:38    0
hbond:ARG:38    0
Name: 52, dtype: object

>  <halogenbond:ARG:38>  (53) 
halogenbond:ARG:38    0
halogenbond:ARG:38    0
Name: 52, dtype: object

>  <hbond:ASP:39>  (53) 
hbond:ASP:39    0
hbond:ASP:39    0
Name: 52, dtype: object

>  <saltbridge:ASP:39>  (53) 
saltbridge:ASP:39    0
saltbridge:ASP:39    0
Name: 52, dtype: object

>  <hydroph_interaction:ASP:39>  (53) 
hydroph_interaction:ASP:39    0
hydroph_interaction:ASP:39    0
Name: 52, dtype: object

>  <halogenbond:ASP:39>  (53) 
halogenbond:ASP:39    0
halogenbond:ASP:39    0
Name: 52, dtype: object

>  <hydroph_interaction:LEU:40>  (53) 
hydroph_interaction:LEU:40    0
hydroph_interaction:LEU:40    0
Name: 52, dtype: object

>  <hydroph_interaction:TYR:63>  (53) 
hydroph_interaction:TYR:63    0
hydroph_interaction:TYR:63    0
Name: 52, dtype: object

>  <pistack:TYR:63>  (53) 
pistack:TYR:63    0
pistack:TYR:63    0
Name: 52, dtype: object

>  <hbond:TYR:63>  (53) 
hbond:TYR:63    0
hbond:TYR:63    0
Name: 52, dtype: object

>  <hbond:TYR:64>  (53) 
hbond:TYR:64    0
hbond:TYR:64    0
Name: 52, dtype: object

>  <halogenbond:TYR:64>  (53) 
halogenbond:TYR:64    0
halogenbond:TYR:64    0
Name: 52, dtype: object

>  <hydroph_interaction:TYR:64>  (53) 
hydroph_interaction:TYR:64    0
hydroph_interaction:TYR:64    0
Name: 52, dtype: object

>  <hbond:CYS:65>  (53) 
hbond:CYS:65    0
hbond:CYS:65    0
Name: 52, dtype: object

>  <halogenbond:CYS:65>  (53) 
halogenbond:CYS:65    0
halogenbond:CYS:65    0
Name: 52, dtype: object

>  <hbond:SER:66>  (53) 
hbond:SER:66    0
hbond:SER:66    0
Name: 52, dtype: object

>  <hbond:SER:67>  (53) 
hbond:SER:67    0
hbond:SER:67    0
Name: 52, dtype: object

>  <halogenbond:SER:67>  (53) 
halogenbond:SER:67    0
halogenbond:SER:67    0
Name: 52, dtype: object

>  <hydroph_interaction:ARG:68>  (53) 
hydroph_interaction:ARG:68    0
hydroph_interaction:ARG:68    0
Name: 52, dtype: object

>  <hbond:ARG:68>  (53) 
hbond:ARG:68    0
hbond:ARG:68    0
Name: 52, dtype: object

>  <saltbridge:ARG:68>  (53) 
saltbridge:ARG:68    0
saltbridge:ARG:68    0
Name: 52, dtype: object

>  <pication:ARG:68>  (53) 
pication:ARG:68    0
pication:ARG:68    0
Name: 52, dtype: object

>  <hydroph_interaction:TYR:72>  (53) 
hydroph_interaction:TYR:72    0
hydroph_interaction:TYR:72    0
Name: 52, dtype: object

>  <hydroph_interaction:VAL:74>  (53) 
hydroph_interaction:VAL:74    0
hydroph_interaction:VAL:74    0
Name: 52, dtype: object

>  <hydroph_interaction:PHE:76>  (53) 
hydroph_interaction:PHE:76    0
hydroph_interaction:PHE:76    0
Name: 52, dtype: object

>  <hbond:SER:77>  (53) 
hbond:SER:77    0
hbond:SER:77    0
Name: 52, dtype: object

>  <hbond:SER:80>  (53) 
hbond:SER:80    0
hbond:SER:80    0
Name: 52, dtype: object

>  <hbond:LEU:81>  (53) 
hbond:LEU:81    0
hbond:LEU:81    0
Name: 52, dtype: object

>  <halogenbond:LEU:81>  (53) 
halogenbond:LEU:81    0
halogenbond:LEU:81    0
Name: 52, dtype: object

>  <hydroph_interaction:LEU:81>  (53) 
hydroph_interaction:LEU:81    0
hydroph_interaction:LEU:81    0
Name: 52, dtype: object

>  <hydroph_interaction:ILE:82>  (53) 
hydroph_interaction:ILE:82    1
hydroph_interaction:ILE:82    1
Name: 52, dtype: object

>  <hbond:ILE:82>  (53) 
hbond:ILE:82    0
hbond:ILE:82    0
Name: 52, dtype: object

>  <hydroph_interaction:PHE:83>  (53) 
hydroph_interaction:PHE:83    0
hydroph_interaction:PHE:83    0
Name: 52, dtype: object

>  <hbond:PHE:83>  (53) 
hbond:PHE:83    0
hbond:PHE:83    0
Name: 52, dtype: object

>  <halogenbond:PHE:83>  (53) 
halogenbond:PHE:83    0
halogenbond:PHE:83    0
Name: 52, dtype: object

>  <pistack:PHE:83>  (53) 
pistack:PHE:83    0
pistack:PHE:83    0
Name: 52, dtype: object

>  <hydroph_interaction:VAL:84>  (53) 
hydroph_interaction:VAL:84    0
hydroph_interaction:VAL:84    0
Name: 52, dtype: object

>  <hbond:VAL:84>  (53) 
hbond:VAL:84    0
hbond:VAL:84    0
Name: 52, dtype: object

>  <halogenbond:VAL:84>  (53) 
halogenbond:VAL:84    0
halogenbond:VAL:84    0
Name: 52, dtype: object

>  <hydroph_interaction:GLU:85>  (53) 
hydroph_interaction:GLU:85    0
hydroph_interaction:GLU:85    0
Name: 52, dtype: object

>  <hbond:GLU:85>  (53) 
hbond:GLU:85    0
hbond:GLU:85    0
Name: 52, dtype: object

>  <saltbridge:GLU:85>  (53) 
saltbridge:GLU:85    0
saltbridge:GLU:85    0
Name: 52, dtype: object

>  <halogenbond:GLU:85>  (53) 
halogenbond:GLU:85    0
halogenbond:GLU:85    0
Name: 52, dtype: object

>  <hbond:ALA:86>  (53) 
hbond:ALA:86    0
hbond:ALA:86    0
Name: 52, dtype: object

>  <halogenbond:ALA:86>  (53) 
halogenbond:ALA:86    0
halogenbond:ALA:86    0
Name: 52, dtype: object

>  <hydroph_interaction:ALA:86>  (53) 
hydroph_interaction:ALA:86    0
hydroph_interaction:ALA:86    0
Name: 52, dtype: object

>  <hbond:SER:87>  (53) 
hbond:SER:87    0
hbond:SER:87    0
Name: 52, dtype: object

>  <halogenbond:SER:87>  (53) 
halogenbond:SER:87    0
halogenbond:SER:87    0
Name: 52, dtype: object

>  <hbond:GLU:88>  (53) 
hbond:GLU:88    0
hbond:GLU:88    0
Name: 52, dtype: object

>  <hydroph_interaction:GLU:88>  (53) 
hydroph_interaction:GLU:88    0
hydroph_interaction:GLU:88    0
Name: 52, dtype: object

>  <halogenbond:GLU:88>  (53) 
halogenbond:GLU:88    0
halogenbond:GLU:88    0
Name: 52, dtype: object

>  <saltbridge:GLU:88>  (53) 
saltbridge:GLU:88    0
saltbridge:GLU:88    0
Name: 52, dtype: object

>  <hydroph_interaction:TYR:89>  (53) 
hydroph_interaction:TYR:89    0
hydroph_interaction:TYR:89    0
Name: 52, dtype: object

>  <pistack:TYR:89>  (53) 
pistack:TYR:89    0
pistack:TYR:89    0
Name: 52, dtype: object

>  <hbond:TYR:89>  (53) 
hbond:TYR:89    0
hbond:TYR:89    0
Name: 52, dtype: object

>  <halogenbond:TYR:89>  (53) 
halogenbond:TYR:89    0
halogenbond:TYR:89    0
Name: 52, dtype: object

>  <hbond:TYR:90>  (53) 
hbond:TYR:90    0
hbond:TYR:90    0
Name: 52, dtype: object

>  <hydroph_interaction:TYR:90>  (53) 
hydroph_interaction:TYR:90    0
hydroph_interaction:TYR:90    0
Name: 52, dtype: object

>  <pistack:TYR:90>  (53) 
pistack:TYR:90    0
pistack:TYR:90    0
Name: 52, dtype: object

>  <halogenbond:TYR:90>  (53) 
halogenbond:TYR:90    0
halogenbond:TYR:90    0
Name: 52, dtype: object

>  <pication:TYR:90>  (53) 
pication:TYR:90    0
pication:TYR:90    0
Name: 52, dtype: object

>  <hydroph_interaction:PRO:91>  (53) 
hydroph_interaction:PRO:91    0
hydroph_interaction:PRO:91    0
Name: 52, dtype: object

>  <halogenbond:PRO:91>  (53) 
halogenbond:PRO:91    0
halogenbond:PRO:91    0
Name: 52, dtype: object

>  <hbond:PRO:91>  (53) 
hbond:PRO:91    0
hbond:PRO:91    0
Name: 52, dtype: object

>  <hydroph_interaction:ALA:92>  (53) 
hydroph_interaction:ALA:92    0
hydroph_interaction:ALA:92    0
Name: 52, dtype: object

>  <hbond:ARG:93>  (53) 
hbond:ARG:93    0
hbond:ARG:93    0
Name: 52, dtype: object

>  <pication:ARG:93>  (53) 
pication:ARG:93    0
pication:ARG:93    0
Name: 52, dtype: object

>  <saltbridge:ARG:93>  (53) 
saltbridge:ARG:93    0
saltbridge:ARG:93    0
Name: 52, dtype: object

>  <hydroph_interaction:ARG:93>  (53) 
hydroph_interaction:ARG:93    0
hydroph_interaction:ARG:93    0
Name: 52, dtype: object

>  <halogenbond:ARG:93>  (53) 
halogenbond:ARG:93    0
halogenbond:ARG:93    0
Name: 52, dtype: object

>  <hydroph_interaction:TYR:94>  (53) 
hydroph_interaction:TYR:94    0
hydroph_interaction:TYR:94    0
Name: 52, dtype: object

>  <hbond:TYR:94>  (53) 
hbond:TYR:94    0
hbond:TYR:94    0
Name: 52, dtype: object

>  <halogenbond:GLN:95>  (53) 
halogenbond:GLN:95    0
halogenbond:GLN:95    0
Name: 52, dtype: object

>  <hbond:GLN:95>  (53) 
hbond:GLN:95    0
hbond:GLN:95    0
Name: 52, dtype: object

>  <hydroph_interaction:GLN:95>  (53) 
hydroph_interaction:GLN:95    0
hydroph_interaction:GLN:95    0
Name: 52, dtype: object

>  <hbond:SER:96>  (53) 
hbond:SER:96    0
hbond:SER:96    0
Name: 52, dtype: object

>  <hydroph_interaction:LEU:98>  (53) 
hydroph_interaction:LEU:98    0
hydroph_interaction:LEU:98    0
Name: 52, dtype: object

>  <hbond:LEU:98>  (53) 
hbond:LEU:98    0
hbond:LEU:98    0
Name: 52, dtype: object

>  <hbond:MET:99>  (53) 
hbond:MET:99    0
hbond:MET:99    0
Name: 52, dtype: object

>  <hydroph_interaction:MET:99>  (53) 
hydroph_interaction:MET:99    0
hydroph_interaction:MET:99    0
Name: 52, dtype: object

>  <halogenbond:MET:99>  (53) 
halogenbond:MET:99    0
halogenbond:MET:99    0
Name: 52, dtype: object

>  <hydroph_interaction:LEU:100>  (53) 
hydroph_interaction:LEU:100    1
hydroph_interaction:LEU:100    1
Name: 52, dtype: object

>  <hbond:LEU:100>  (53) 
hbond:LEU:100    0
hbond:LEU:100    0
Name: 52, dtype: object

>  <hbond:ALA:101>  (53) 
hbond:ALA:101    0
hbond:ALA:101    0
Name: 52, dtype: object

>  <hydroph_interaction:ALA:101>  (53) 
hydroph_interaction:ALA:101    0
hydroph_interaction:ALA:101    0
Name: 52, dtype: object

>  <hydroph_interaction:VAL:102>  (53) 
hydroph_interaction:VAL:102    0
hydroph_interaction:VAL:102    0
Name: 52, dtype: object

>  <hbond:VAL:102>  (53) 
hbond:VAL:102    0
hbond:VAL:102    0
Name: 52, dtype: object

>  <hbond:GLY:103>  (53) 
hbond:GLY:103    0
hbond:GLY:103    0
Name: 52, dtype: object

>  <halogenbond:GLY:103>  (53) 
halogenbond:GLY:103    0
halogenbond:GLY:103    0
Name: 52, dtype: object

>  <hydroph_interaction:HIS:104>  (53) 
hydroph_interaction:HIS:104    0
hydroph_interaction:HIS:104    0
Name: 52, dtype: object

>  <hbond:HIS:104>  (53) 
hbond:HIS:104    0
hbond:HIS:104    0
Name: 52, dtype: object

>  <saltbridge:HIS:104>  (53) 
saltbridge:HIS:104    0
saltbridge:HIS:104    0
Name: 52, dtype: object

>  <pication:HIS:104>  (53) 
pication:HIS:104    0
pication:HIS:104    0
Name: 52, dtype: object

>  <pistack:HIS:104>  (53) 
pistack:HIS:104    0
pistack:HIS:104    0
Name: 52, dtype: object

>  <halogenbond:HIS:104>  (53) 
halogenbond:HIS:104    0
halogenbond:HIS:104    0
Name: 52, dtype: object

>  <hbond:SER:105>  (53) 
hbond:SER:105    0
hbond:SER:105    0
Name: 52, dtype: object

>  <halogenbond:SER:105>  (53) 
halogenbond:SER:105    0
halogenbond:SER:105    0
Name: 52, dtype: object

>  <hbond:GLU:106>  (53) 
hbond:GLU:106    0
hbond:GLU:106    0
Name: 52, dtype: object

>  <hydroph_interaction:GLU:106>  (53) 
hydroph_interaction:GLU:106    0
hydroph_interaction:GLU:106    0
Name: 52, dtype: object

>  <saltbridge:GLU:106>  (53) 
saltbridge:GLU:106    0
saltbridge:GLU:106    0
Name: 52, dtype: object

>  <halogenbond:GLU:106>  (53) 
halogenbond:GLU:106    0
halogenbond:GLU:106    0
Name: 52, dtype: object

>  <hydroph_interaction:PRO:107>  (53) 
hydroph_interaction:PRO:107    0
hydroph_interaction:PRO:107    0
Name: 52, dtype: object

>  <hbond:PRO:107>  (53) 
hbond:PRO:107    0
hbond:PRO:107    0
Name: 52, dtype: object

>  <halogenbond:PRO:107>  (53) 
halogenbond:PRO:107    0
halogenbond:PRO:107    0
Name: 52, dtype: object

>  <hbond:GLY:108>  (53) 
hbond:GLY:108    0
hbond:GLY:108    0
Name: 52, dtype: object

>  <halogenbond:GLY:108>  (53) 
halogenbond:GLY:108    0
halogenbond:GLY:108    0
Name: 52, dtype: object

>  <hbond:ASP:109>  (53) 
hbond:ASP:109    0
hbond:ASP:109    0
Name: 52, dtype: object

>  <hydroph_interaction:ASP:109>  (53) 
hydroph_interaction:ASP:109    0
hydroph_interaction:ASP:109    0
Name: 52, dtype: object

>  <saltbridge:ASP:109>  (53) 
saltbridge:ASP:109    0
saltbridge:ASP:109    0
Name: 52, dtype: object

>  <hbond:CYS:110>  (53) 
hbond:CYS:110    0
hbond:CYS:110    0
Name: 52, dtype: object

>  <halogenbond:CYS:110>  (53) 
halogenbond:CYS:110    0
halogenbond:CYS:110    0
Name: 52, dtype: object

>  <hbond:GLY:111>  (53) 
hbond:GLY:111    0
hbond:GLY:111    0
Name: 52, dtype: object

>  <hbond:GLY:112>  (53) 
hbond:GLY:112    0
hbond:GLY:112    0
Name: 52, dtype: object

>  <hbond:ILE:113>  (53) 
hbond:ILE:113    0
hbond:ILE:113    0
Name: 52, dtype: object

>  <hydroph_interaction:LEU:114>  (53) 
hydroph_interaction:LEU:114    0
hydroph_interaction:LEU:114    0
Name: 52, dtype: object

>  <hbond:LEU:114>  (53) 
hbond:LEU:114    0
hbond:LEU:114    0
Name: 52, dtype: object

>  <hydroph_interaction:ILE:123>  (53) 
hydroph_interaction:ILE:123    0
hydroph_interaction:ILE:123    0
Name: 52, dtype: object

>  <hbond:ILE:123>  (53) 
hbond:ILE:123    0
hbond:ILE:123    0
Name: 52, dtype: object

>  <hydroph_interaction:VAL:124>  (53) 
hydroph_interaction:VAL:124    0
hydroph_interaction:VAL:124    0
Name: 52, dtype: object

>  <hbond:VAL:124>  (53) 
hbond:VAL:124    0
hbond:VAL:124    0
Name: 52, dtype: object

>  <halogenbond:VAL:124>  (53) 
halogenbond:VAL:124    0
halogenbond:VAL:124    0
Name: 52, dtype: object

>  <hbond:SER:125>  (53) 
hbond:SER:125    0
hbond:SER:125    0
Name: 52, dtype: object

>  <halogenbond:SER:125>  (53) 
halogenbond:SER:125    0
halogenbond:SER:125    0
Name: 52, dtype: object

>  <hydroph_interaction:THR:126>  (53) 
hydroph_interaction:THR:126    0
hydroph_interaction:THR:126    0
Name: 52, dtype: object

>  <hbond:THR:126>  (53) 
hbond:THR:126    0
hbond:THR:126    0
Name: 52, dtype: object

>  <halogenbond:THR:126>  (53) 
halogenbond:THR:126    1
halogenbond:THR:126    1
Name: 52, dtype: object

>  <hbond:GLY:127>  (53) 
hbond:GLY:127    0
hbond:GLY:127    0
Name: 52, dtype: object

>  <halogenbond:GLY:127>  (53) 
halogenbond:GLY:127    0
halogenbond:GLY:127    0
Name: 52, dtype: object

>  <hydroph_interaction:GLY:127>  (53) 
hydroph_interaction:GLY:127    0
hydroph_interaction:GLY:127    0
Name: 52, dtype: object

>  <hbond:GLY:128>  (53) 
hbond:GLY:128    1
hbond:GLY:128    1
Name: 52, dtype: object

>  <halogenbond:GLY:128>  (53) 
halogenbond:GLY:128    0
halogenbond:GLY:128    0
Name: 52, dtype: object

>  <hydroph_interaction:GLY:128>  (53) 
hydroph_interaction:GLY:128    0
hydroph_interaction:GLY:128    0
Name: 52, dtype: object

>  <hbond:ASN:129>  (53) 
hbond:ASN:129    0
hbond:ASN:129    0
Name: 52, dtype: object

>  <hydroph_interaction:ASN:129>  (53) 
hydroph_interaction:ASN:129    0
hydroph_interaction:ASN:129    0
Name: 52, dtype: object

>  <halogenbond:ASN:129>  (53) 
halogenbond:ASN:129    0
halogenbond:ASN:129    0
Name: 52, dtype: object

>  <hbond:GLY:130>  (53) 
hbond:GLY:130    0
hbond:GLY:130    0
Name: 52, dtype: object

>  <hydroph_interaction:LEU:131>  (53) 
hydroph_interaction:LEU:131    0
hydroph_interaction:LEU:131    0
Name: 52, dtype: object

>  <hbond:LEU:131>  (53) 
hbond:LEU:131    0
hbond:LEU:131    0
Name: 52, dtype: object

>  <halogenbond:LEU:131>  (53) 
halogenbond:LEU:131    0
halogenbond:LEU:131    0
Name: 52, dtype: object

>  <hydroph_interaction:VAL:132>  (53) 
hydroph_interaction:VAL:132    0
hydroph_interaction:VAL:132    0
Name: 52, dtype: object

>  <hbond:VAL:132>  (53) 
hbond:VAL:132    0
hbond:VAL:132    0
Name: 52, dtype: object

>  <hbond:GLY:133>  (53) 
hbond:GLY:133    0
hbond:GLY:133    0
Name: 52, dtype: object

>  <halogenbond:GLY:133>  (53) 
halogenbond:GLY:133    0
halogenbond:GLY:133    0
Name: 52, dtype: object

>  <hydroph_interaction:PHE:134>  (53) 
hydroph_interaction:PHE:134    0
hydroph_interaction:PHE:134    0
Name: 52, dtype: object

>  <hbond:PHE:134>  (53) 
hbond:PHE:134    0
hbond:PHE:134    0
Name: 52, dtype: object

>  <pistack:PHE:134>  (53) 
pistack:PHE:134    0
pistack:PHE:134    0
Name: 52, dtype: object

>  <pication:PHE:134>  (53) 
pication:PHE:134    0
pication:PHE:134    0
Name: 52, dtype: object

>  <hydroph_interaction:ALA:135>  (53) 
hydroph_interaction:ALA:135    0
hydroph_interaction:ALA:135    0
Name: 52, dtype: object

>  <hbond:ALA:135>  (53) 
hbond:ALA:135    0
hbond:ALA:135    0
Name: 52, dtype: object

$$$$
PV_006952226746
     RDKit          3D

 29 30  0  0  0  0  0  0  0  0999 V2000
    9.8410    9.0740   23.3010 C   0  0  0  0  0  0  0  0  0  0  0  0
    9.3040   10.4020   23.6690 C   0  0  0  0  0  0  0  0  0  0  0  0
    8.3930   10.6430   24.6990 C   0  0  0  0  0  0  0  0  0  0  0  0
    7.9100   11.8790   25.0130 N   0  0  0  0  0  0  0  0  0  0  0  0
    8.3710   12.8950   24.2340 C   0  0  0  0  0  0  0  0  0  0  0  0
    7.8750   14.1220   24.5340 O   0  0  0  0  0  0  0  0  0  0  0  0
    9.2730   12.7310   23.1870 C   0  0  0  0  0  0  0  0  0  0  0  0
    9.7670   13.8030   22.2760 C   0  0  0  0  0  0  0  0  0  0  0  0
    8.8080   14.4640   21.3380 C   0  0  0  0  0  0  0  0  0  0  0  0
    9.1460   15.4130   20.2480 C   0  0  0  0  0  0  0  0  0  0  0  0
    8.4070   16.6870   19.9610 C   0  0  0  0  0  0  0  0  0  0  0  0
    8.7290   17.4590   18.8840 C   0  0  0  0  0  0  0  0  0  0  0  0
    9.7580   17.0500   18.0770 C   0  0  0  0  0  0  0  0  0  0  0  0
   10.4640   15.9010   18.3470 C   0  0  0  0  0  0  0  0  0  0  0  0
   10.1810   15.0910   19.4040 C   0  0  0  0  0  0  0  0  0  0  0  0
    9.7260   11.4620   22.9390 C   0  0  0  0  0  0  0  0  0  0  0  0
   10.9370    9.0710   23.3050 H   0  0  0  0  0  0  0  0  0  0  0  0
    9.5060    8.3510   24.0220 H   0  0  0  0  0  0  0  0  0  0  0  0
    9.4890    8.7770   22.3100 H   0  0  0  0  0  0  0  0  0  0  0  0
    8.0140    9.8350   25.3160 H   0  0  0  0  0  0  0  0  0  0  0  0
    6.9820   13.8590   24.8350 H   0  0  0  0  0  0  0  0  0  0  0  0
   10.8460   13.9910   22.3100 H   0  0  0  0  0  0  0  0  0  0  0  0
    7.7540   14.2090   21.3800 H   0  0  0  0  0  0  0  0  0  0  0  0
    7.5690   17.1100   20.5230 H   0  0  0  0  0  0  0  0  0  0  0  0
    8.1840   18.3770   18.6640 H   0  0  0  0  0  0  0  0  0  0  0  0
   10.0340   17.6260   17.2230 H   0  0  0  0  0  0  0  0  0  0  0  0
   11.2810   15.6210   17.6860 H   0  0  0  0  0  0  0  0  0  0  0  0
   10.7540   14.1900   19.5700 H   0  0  0  0  0  0  0  0  0  0  0  0
   10.4300   11.2860   22.1340 H   0  0  0  0  0  0  0  0  0  0  0  0
  1  2  1  0
  2  3  2  0
  3  4  1  0
  4  5  2  0
  5  6  1  0
  5  7  1  0
  7  8  1  0
  8  9  2  0
  9 10  1  0
 10 11  2  0
 11 12  1  0
 12 13  2  0
 13 14  1  0
 14 15  2  0
  7 16  2  0
 16  2  1  0
 15 10  1  0
  1 17  1  0
  1 18  1  0
  1 19  1  0
  3 20  1  0
  6 21  1  0
  8 22  1  0
  9 23  1  0
 11 24  1  0
 12 25  1  0
 13 26  1  0
 14 27  1  0
 15 28  1  0
 16 29  1  0
A    1
 C1 
A    2
 C2 
A    3
 C3 
A    4
 N1 
A    5
 C4 
A    6
 O1 
A    7
 C5 
A    8
 C6 
A    9
 C7 
A   10
 C8 
A   11
 C9 
A   12
 C10
A   13
 C11
A   14
 C12
A   15
 C13
A   16
 C14
A   17
 H1 
A   18
 H2 
A   19
 H3 
A   20
 H4 
A   21
 H5 
A   22
 H6 
A   23
 H7 
A   24
 H8 
A   25
 H9 
A   26
 H10
A   27
 H11
A   28
 H12
A   29
 H13
M  END
>  <ref_pdb>  (54) 
x0310_0A

>  <ref_mols>  (54) 
x0416_0A,x0556_0A

>  <original SMILES>  (54) 
Cc1cnc(O)c(/C=C/c2ccccc2)c1

>  <rationale>  (54) 
info hbond:G127; hydroph_interaction:V124+Y90+T126+V84; 

>  <intxn_cluster>  (54) 
107

>  <intxn_cluster_rank>  (54) 
14

>  <N_interactions>  (54) 
6

>  <∆∆G>  (54) 
-10.030031

>  <$/mg>  (54) 
163.0

>  <comRMSD>  (54) 
0.601274

>  <N_rotatable_bonds>  (54) 
4

>  <N_analogues_07>  (54) 
0

>  <deep_P1_sidechain>  (54) 
True

>  <farthest_distance_to_substrate>  (54) 
2.411295

>  <hbond:SER:7>  (54) 
hbond:SER:7    0
hbond:SER:7    0
Name: 53, dtype: object

>  <halogenbond:SER:7>  (54) 
halogenbond:SER:7    0
halogenbond:SER:7    0
Name: 53, dtype: object

>  <hbond:GLY:8>  (54) 
hbond:GLY:8    0
hbond:GLY:8    0
Name: 53, dtype: object

>  <hydroph_interaction:ASN:19>  (54) 
hydroph_interaction:ASN:19    0
hydroph_interaction:ASN:19    0
Name: 53, dtype: object

>  <hbond:ASN:19>  (54) 
hbond:ASN:19    0
hbond:ASN:19    0
Name: 53, dtype: object

>  <halogenbond:ASN:19>  (54) 
halogenbond:ASN:19    0
halogenbond:ASN:19    0
Name: 53, dtype: object

>  <hbond:ARG:20>  (54) 
hbond:ARG:20    0
hbond:ARG:20    0
Name: 53, dtype: object

>  <hydroph_interaction:ARG:20>  (54) 
hydroph_interaction:ARG:20    0
hydroph_interaction:ARG:20    0
Name: 53, dtype: object

>  <saltbridge:ARG:20>  (54) 
saltbridge:ARG:20    0
saltbridge:ARG:20    0
Name: 53, dtype: object

>  <halogenbond:ARG:20>  (54) 
halogenbond:ARG:20    0
halogenbond:ARG:20    0
Name: 53, dtype: object

>  <pication:ARG:20>  (54) 
pication:ARG:20    0
pication:ARG:20    0
Name: 53, dtype: object

>  <hbond:HIS:21>  (54) 
hbond:HIS:21    0
hbond:HIS:21    0
Name: 53, dtype: object

>  <hydroph_interaction:HIS:21>  (54) 
hydroph_interaction:HIS:21    0
hydroph_interaction:HIS:21    0
Name: 53, dtype: object

>  <saltbridge:HIS:21>  (54) 
saltbridge:HIS:21    0
saltbridge:HIS:21    0
Name: 53, dtype: object

>  <pistack:HIS:21>  (54) 
pistack:HIS:21    0
pistack:HIS:21    0
Name: 53, dtype: object

>  <pication:HIS:21>  (54) 
pication:HIS:21    0
pication:HIS:21    0
Name: 53, dtype: object

>  <halogenbond:HIS:21>  (54) 
halogenbond:HIS:21    0
halogenbond:HIS:21    0
Name: 53, dtype: object

>  <hydroph_interaction:LEU:22>  (54) 
hydroph_interaction:LEU:22    0
hydroph_interaction:LEU:22    0
Name: 53, dtype: object

>  <hbond:LEU:22>  (54) 
hbond:LEU:22    0
hbond:LEU:22    0
Name: 53, dtype: object

>  <hydroph_interaction:TRP:28>  (54) 
hydroph_interaction:TRP:28    0
hydroph_interaction:TRP:28    0
Name: 53, dtype: object

>  <hbond:SER:36>  (54) 
hbond:SER:36    0
hbond:SER:36    0
Name: 53, dtype: object

>  <halogenbond:SER:36>  (54) 
halogenbond:SER:36    0
halogenbond:SER:36    0
Name: 53, dtype: object

>  <hbond:ARG:38>  (54) 
hbond:ARG:38    0
hbond:ARG:38    0
Name: 53, dtype: object

>  <halogenbond:ARG:38>  (54) 
halogenbond:ARG:38    0
halogenbond:ARG:38    0
Name: 53, dtype: object

>  <hbond:ASP:39>  (54) 
hbond:ASP:39    0
hbond:ASP:39    0
Name: 53, dtype: object

>  <saltbridge:ASP:39>  (54) 
saltbridge:ASP:39    0
saltbridge:ASP:39    0
Name: 53, dtype: object

>  <hydroph_interaction:ASP:39>  (54) 
hydroph_interaction:ASP:39    0
hydroph_interaction:ASP:39    0
Name: 53, dtype: object

>  <halogenbond:ASP:39>  (54) 
halogenbond:ASP:39    0
halogenbond:ASP:39    0
Name: 53, dtype: object

>  <hydroph_interaction:LEU:40>  (54) 
hydroph_interaction:LEU:40    0
hydroph_interaction:LEU:40    0
Name: 53, dtype: object

>  <hydroph_interaction:TYR:63>  (54) 
hydroph_interaction:TYR:63    0
hydroph_interaction:TYR:63    0
Name: 53, dtype: object

>  <pistack:TYR:63>  (54) 
pistack:TYR:63    0
pistack:TYR:63    0
Name: 53, dtype: object

>  <hbond:TYR:63>  (54) 
hbond:TYR:63    0
hbond:TYR:63    0
Name: 53, dtype: object

>  <hbond:TYR:64>  (54) 
hbond:TYR:64    0
hbond:TYR:64    0
Name: 53, dtype: object

>  <halogenbond:TYR:64>  (54) 
halogenbond:TYR:64    0
halogenbond:TYR:64    0
Name: 53, dtype: object

>  <hydroph_interaction:TYR:64>  (54) 
hydroph_interaction:TYR:64    0
hydroph_interaction:TYR:64    0
Name: 53, dtype: object

>  <hbond:CYS:65>  (54) 
hbond:CYS:65    0
hbond:CYS:65    0
Name: 53, dtype: object

>  <halogenbond:CYS:65>  (54) 
halogenbond:CYS:65    0
halogenbond:CYS:65    0
Name: 53, dtype: object

>  <hbond:SER:66>  (54) 
hbond:SER:66    0
hbond:SER:66    0
Name: 53, dtype: object

>  <hbond:SER:67>  (54) 
hbond:SER:67    0
hbond:SER:67    0
Name: 53, dtype: object

>  <halogenbond:SER:67>  (54) 
halogenbond:SER:67    0
halogenbond:SER:67    0
Name: 53, dtype: object

>  <hydroph_interaction:ARG:68>  (54) 
hydroph_interaction:ARG:68    0
hydroph_interaction:ARG:68    0
Name: 53, dtype: object

>  <hbond:ARG:68>  (54) 
hbond:ARG:68    0
hbond:ARG:68    0
Name: 53, dtype: object

>  <saltbridge:ARG:68>  (54) 
saltbridge:ARG:68    0
saltbridge:ARG:68    0
Name: 53, dtype: object

>  <pication:ARG:68>  (54) 
pication:ARG:68    0
pication:ARG:68    0
Name: 53, dtype: object

>  <hydroph_interaction:TYR:72>  (54) 
hydroph_interaction:TYR:72    0
hydroph_interaction:TYR:72    0
Name: 53, dtype: object

>  <hydroph_interaction:VAL:74>  (54) 
hydroph_interaction:VAL:74    0
hydroph_interaction:VAL:74    0
Name: 53, dtype: object

>  <hydroph_interaction:PHE:76>  (54) 
hydroph_interaction:PHE:76    0
hydroph_interaction:PHE:76    0
Name: 53, dtype: object

>  <hbond:SER:77>  (54) 
hbond:SER:77    0
hbond:SER:77    0
Name: 53, dtype: object

>  <hbond:SER:80>  (54) 
hbond:SER:80    0
hbond:SER:80    0
Name: 53, dtype: object

>  <hbond:LEU:81>  (54) 
hbond:LEU:81    0
hbond:LEU:81    0
Name: 53, dtype: object

>  <halogenbond:LEU:81>  (54) 
halogenbond:LEU:81    0
halogenbond:LEU:81    0
Name: 53, dtype: object

>  <hydroph_interaction:LEU:81>  (54) 
hydroph_interaction:LEU:81    0
hydroph_interaction:LEU:81    0
Name: 53, dtype: object

>  <hydroph_interaction:ILE:82>  (54) 
hydroph_interaction:ILE:82    0
hydroph_interaction:ILE:82    0
Name: 53, dtype: object

>  <hbond:ILE:82>  (54) 
hbond:ILE:82    0
hbond:ILE:82    0
Name: 53, dtype: object

>  <hydroph_interaction:PHE:83>  (54) 
hydroph_interaction:PHE:83    0
hydroph_interaction:PHE:83    0
Name: 53, dtype: object

>  <hbond:PHE:83>  (54) 
hbond:PHE:83    0
hbond:PHE:83    0
Name: 53, dtype: object

>  <halogenbond:PHE:83>  (54) 
halogenbond:PHE:83    0
halogenbond:PHE:83    0
Name: 53, dtype: object

>  <pistack:PHE:83>  (54) 
pistack:PHE:83    0
pistack:PHE:83    0
Name: 53, dtype: object

>  <hydroph_interaction:VAL:84>  (54) 
hydroph_interaction:VAL:84    1
hydroph_interaction:VAL:84    1
Name: 53, dtype: object

>  <hbond:VAL:84>  (54) 
hbond:VAL:84    0
hbond:VAL:84    0
Name: 53, dtype: object

>  <halogenbond:VAL:84>  (54) 
halogenbond:VAL:84    0
halogenbond:VAL:84    0
Name: 53, dtype: object

>  <hydroph_interaction:GLU:85>  (54) 
hydroph_interaction:GLU:85    0
hydroph_interaction:GLU:85    0
Name: 53, dtype: object

>  <hbond:GLU:85>  (54) 
hbond:GLU:85    0
hbond:GLU:85    0
Name: 53, dtype: object

>  <saltbridge:GLU:85>  (54) 
saltbridge:GLU:85    0
saltbridge:GLU:85    0
Name: 53, dtype: object

>  <halogenbond:GLU:85>  (54) 
halogenbond:GLU:85    0
halogenbond:GLU:85    0
Name: 53, dtype: object

>  <hbond:ALA:86>  (54) 
hbond:ALA:86    0
hbond:ALA:86    0
Name: 53, dtype: object

>  <halogenbond:ALA:86>  (54) 
halogenbond:ALA:86    0
halogenbond:ALA:86    0
Name: 53, dtype: object

>  <hydroph_interaction:ALA:86>  (54) 
hydroph_interaction:ALA:86    0
hydroph_interaction:ALA:86    0
Name: 53, dtype: object

>  <hbond:SER:87>  (54) 
hbond:SER:87    0
hbond:SER:87    0
Name: 53, dtype: object

>  <halogenbond:SER:87>  (54) 
halogenbond:SER:87    0
halogenbond:SER:87    0
Name: 53, dtype: object

>  <hbond:GLU:88>  (54) 
hbond:GLU:88    0
hbond:GLU:88    0
Name: 53, dtype: object

>  <hydroph_interaction:GLU:88>  (54) 
hydroph_interaction:GLU:88    0
hydroph_interaction:GLU:88    0
Name: 53, dtype: object

>  <halogenbond:GLU:88>  (54) 
halogenbond:GLU:88    0
halogenbond:GLU:88    0
Name: 53, dtype: object

>  <saltbridge:GLU:88>  (54) 
saltbridge:GLU:88    0
saltbridge:GLU:88    0
Name: 53, dtype: object

>  <hydroph_interaction:TYR:89>  (54) 
hydroph_interaction:TYR:89    0
hydroph_interaction:TYR:89    0
Name: 53, dtype: object

>  <pistack:TYR:89>  (54) 
pistack:TYR:89    0
pistack:TYR:89    0
Name: 53, dtype: object

>  <hbond:TYR:89>  (54) 
hbond:TYR:89    0
hbond:TYR:89    0
Name: 53, dtype: object

>  <halogenbond:TYR:89>  (54) 
halogenbond:TYR:89    0
halogenbond:TYR:89    0
Name: 53, dtype: object

>  <hbond:TYR:90>  (54) 
hbond:TYR:90    0
hbond:TYR:90    0
Name: 53, dtype: object

>  <hydroph_interaction:TYR:90>  (54) 
hydroph_interaction:TYR:90    2
hydroph_interaction:TYR:90    2
Name: 53, dtype: object

>  <pistack:TYR:90>  (54) 
pistack:TYR:90    0
pistack:TYR:90    0
Name: 53, dtype: object

>  <halogenbond:TYR:90>  (54) 
halogenbond:TYR:90    0
halogenbond:TYR:90    0
Name: 53, dtype: object

>  <pication:TYR:90>  (54) 
pication:TYR:90    0
pication:TYR:90    0
Name: 53, dtype: object

>  <hydroph_interaction:PRO:91>  (54) 
hydroph_interaction:PRO:91    0
hydroph_interaction:PRO:91    0
Name: 53, dtype: object

>  <halogenbond:PRO:91>  (54) 
halogenbond:PRO:91    0
halogenbond:PRO:91    0
Name: 53, dtype: object

>  <hbond:PRO:91>  (54) 
hbond:PRO:91    0
hbond:PRO:91    0
Name: 53, dtype: object

>  <hydroph_interaction:ALA:92>  (54) 
hydroph_interaction:ALA:92    0
hydroph_interaction:ALA:92    0
Name: 53, dtype: object

>  <hbond:ARG:93>  (54) 
hbond:ARG:93    0
hbond:ARG:93    0
Name: 53, dtype: object

>  <pication:ARG:93>  (54) 
pication:ARG:93    0
pication:ARG:93    0
Name: 53, dtype: object

>  <saltbridge:ARG:93>  (54) 
saltbridge:ARG:93    0
saltbridge:ARG:93    0
Name: 53, dtype: object

>  <hydroph_interaction:ARG:93>  (54) 
hydroph_interaction:ARG:93    0
hydroph_interaction:ARG:93    0
Name: 53, dtype: object

>  <halogenbond:ARG:93>  (54) 
halogenbond:ARG:93    0
halogenbond:ARG:93    0
Name: 53, dtype: object

>  <hydroph_interaction:TYR:94>  (54) 
hydroph_interaction:TYR:94    0
hydroph_interaction:TYR:94    0
Name: 53, dtype: object

>  <hbond:TYR:94>  (54) 
hbond:TYR:94    0
hbond:TYR:94    0
Name: 53, dtype: object

>  <halogenbond:GLN:95>  (54) 
halogenbond:GLN:95    0
halogenbond:GLN:95    0
Name: 53, dtype: object

>  <hbond:GLN:95>  (54) 
hbond:GLN:95    0
hbond:GLN:95    0
Name: 53, dtype: object

>  <hydroph_interaction:GLN:95>  (54) 
hydroph_interaction:GLN:95    0
hydroph_interaction:GLN:95    0
Name: 53, dtype: object

>  <hbond:SER:96>  (54) 
hbond:SER:96    0
hbond:SER:96    0
Name: 53, dtype: object

>  <hydroph_interaction:LEU:98>  (54) 
hydroph_interaction:LEU:98    0
hydroph_interaction:LEU:98    0
Name: 53, dtype: object

>  <hbond:LEU:98>  (54) 
hbond:LEU:98    0
hbond:LEU:98    0
Name: 53, dtype: object

>  <hbond:MET:99>  (54) 
hbond:MET:99    0
hbond:MET:99    0
Name: 53, dtype: object

>  <hydroph_interaction:MET:99>  (54) 
hydroph_interaction:MET:99    0
hydroph_interaction:MET:99    0
Name: 53, dtype: object

>  <halogenbond:MET:99>  (54) 
halogenbond:MET:99    0
halogenbond:MET:99    0
Name: 53, dtype: object

>  <hydroph_interaction:LEU:100>  (54) 
hydroph_interaction:LEU:100    0
hydroph_interaction:LEU:100    0
Name: 53, dtype: object

>  <hbond:LEU:100>  (54) 
hbond:LEU:100    0
hbond:LEU:100    0
Name: 53, dtype: object

>  <hbond:ALA:101>  (54) 
hbond:ALA:101    0
hbond:ALA:101    0
Name: 53, dtype: object

>  <hydroph_interaction:ALA:101>  (54) 
hydroph_interaction:ALA:101    0
hydroph_interaction:ALA:101    0
Name: 53, dtype: object

>  <hydroph_interaction:VAL:102>  (54) 
hydroph_interaction:VAL:102    0
hydroph_interaction:VAL:102    0
Name: 53, dtype: object

>  <hbond:VAL:102>  (54) 
hbond:VAL:102    0
hbond:VAL:102    0
Name: 53, dtype: object

>  <hbond:GLY:103>  (54) 
hbond:GLY:103    0
hbond:GLY:103    0
Name: 53, dtype: object

>  <halogenbond:GLY:103>  (54) 
halogenbond:GLY:103    0
halogenbond:GLY:103    0
Name: 53, dtype: object

>  <hydroph_interaction:HIS:104>  (54) 
hydroph_interaction:HIS:104    0
hydroph_interaction:HIS:104    0
Name: 53, dtype: object

>  <hbond:HIS:104>  (54) 
hbond:HIS:104    0
hbond:HIS:104    0
Name: 53, dtype: object

>  <saltbridge:HIS:104>  (54) 
saltbridge:HIS:104    0
saltbridge:HIS:104    0
Name: 53, dtype: object

>  <pication:HIS:104>  (54) 
pication:HIS:104    0
pication:HIS:104    0
Name: 53, dtype: object

>  <pistack:HIS:104>  (54) 
pistack:HIS:104    0
pistack:HIS:104    0
Name: 53, dtype: object

>  <halogenbond:HIS:104>  (54) 
halogenbond:HIS:104    0
halogenbond:HIS:104    0
Name: 53, dtype: object

>  <hbond:SER:105>  (54) 
hbond:SER:105    0
hbond:SER:105    0
Name: 53, dtype: object

>  <halogenbond:SER:105>  (54) 
halogenbond:SER:105    0
halogenbond:SER:105    0
Name: 53, dtype: object

>  <hbond:GLU:106>  (54) 
hbond:GLU:106    0
hbond:GLU:106    0
Name: 53, dtype: object

>  <hydroph_interaction:GLU:106>  (54) 
hydroph_interaction:GLU:106    0
hydroph_interaction:GLU:106    0
Name: 53, dtype: object

>  <saltbridge:GLU:106>  (54) 
saltbridge:GLU:106    0
saltbridge:GLU:106    0
Name: 53, dtype: object

>  <halogenbond:GLU:106>  (54) 
halogenbond:GLU:106    0
halogenbond:GLU:106    0
Name: 53, dtype: object

>  <hydroph_interaction:PRO:107>  (54) 
hydroph_interaction:PRO:107    0
hydroph_interaction:PRO:107    0
Name: 53, dtype: object

>  <hbond:PRO:107>  (54) 
hbond:PRO:107    0
hbond:PRO:107    0
Name: 53, dtype: object

>  <halogenbond:PRO:107>  (54) 
halogenbond:PRO:107    0
halogenbond:PRO:107    0
Name: 53, dtype: object

>  <hbond:GLY:108>  (54) 
hbond:GLY:108    0
hbond:GLY:108    0
Name: 53, dtype: object

>  <halogenbond:GLY:108>  (54) 
halogenbond:GLY:108    0
halogenbond:GLY:108    0
Name: 53, dtype: object

>  <hbond:ASP:109>  (54) 
hbond:ASP:109    0
hbond:ASP:109    0
Name: 53, dtype: object

>  <hydroph_interaction:ASP:109>  (54) 
hydroph_interaction:ASP:109    0
hydroph_interaction:ASP:109    0
Name: 53, dtype: object

>  <saltbridge:ASP:109>  (54) 
saltbridge:ASP:109    0
saltbridge:ASP:109    0
Name: 53, dtype: object

>  <hbond:CYS:110>  (54) 
hbond:CYS:110    0
hbond:CYS:110    0
Name: 53, dtype: object

>  <halogenbond:CYS:110>  (54) 
halogenbond:CYS:110    0
halogenbond:CYS:110    0
Name: 53, dtype: object

>  <hbond:GLY:111>  (54) 
hbond:GLY:111    0
hbond:GLY:111    0
Name: 53, dtype: object

>  <hbond:GLY:112>  (54) 
hbond:GLY:112    0
hbond:GLY:112    0
Name: 53, dtype: object

>  <hbond:ILE:113>  (54) 
hbond:ILE:113    0
hbond:ILE:113    0
Name: 53, dtype: object

>  <hydroph_interaction:LEU:114>  (54) 
hydroph_interaction:LEU:114    0
hydroph_interaction:LEU:114    0
Name: 53, dtype: object

>  <hbond:LEU:114>  (54) 
hbond:LEU:114    0
hbond:LEU:114    0
Name: 53, dtype: object

>  <hydroph_interaction:ILE:123>  (54) 
hydroph_interaction:ILE:123    0
hydroph_interaction:ILE:123    0
Name: 53, dtype: object

>  <hbond:ILE:123>  (54) 
hbond:ILE:123    0
hbond:ILE:123    0
Name: 53, dtype: object

>  <hydroph_interaction:VAL:124>  (54) 
hydroph_interaction:VAL:124    1
hydroph_interaction:VAL:124    1
Name: 53, dtype: object

>  <hbond:VAL:124>  (54) 
hbond:VAL:124    0
hbond:VAL:124    0
Name: 53, dtype: object

>  <halogenbond:VAL:124>  (54) 
halogenbond:VAL:124    0
halogenbond:VAL:124    0
Name: 53, dtype: object

>  <hbond:SER:125>  (54) 
hbond:SER:125    0
hbond:SER:125    0
Name: 53, dtype: object

>  <halogenbond:SER:125>  (54) 
halogenbond:SER:125    0
halogenbond:SER:125    0
Name: 53, dtype: object

>  <hydroph_interaction:THR:126>  (54) 
hydroph_interaction:THR:126    1
hydroph_interaction:THR:126    1
Name: 53, dtype: object

>  <hbond:THR:126>  (54) 
hbond:THR:126    0
hbond:THR:126    0
Name: 53, dtype: object

>  <halogenbond:THR:126>  (54) 
halogenbond:THR:126    0
halogenbond:THR:126    0
Name: 53, dtype: object

>  <hbond:GLY:127>  (54) 
hbond:GLY:127    1
hbond:GLY:127    1
Name: 53, dtype: object

>  <halogenbond:GLY:127>  (54) 
halogenbond:GLY:127    0
halogenbond:GLY:127    0
Name: 53, dtype: object

>  <hydroph_interaction:GLY:127>  (54) 
hydroph_interaction:GLY:127    0
hydroph_interaction:GLY:127    0
Name: 53, dtype: object

>  <hbond:GLY:128>  (54) 
hbond:GLY:128    0
hbond:GLY:128    0
Name: 53, dtype: object

>  <halogenbond:GLY:128>  (54) 
halogenbond:GLY:128    0
halogenbond:GLY:128    0
Name: 53, dtype: object

>  <hydroph_interaction:GLY:128>  (54) 
hydroph_interaction:GLY:128    0
hydroph_interaction:GLY:128    0
Name: 53, dtype: object

>  <hbond:ASN:129>  (54) 
hbond:ASN:129    0
hbond:ASN:129    0
Name: 53, dtype: object

>  <hydroph_interaction:ASN:129>  (54) 
hydroph_interaction:ASN:129    0
hydroph_interaction:ASN:129    0
Name: 53, dtype: object

>  <halogenbond:ASN:129>  (54) 
halogenbond:ASN:129    0
halogenbond:ASN:129    0
Name: 53, dtype: object

>  <hbond:GLY:130>  (54) 
hbond:GLY:130    0
hbond:GLY:130    0
Name: 53, dtype: object

>  <hydroph_interaction:LEU:131>  (54) 
hydroph_interaction:LEU:131    0
hydroph_interaction:LEU:131    0
Name: 53, dtype: object

>  <hbond:LEU:131>  (54) 
hbond:LEU:131    0
hbond:LEU:131    0
Name: 53, dtype: object

>  <halogenbond:LEU:131>  (54) 
halogenbond:LEU:131    0
halogenbond:LEU:131    0
Name: 53, dtype: object

>  <hydroph_interaction:VAL:132>  (54) 
hydroph_interaction:VAL:132    0
hydroph_interaction:VAL:132    0
Name: 53, dtype: object

>  <hbond:VAL:132>  (54) 
hbond:VAL:132    0
hbond:VAL:132    0
Name: 53, dtype: object

>  <hbond:GLY:133>  (54) 
hbond:GLY:133    0
hbond:GLY:133    0
Name: 53, dtype: object

>  <halogenbond:GLY:133>  (54) 
halogenbond:GLY:133    0
halogenbond:GLY:133    0
Name: 53, dtype: object

>  <hydroph_interaction:PHE:134>  (54) 
hydroph_interaction:PHE:134    0
hydroph_interaction:PHE:134    0
Name: 53, dtype: object

>  <hbond:PHE:134>  (54) 
hbond:PHE:134    0
hbond:PHE:134    0
Name: 53, dtype: object

>  <pistack:PHE:134>  (54) 
pistack:PHE:134    0
pistack:PHE:134    0
Name: 53, dtype: object

>  <pication:PHE:134>  (54) 
pication:PHE:134    0
pication:PHE:134    0
Name: 53, dtype: object

>  <hydroph_interaction:ALA:135>  (54) 
hydroph_interaction:ALA:135    0
hydroph_interaction:ALA:135    0
Name: 53, dtype: object

>  <hbond:ALA:135>  (54) 
hbond:ALA:135    0
hbond:ALA:135    0
Name: 53, dtype: object

$$$$
Z3192373680
     RDKit          3D

 41 42  0  0  0  0  0  0  0  0999 V2000
   19.2320   11.0800   24.8330 C   0  0  0  0  0  0  0  0  0  0  0  0
   19.1160   11.9520   25.9520 O   0  0  0  0  0  0  0  0  0  0  0  0
   18.5670   13.1800   25.6840 C   0  0  0  0  0  0  0  0  0  0  0  0
   18.9640   14.2240   26.2210 O   0  0  0  0  0  0  0  0  0  0  0  0
   17.4650   13.1170   24.7150 C   0  0  0  0  0  0  0  0  0  0  0  0
   16.1110   13.0640   24.9480 C   0  0  0  0  0  0  0  0  0  0  0  0
   15.4020   13.0090   23.7680 C   0  0  0  0  0  0  0  0  0  0  0  0
   13.9190   12.9290   23.6560 C   0  0  0  0  0  0  0  0  0  0  0  0
   13.3410   14.1710   23.7270 N   0  0  0  0  0  0  0  0  0  0  0  0
   12.5100   14.5940   22.7290 C   0  0  0  0  0  0  0  0  0  0  0  0
   13.4280   15.3530   22.4650 O   0  0  0  0  0  0  0  0  0  0  0  0
   11.7380   13.6170   23.3220 N   0  0  0  0  0  0  0  0  0  0  0  0
   11.0030   14.0490   24.4560 O   0  0  0  0  0  0  0  0  0  0  0  0
   10.9960   12.6250   22.5710 C   0  0  0  0  0  0  0  0  0  0  0  0
   10.0260   11.9110   23.2670 C   0  0  0  0  0  0  0  0  0  0  0  0
   10.0940   10.4610   23.0510 C   0  0  0  0  0  0  0  0  0  0  0  0
    9.1660    9.6810   23.7260 C   0  0  0  0  0  0  0  0  0  0  0  0
    8.2150   10.2630   24.5680 C   0  0  0  0  0  0  0  0  0  0  0  0
    8.1560   11.6380   24.7570 C   0  0  0  0  0  0  0  0  0  0  0  0
    9.0600   12.4670   24.1070 C   0  0  0  0  0  0  0  0  0  0  0  0
   16.3710   13.0270   22.7860 C   0  0  0  0  0  0  0  0  0  0  0  0
   16.2740   12.9590   21.3130 C   0  0  0  0  0  0  0  0  0  0  0  0
   17.6310   13.0990   23.3470 O   0  0  0  0  0  0  0  0  0  0  0  0
   20.2750   10.7790   24.6870 H   0  0  0  0  0  0  0  0  0  0  0  0
   18.6450   10.1840   25.0430 H   0  0  0  0  0  0  0  0  0  0  0  0
   18.8340   11.5530   23.9340 H   0  0  0  0  0  0  0  0  0  0  0  0
   15.5550   13.0570   25.8740 H   0  0  0  0  0  0  0  0  0  0  0  0
   13.5340   12.2730   24.4210 H   0  0  0  0  0  0  0  0  0  0  0  0
   13.6610   12.5110   22.6760 H   0  0  0  0  0  0  0  0  0  0  0  0
   13.8870   14.8920   24.1800 H   0  0  0  0  0  0  0  0  0  0  0  0
   10.6070   14.8900   24.1460 H   0  0  0  0  0  0  0  0  0  0  0  0
   10.4760   13.1300   21.7560 H   0  0  0  0  0  0  0  0  0  0  0  0
   11.7110   11.9280   22.1370 H   0  0  0  0  0  0  0  0  0  0  0  0
   10.8390   10.0000   22.3940 H   0  0  0  0  0  0  0  0  0  0  0  0
    9.1860    8.6140   23.5990 H   0  0  0  0  0  0  0  0  0  0  0  0
    7.4980    9.6380   25.0900 H   0  0  0  0  0  0  0  0  0  0  0  0
    7.4020   12.0590   25.4150 H   0  0  0  0  0  0  0  0  0  0  0  0
    9.0170   13.5440   24.2570 H   0  0  0  0  0  0  0  0  0  0  0  0
   17.2650   13.1270   20.8850 H   0  0  0  0  0  0  0  0  0  0  0  0
   15.5760   13.6370   20.8400 H   0  0  0  0  0  0  0  0  0  0  0  0
   15.9580   11.9740   20.9980 H   0  0  0  0  0  0  0  0  0  0  0  0
  1  2  1  0
  2  3  1  0
  3  4  2  0
  3  5  1  0
  5  6  2  0
  6  7  1  0
  7  8  1  0
  8  9  1  0
  9 10  1  0
 10 11  2  0
 10 12  1  0
 12 13  1  0
 12 14  1  0
 14 15  1  0
 15 16  2  0
 16 17  1  0
 17 18  2  0
 18 19  1  0
 19 20  2  0
  7 21  2  0
 21 22  1  0
 21 23  1  0
 23  5  1  0
 20 15  1  0
  1 24  1  0
  1 25  1  0
  1 26  1  0
  6 27  1  0
  8 28  1  0
  8 29  1  0
  9 30  1  0
 13 31  1  0
 14 32  1  0
 14 33  1  0
 16 34  1  0
 17 35  1  0
 18 36  1  0
 19 37  1  0
 20 38  1  0
 22 39  1  0
 22 40  1  0
 22 41  1  0
A    1
 C1 
A    2
 O1 
A    3
 C2 
A    4
 O2 
A    5
 C3 
A    6
 C4 
A    7
 C5 
A    8
 C6 
A    9
 N1 
A   10
 C7 
A   11
 O3 
A   12
 N2 
A   13
 O4 
A   14
 C8 
A   15
 C9 
A   16
 C10
A   17
 C11
A   18
 C12
A   19
 C13
A   20
 C14
A   21
 C15
A   22
 C16
A   23
 O5 
A   24
 H1 
A   25
 H2 
A   26
 H3 
A   27
 H4 
A   28
 H5 
A   29
 H6 
A   30
 H7 
A   31
 H8 
A   32
 H9 
A   33
 H10
A   34
 H11
A   35
 H12
A   36
 H13
A   37
 H14
A   38
 H15
A   39
 H16
A   40
 H17
A   41
 H18
M  END
>  <ref_pdb>  (55) 
x0310_0A

>  <ref_mols>  (55) 
x0554_0A,x0310_0A

>  <original SMILES>  (55) 
COC(=O)c1cc(CNC(=O)N(O)Cc2ccccc2)c(C)o1

>  <rationale>  (55) 
info hbond:S87+Y89; hydroph_interaction:P107+H21+N19; pistack:Y89; 

>  <intxn_cluster>  (55) 
202

>  <intxn_cluster_rank>  (55) 
14

>  <N_interactions>  (55) 
6

>  <∆∆G>  (55) 
-10.389353

>  <$/mg>  (55) 
nan

>  <comRMSD>  (55) 
0.781265

>  <N_rotatable_bonds>  (55) 
8

>  <N_analogues_07>  (55) 
0

>  <deep_P1_sidechain>  (55) 
False

>  <farthest_distance_to_substrate>  (55) 
4.246662

>  <hbond:SER:7>  (55) 
hbond:SER:7    0
hbond:SER:7    0
Name: 54, dtype: object

>  <halogenbond:SER:7>  (55) 
halogenbond:SER:7    0
halogenbond:SER:7    0
Name: 54, dtype: object

>  <hbond:GLY:8>  (55) 
hbond:GLY:8    0
hbond:GLY:8    0
Name: 54, dtype: object

>  <hydroph_interaction:ASN:19>  (55) 
hydroph_interaction:ASN:19    1
hydroph_interaction:ASN:19    1
Name: 54, dtype: object

>  <hbond:ASN:19>  (55) 
hbond:ASN:19    0
hbond:ASN:19    0
Name: 54, dtype: object

>  <halogenbond:ASN:19>  (55) 
halogenbond:ASN:19    0
halogenbond:ASN:19    0
Name: 54, dtype: object

>  <hbond:ARG:20>  (55) 
hbond:ARG:20    0
hbond:ARG:20    0
Name: 54, dtype: object

>  <hydroph_interaction:ARG:20>  (55) 
hydroph_interaction:ARG:20    0
hydroph_interaction:ARG:20    0
Name: 54, dtype: object

>  <saltbridge:ARG:20>  (55) 
saltbridge:ARG:20    0
saltbridge:ARG:20    0
Name: 54, dtype: object

>  <halogenbond:ARG:20>  (55) 
halogenbond:ARG:20    0
halogenbond:ARG:20    0
Name: 54, dtype: object

>  <pication:ARG:20>  (55) 
pication:ARG:20    0
pication:ARG:20    0
Name: 54, dtype: object

>  <hbond:HIS:21>  (55) 
hbond:HIS:21    0
hbond:HIS:21    0
Name: 54, dtype: object

>  <hydroph_interaction:HIS:21>  (55) 
hydroph_interaction:HIS:21    1
hydroph_interaction:HIS:21    1
Name: 54, dtype: object

>  <saltbridge:HIS:21>  (55) 
saltbridge:HIS:21    0
saltbridge:HIS:21    0
Name: 54, dtype: object

>  <pistack:HIS:21>  (55) 
pistack:HIS:21    0
pistack:HIS:21    0
Name: 54, dtype: object

>  <pication:HIS:21>  (55) 
pication:HIS:21    0
pication:HIS:21    0
Name: 54, dtype: object

>  <halogenbond:HIS:21>  (55) 
halogenbond:HIS:21    0
halogenbond:HIS:21    0
Name: 54, dtype: object

>  <hydroph_interaction:LEU:22>  (55) 
hydroph_interaction:LEU:22    0
hydroph_interaction:LEU:22    0
Name: 54, dtype: object

>  <hbond:LEU:22>  (55) 
hbond:LEU:22    0
hbond:LEU:22    0
Name: 54, dtype: object

>  <hydroph_interaction:TRP:28>  (55) 
hydroph_interaction:TRP:28    0
hydroph_interaction:TRP:28    0
Name: 54, dtype: object

>  <hbond:SER:36>  (55) 
hbond:SER:36    0
hbond:SER:36    0
Name: 54, dtype: object

>  <halogenbond:SER:36>  (55) 
halogenbond:SER:36    0
halogenbond:SER:36    0
Name: 54, dtype: object

>  <hbond:ARG:38>  (55) 
hbond:ARG:38    0
hbond:ARG:38    0
Name: 54, dtype: object

>  <halogenbond:ARG:38>  (55) 
halogenbond:ARG:38    0
halogenbond:ARG:38    0
Name: 54, dtype: object

>  <hbond:ASP:39>  (55) 
hbond:ASP:39    0
hbond:ASP:39    0
Name: 54, dtype: object

>  <saltbridge:ASP:39>  (55) 
saltbridge:ASP:39    0
saltbridge:ASP:39    0
Name: 54, dtype: object

>  <hydroph_interaction:ASP:39>  (55) 
hydroph_interaction:ASP:39    0
hydroph_interaction:ASP:39    0
Name: 54, dtype: object

>  <halogenbond:ASP:39>  (55) 
halogenbond:ASP:39    0
halogenbond:ASP:39    0
Name: 54, dtype: object

>  <hydroph_interaction:LEU:40>  (55) 
hydroph_interaction:LEU:40    0
hydroph_interaction:LEU:40    0
Name: 54, dtype: object

>  <hydroph_interaction:TYR:63>  (55) 
hydroph_interaction:TYR:63    0
hydroph_interaction:TYR:63    0
Name: 54, dtype: object

>  <pistack:TYR:63>  (55) 
pistack:TYR:63    0
pistack:TYR:63    0
Name: 54, dtype: object

>  <hbond:TYR:63>  (55) 
hbond:TYR:63    0
hbond:TYR:63    0
Name: 54, dtype: object

>  <hbond:TYR:64>  (55) 
hbond:TYR:64    0
hbond:TYR:64    0
Name: 54, dtype: object

>  <halogenbond:TYR:64>  (55) 
halogenbond:TYR:64    0
halogenbond:TYR:64    0
Name: 54, dtype: object

>  <hydroph_interaction:TYR:64>  (55) 
hydroph_interaction:TYR:64    0
hydroph_interaction:TYR:64    0
Name: 54, dtype: object

>  <hbond:CYS:65>  (55) 
hbond:CYS:65    0
hbond:CYS:65    0
Name: 54, dtype: object

>  <halogenbond:CYS:65>  (55) 
halogenbond:CYS:65    0
halogenbond:CYS:65    0
Name: 54, dtype: object

>  <hbond:SER:66>  (55) 
hbond:SER:66    0
hbond:SER:66    0
Name: 54, dtype: object

>  <hbond:SER:67>  (55) 
hbond:SER:67    0
hbond:SER:67    0
Name: 54, dtype: object

>  <halogenbond:SER:67>  (55) 
halogenbond:SER:67    0
halogenbond:SER:67    0
Name: 54, dtype: object

>  <hydroph_interaction:ARG:68>  (55) 
hydroph_interaction:ARG:68    0
hydroph_interaction:ARG:68    0
Name: 54, dtype: object

>  <hbond:ARG:68>  (55) 
hbond:ARG:68    0
hbond:ARG:68    0
Name: 54, dtype: object

>  <saltbridge:ARG:68>  (55) 
saltbridge:ARG:68    0
saltbridge:ARG:68    0
Name: 54, dtype: object

>  <pication:ARG:68>  (55) 
pication:ARG:68    0
pication:ARG:68    0
Name: 54, dtype: object

>  <hydroph_interaction:TYR:72>  (55) 
hydroph_interaction:TYR:72    0
hydroph_interaction:TYR:72    0
Name: 54, dtype: object

>  <hydroph_interaction:VAL:74>  (55) 
hydroph_interaction:VAL:74    0
hydroph_interaction:VAL:74    0
Name: 54, dtype: object

>  <hydroph_interaction:PHE:76>  (55) 
hydroph_interaction:PHE:76    0
hydroph_interaction:PHE:76    0
Name: 54, dtype: object

>  <hbond:SER:77>  (55) 
hbond:SER:77    0
hbond:SER:77    0
Name: 54, dtype: object

>  <hbond:SER:80>  (55) 
hbond:SER:80    0
hbond:SER:80    0
Name: 54, dtype: object

>  <hbond:LEU:81>  (55) 
hbond:LEU:81    0
hbond:LEU:81    0
Name: 54, dtype: object

>  <halogenbond:LEU:81>  (55) 
halogenbond:LEU:81    0
halogenbond:LEU:81    0
Name: 54, dtype: object

>  <hydroph_interaction:LEU:81>  (55) 
hydroph_interaction:LEU:81    0
hydroph_interaction:LEU:81    0
Name: 54, dtype: object

>  <hydroph_interaction:ILE:82>  (55) 
hydroph_interaction:ILE:82    0
hydroph_interaction:ILE:82    0
Name: 54, dtype: object

>  <hbond:ILE:82>  (55) 
hbond:ILE:82    0
hbond:ILE:82    0
Name: 54, dtype: object

>  <hydroph_interaction:PHE:83>  (55) 
hydroph_interaction:PHE:83    0
hydroph_interaction:PHE:83    0
Name: 54, dtype: object

>  <hbond:PHE:83>  (55) 
hbond:PHE:83    0
hbond:PHE:83    0
Name: 54, dtype: object

>  <halogenbond:PHE:83>  (55) 
halogenbond:PHE:83    0
halogenbond:PHE:83    0
Name: 54, dtype: object

>  <pistack:PHE:83>  (55) 
pistack:PHE:83    0
pistack:PHE:83    0
Name: 54, dtype: object

>  <hydroph_interaction:VAL:84>  (55) 
hydroph_interaction:VAL:84    0
hydroph_interaction:VAL:84    0
Name: 54, dtype: object

>  <hbond:VAL:84>  (55) 
hbond:VAL:84    0
hbond:VAL:84    0
Name: 54, dtype: object

>  <halogenbond:VAL:84>  (55) 
halogenbond:VAL:84    0
halogenbond:VAL:84    0
Name: 54, dtype: object

>  <hydroph_interaction:GLU:85>  (55) 
hydroph_interaction:GLU:85    0
hydroph_interaction:GLU:85    0
Name: 54, dtype: object

>  <hbond:GLU:85>  (55) 
hbond:GLU:85    0
hbond:GLU:85    0
Name: 54, dtype: object

>  <saltbridge:GLU:85>  (55) 
saltbridge:GLU:85    0
saltbridge:GLU:85    0
Name: 54, dtype: object

>  <halogenbond:GLU:85>  (55) 
halogenbond:GLU:85    0
halogenbond:GLU:85    0
Name: 54, dtype: object

>  <hbond:ALA:86>  (55) 
hbond:ALA:86    0
hbond:ALA:86    0
Name: 54, dtype: object

>  <halogenbond:ALA:86>  (55) 
halogenbond:ALA:86    0
halogenbond:ALA:86    0
Name: 54, dtype: object

>  <hydroph_interaction:ALA:86>  (55) 
hydroph_interaction:ALA:86    0
hydroph_interaction:ALA:86    0
Name: 54, dtype: object

>  <hbond:SER:87>  (55) 
hbond:SER:87    1
hbond:SER:87    1
Name: 54, dtype: object

>  <halogenbond:SER:87>  (55) 
halogenbond:SER:87    0
halogenbond:SER:87    0
Name: 54, dtype: object

>  <hbond:GLU:88>  (55) 
hbond:GLU:88    0
hbond:GLU:88    0
Name: 54, dtype: object

>  <hydroph_interaction:GLU:88>  (55) 
hydroph_interaction:GLU:88    0
hydroph_interaction:GLU:88    0
Name: 54, dtype: object

>  <halogenbond:GLU:88>  (55) 
halogenbond:GLU:88    0
halogenbond:GLU:88    0
Name: 54, dtype: object

>  <saltbridge:GLU:88>  (55) 
saltbridge:GLU:88    0
saltbridge:GLU:88    0
Name: 54, dtype: object

>  <hydroph_interaction:TYR:89>  (55) 
hydroph_interaction:TYR:89    0
hydroph_interaction:TYR:89    0
Name: 54, dtype: object

>  <pistack:TYR:89>  (55) 
pistack:TYR:89    1
pistack:TYR:89    1
Name: 54, dtype: object

>  <hbond:TYR:89>  (55) 
hbond:TYR:89    1
hbond:TYR:89    1
Name: 54, dtype: object

>  <halogenbond:TYR:89>  (55) 
halogenbond:TYR:89    0
halogenbond:TYR:89    0
Name: 54, dtype: object

>  <hbond:TYR:90>  (55) 
hbond:TYR:90    0
hbond:TYR:90    0
Name: 54, dtype: object

>  <hydroph_interaction:TYR:90>  (55) 
hydroph_interaction:TYR:90    0
hydroph_interaction:TYR:90    0
Name: 54, dtype: object

>  <pistack:TYR:90>  (55) 
pistack:TYR:90    0
pistack:TYR:90    0
Name: 54, dtype: object

>  <halogenbond:TYR:90>  (55) 
halogenbond:TYR:90    0
halogenbond:TYR:90    0
Name: 54, dtype: object

>  <pication:TYR:90>  (55) 
pication:TYR:90    0
pication:TYR:90    0
Name: 54, dtype: object

>  <hydroph_interaction:PRO:91>  (55) 
hydroph_interaction:PRO:91    0
hydroph_interaction:PRO:91    0
Name: 54, dtype: object

>  <halogenbond:PRO:91>  (55) 
halogenbond:PRO:91    0
halogenbond:PRO:91    0
Name: 54, dtype: object

>  <hbond:PRO:91>  (55) 
hbond:PRO:91    0
hbond:PRO:91    0
Name: 54, dtype: object

>  <hydroph_interaction:ALA:92>  (55) 
hydroph_interaction:ALA:92    0
hydroph_interaction:ALA:92    0
Name: 54, dtype: object

>  <hbond:ARG:93>  (55) 
hbond:ARG:93    0
hbond:ARG:93    0
Name: 54, dtype: object

>  <pication:ARG:93>  (55) 
pication:ARG:93    0
pication:ARG:93    0
Name: 54, dtype: object

>  <saltbridge:ARG:93>  (55) 
saltbridge:ARG:93    0
saltbridge:ARG:93    0
Name: 54, dtype: object

>  <hydroph_interaction:ARG:93>  (55) 
hydroph_interaction:ARG:93    0
hydroph_interaction:ARG:93    0
Name: 54, dtype: object

>  <halogenbond:ARG:93>  (55) 
halogenbond:ARG:93    0
halogenbond:ARG:93    0
Name: 54, dtype: object

>  <hydroph_interaction:TYR:94>  (55) 
hydroph_interaction:TYR:94    0
hydroph_interaction:TYR:94    0
Name: 54, dtype: object

>  <hbond:TYR:94>  (55) 
hbond:TYR:94    0
hbond:TYR:94    0
Name: 54, dtype: object

>  <halogenbond:GLN:95>  (55) 
halogenbond:GLN:95    0
halogenbond:GLN:95    0
Name: 54, dtype: object

>  <hbond:GLN:95>  (55) 
hbond:GLN:95    0
hbond:GLN:95    0
Name: 54, dtype: object

>  <hydroph_interaction:GLN:95>  (55) 
hydroph_interaction:GLN:95    0
hydroph_interaction:GLN:95    0
Name: 54, dtype: object

>  <hbond:SER:96>  (55) 
hbond:SER:96    0
hbond:SER:96    0
Name: 54, dtype: object

>  <hydroph_interaction:LEU:98>  (55) 
hydroph_interaction:LEU:98    0
hydroph_interaction:LEU:98    0
Name: 54, dtype: object

>  <hbond:LEU:98>  (55) 
hbond:LEU:98    0
hbond:LEU:98    0
Name: 54, dtype: object

>  <hbond:MET:99>  (55) 
hbond:MET:99    0
hbond:MET:99    0
Name: 54, dtype: object

>  <hydroph_interaction:MET:99>  (55) 
hydroph_interaction:MET:99    0
hydroph_interaction:MET:99    0
Name: 54, dtype: object

>  <halogenbond:MET:99>  (55) 
halogenbond:MET:99    0
halogenbond:MET:99    0
Name: 54, dtype: object

>  <hydroph_interaction:LEU:100>  (55) 
hydroph_interaction:LEU:100    0
hydroph_interaction:LEU:100    0
Name: 54, dtype: object

>  <hbond:LEU:100>  (55) 
hbond:LEU:100    0
hbond:LEU:100    0
Name: 54, dtype: object

>  <hbond:ALA:101>  (55) 
hbond:ALA:101    0
hbond:ALA:101    0
Name: 54, dtype: object

>  <hydroph_interaction:ALA:101>  (55) 
hydroph_interaction:ALA:101    0
hydroph_interaction:ALA:101    0
Name: 54, dtype: object

>  <hydroph_interaction:VAL:102>  (55) 
hydroph_interaction:VAL:102    0
hydroph_interaction:VAL:102    0
Name: 54, dtype: object

>  <hbond:VAL:102>  (55) 
hbond:VAL:102    0
hbond:VAL:102    0
Name: 54, dtype: object

>  <hbond:GLY:103>  (55) 
hbond:GLY:103    0
hbond:GLY:103    0
Name: 54, dtype: object

>  <halogenbond:GLY:103>  (55) 
halogenbond:GLY:103    0
halogenbond:GLY:103    0
Name: 54, dtype: object

>  <hydroph_interaction:HIS:104>  (55) 
hydroph_interaction:HIS:104    0
hydroph_interaction:HIS:104    0
Name: 54, dtype: object

>  <hbond:HIS:104>  (55) 
hbond:HIS:104    0
hbond:HIS:104    0
Name: 54, dtype: object

>  <saltbridge:HIS:104>  (55) 
saltbridge:HIS:104    0
saltbridge:HIS:104    0
Name: 54, dtype: object

>  <pication:HIS:104>  (55) 
pication:HIS:104    0
pication:HIS:104    0
Name: 54, dtype: object

>  <pistack:HIS:104>  (55) 
pistack:HIS:104    0
pistack:HIS:104    0
Name: 54, dtype: object

>  <halogenbond:HIS:104>  (55) 
halogenbond:HIS:104    0
halogenbond:HIS:104    0
Name: 54, dtype: object

>  <hbond:SER:105>  (55) 
hbond:SER:105    0
hbond:SER:105    0
Name: 54, dtype: object

>  <halogenbond:SER:105>  (55) 
halogenbond:SER:105    0
halogenbond:SER:105    0
Name: 54, dtype: object

>  <hbond:GLU:106>  (55) 
hbond:GLU:106    0
hbond:GLU:106    0
Name: 54, dtype: object

>  <hydroph_interaction:GLU:106>  (55) 
hydroph_interaction:GLU:106    0
hydroph_interaction:GLU:106    0
Name: 54, dtype: object

>  <saltbridge:GLU:106>  (55) 
saltbridge:GLU:106    0
saltbridge:GLU:106    0
Name: 54, dtype: object

>  <halogenbond:GLU:106>  (55) 
halogenbond:GLU:106    0
halogenbond:GLU:106    0
Name: 54, dtype: object

>  <hydroph_interaction:PRO:107>  (55) 
hydroph_interaction:PRO:107    1
hydroph_interaction:PRO:107    1
Name: 54, dtype: object

>  <hbond:PRO:107>  (55) 
hbond:PRO:107    0
hbond:PRO:107    0
Name: 54, dtype: object

>  <halogenbond:PRO:107>  (55) 
halogenbond:PRO:107    0
halogenbond:PRO:107    0
Name: 54, dtype: object

>  <hbond:GLY:108>  (55) 
hbond:GLY:108    0
hbond:GLY:108    0
Name: 54, dtype: object

>  <halogenbond:GLY:108>  (55) 
halogenbond:GLY:108    0
halogenbond:GLY:108    0
Name: 54, dtype: object

>  <hbond:ASP:109>  (55) 
hbond:ASP:109    0
hbond:ASP:109    0
Name: 54, dtype: object

>  <hydroph_interaction:ASP:109>  (55) 
hydroph_interaction:ASP:109    0
hydroph_interaction:ASP:109    0
Name: 54, dtype: object

>  <saltbridge:ASP:109>  (55) 
saltbridge:ASP:109    0
saltbridge:ASP:109    0
Name: 54, dtype: object

>  <hbond:CYS:110>  (55) 
hbond:CYS:110    0
hbond:CYS:110    0
Name: 54, dtype: object

>  <halogenbond:CYS:110>  (55) 
halogenbond:CYS:110    0
halogenbond:CYS:110    0
Name: 54, dtype: object

>  <hbond:GLY:111>  (55) 
hbond:GLY:111    0
hbond:GLY:111    0
Name: 54, dtype: object

>  <hbond:GLY:112>  (55) 
hbond:GLY:112    0
hbond:GLY:112    0
Name: 54, dtype: object

>  <hbond:ILE:113>  (55) 
hbond:ILE:113    0
hbond:ILE:113    0
Name: 54, dtype: object

>  <hydroph_interaction:LEU:114>  (55) 
hydroph_interaction:LEU:114    0
hydroph_interaction:LEU:114    0
Name: 54, dtype: object

>  <hbond:LEU:114>  (55) 
hbond:LEU:114    0
hbond:LEU:114    0
Name: 54, dtype: object

>  <hydroph_interaction:ILE:123>  (55) 
hydroph_interaction:ILE:123    0
hydroph_interaction:ILE:123    0
Name: 54, dtype: object

>  <hbond:ILE:123>  (55) 
hbond:ILE:123    0
hbond:ILE:123    0
Name: 54, dtype: object

>  <hydroph_interaction:VAL:124>  (55) 
hydroph_interaction:VAL:124    0
hydroph_interaction:VAL:124    0
Name: 54, dtype: object

>  <hbond:VAL:124>  (55) 
hbond:VAL:124    0
hbond:VAL:124    0
Name: 54, dtype: object

>  <halogenbond:VAL:124>  (55) 
halogenbond:VAL:124    0
halogenbond:VAL:124    0
Name: 54, dtype: object

>  <hbond:SER:125>  (55) 
hbond:SER:125    0
hbond:SER:125    0
Name: 54, dtype: object

>  <halogenbond:SER:125>  (55) 
halogenbond:SER:125    0
halogenbond:SER:125    0
Name: 54, dtype: object

>  <hydroph_interaction:THR:126>  (55) 
hydroph_interaction:THR:126    0
hydroph_interaction:THR:126    0
Name: 54, dtype: object

>  <hbond:THR:126>  (55) 
hbond:THR:126    0
hbond:THR:126    0
Name: 54, dtype: object

>  <halogenbond:THR:126>  (55) 
halogenbond:THR:126    0
halogenbond:THR:126    0
Name: 54, dtype: object

>  <hbond:GLY:127>  (55) 
hbond:GLY:127    0
hbond:GLY:127    0
Name: 54, dtype: object

>  <halogenbond:GLY:127>  (55) 
halogenbond:GLY:127    0
halogenbond:GLY:127    0
Name: 54, dtype: object

>  <hydroph_interaction:GLY:127>  (55) 
hydroph_interaction:GLY:127    0
hydroph_interaction:GLY:127    0
Name: 54, dtype: object

>  <hbond:GLY:128>  (55) 
hbond:GLY:128    0
hbond:GLY:128    0
Name: 54, dtype: object

>  <halogenbond:GLY:128>  (55) 
halogenbond:GLY:128    0
halogenbond:GLY:128    0
Name: 54, dtype: object

>  <hydroph_interaction:GLY:128>  (55) 
hydroph_interaction:GLY:128    0
hydroph_interaction:GLY:128    0
Name: 54, dtype: object

>  <hbond:ASN:129>  (55) 
hbond:ASN:129    0
hbond:ASN:129    0
Name: 54, dtype: object

>  <hydroph_interaction:ASN:129>  (55) 
hydroph_interaction:ASN:129    0
hydroph_interaction:ASN:129    0
Name: 54, dtype: object

>  <halogenbond:ASN:129>  (55) 
halogenbond:ASN:129    0
halogenbond:ASN:129    0
Name: 54, dtype: object

>  <hbond:GLY:130>  (55) 
hbond:GLY:130    0
hbond:GLY:130    0
Name: 54, dtype: object

>  <hydroph_interaction:LEU:131>  (55) 
hydroph_interaction:LEU:131    0
hydroph_interaction:LEU:131    0
Name: 54, dtype: object

>  <hbond:LEU:131>  (55) 
hbond:LEU:131    0
hbond:LEU:131    0
Name: 54, dtype: object

>  <halogenbond:LEU:131>  (55) 
halogenbond:LEU:131    0
halogenbond:LEU:131    0
Name: 54, dtype: object

>  <hydroph_interaction:VAL:132>  (55) 
hydroph_interaction:VAL:132    0
hydroph_interaction:VAL:132    0
Name: 54, dtype: object

>  <hbond:VAL:132>  (55) 
hbond:VAL:132    0
hbond:VAL:132    0
Name: 54, dtype: object

>  <hbond:GLY:133>  (55) 
hbond:GLY:133    0
hbond:GLY:133    0
Name: 54, dtype: object

>  <halogenbond:GLY:133>  (55) 
halogenbond:GLY:133    0
halogenbond:GLY:133    0
Name: 54, dtype: object

>  <hydroph_interaction:PHE:134>  (55) 
hydroph_interaction:PHE:134    0
hydroph_interaction:PHE:134    0
Name: 54, dtype: object

>  <hbond:PHE:134>  (55) 
hbond:PHE:134    0
hbond:PHE:134    0
Name: 54, dtype: object

>  <pistack:PHE:134>  (55) 
pistack:PHE:134    0
pistack:PHE:134    0
Name: 54, dtype: object

>  <pication:PHE:134>  (55) 
pication:PHE:134    0
pication:PHE:134    0
Name: 54, dtype: object

>  <hydroph_interaction:ALA:135>  (55) 
hydroph_interaction:ALA:135    0
hydroph_interaction:ALA:135    0
Name: 54, dtype: object

>  <hbond:ALA:135>  (55) 
hbond:ALA:135    0
hbond:ALA:135    0
Name: 54, dtype: object

$$$$
Z2438366666
     RDKit          3D

 39 40  0  0  0  0  0  0  0  0999 V2000
   10.7150    8.9240   22.9160 C   0  0  0  0  0  0  0  0  0  0  0  0
    9.3190    9.2430   23.3400 C   0  0  0  0  0  0  0  0  0  0  0  0
    9.2200   10.6310   23.6560 N   0  0  0  0  0  0  0  0  0  0  0  0
    8.2770   11.2350   24.3900 C   0  0  0  0  0  0  0  0  0  0  0  0
    8.6370   12.6870   24.4440 C   0  0  0  0  0  0  0  0  0  0  0  0
    9.8360   12.7220   23.6740 C   0  0  0  0  0  0  0  0  0  0  0  0
   10.6500   13.9110   23.4120 C   0  0  0  0  0  0  0  0  0  0  0  0
   11.0760   14.6180   24.3210 O   0  0  0  0  0  0  0  0  0  0  0  0
   10.8880   14.1430   22.0910 O   0  0  0  0  0  0  0  0  0  0  0  0
   12.2620   14.3460   21.7300 C   0  0  0  0  0  0  0  0  0  0  0  0
   12.5320   15.6790   21.5770 C   0  0  0  0  0  0  0  0  0  0  0  0
   11.4140   16.3260   20.9530 O   0  0  0  0  0  0  0  0  0  0  0  0
   10.9410   15.6770   19.7680 C   0  0  0  0  0  0  0  0  0  0  0  0
    9.5790   16.1900   19.2880 C   0  0  0  0  0  0  0  0  0  0  0  0
    9.4990   16.4280   17.7760 C   0  0  0  0  0  0  0  0  0  0  0  0
    8.8370   17.7770   17.6250 C   0  0  0  0  0  0  0  0  0  0  0  0
    8.3340   18.1210   19.0220 C   0  0  0  0  0  0  0  0  0  0  0  0
    9.1380   17.3780   19.9420 O   0  0  0  0  0  0  0  0  0  0  0  0
   10.1590   11.4860   23.2010 N   0  0  0  0  0  0  0  0  0  0  0  0
   10.8740    9.1890   21.8680 H   0  0  0  0  0  0  0  0  0  0  0  0
   10.9290    7.8730   23.0770 H   0  0  0  0  0  0  0  0  0  0  0  0
   11.4040    9.5000   23.5280 H   0  0  0  0  0  0  0  0  0  0  0  0
    8.6140    8.9790   22.5720 H   0  0  0  0  0  0  0  0  0  0  0  0
    9.0280    8.7130   24.2370 H   0  0  0  0  0  0  0  0  0  0  0  0
    7.3900   10.8410   24.8960 H   0  0  0  0  0  0  0  0  0  0  0  0
    8.1250   13.4970   24.9430 H   0  0  0  0  0  0  0  0  0  0  0  0
   12.4390   13.8250   20.7800 H   0  0  0  0  0  0  0  0  0  0  0  0
   12.9460   13.8780   22.4510 H   0  0  0  0  0  0  0  0  0  0  0  0
   12.7220   16.1310   22.5560 H   0  0  0  0  0  0  0  0  0  0  0  0
   13.4390   15.7980   20.9720 H   0  0  0  0  0  0  0  0  0  0  0  0
   11.6840   15.8280   18.9780 H   0  0  0  0  0  0  0  0  0  0  0  0
   10.9050   14.5890   19.9140 H   0  0  0  0  0  0  0  0  0  0  0  0
    8.8440   15.4600   19.5910 H   0  0  0  0  0  0  0  0  0  0  0  0
    8.9510   15.6480   17.2540 H   0  0  0  0  0  0  0  0  0  0  0  0
   10.5050   16.4750   17.3420 H   0  0  0  0  0  0  0  0  0  0  0  0
    8.0080   17.6990   16.9210 H   0  0  0  0  0  0  0  0  0  0  0  0
    9.5100   18.5250   17.2220 H   0  0  0  0  0  0  0  0  0  0  0  0
    7.3010   17.8470   19.1920 H   0  0  0  0  0  0  0  0  0  0  0  0
    8.4140   19.1840   19.2480 H   0  0  0  0  0  0  0  0  0  0  0  0
  1  2  1  0
  2  3  1  0
  3  4  1  0
  4  5  2  0
  5  6  1  0
  6  7  1  0
  7  8  2  0
  7  9  1  0
  9 10  1  0
 10 11  1  0
 11 12  1  0
 12 13  1  0
 13 14  1  0
 14 15  1  0
 15 16  1  0
 16 17  1  0
 17 18  1  0
  6 19  2  0
 19  3  1  0
 18 14  1  0
  1 20  1  0
  1 21  1  0
  1 22  1  0
  2 23  1  0
  2 24  1  0
  4 25  1  0
  5 26  1  0
 10 27  1  0
 10 28  1  0
 11 29  1  0
 11 30  1  0
 13 31  1  0
 13 32  1  0
 14 33  1  0
 15 34  1  0
 15 35  1  0
 16 36  1  0
 16 37  1  0
 17 38  1  0
 17 39  1  0
A    1
 C1 
A    2
 C2 
A    3
 N1 
A    4
 C3 
A    5
 C4 
A    6
 C5 
A    7
 C6 
A    8
 O1 
A    9
 O2 
A   10
 C7 
A   11
 C8 
A   12
 O3 
A   13
 C9 
A   14
 C10
A   15
 C11
A   16
 C12
A   17
 C13
A   18
 O4 
A   19
 N2 
A   20
 H1 
A   21
 H2 
A   22
 H3 
A   23
 H4 
A   24
 H5 
A   25
 H6 
A   26
 H7 
A   27
 H8 
A   28
 H9 
A   29
 H10
A   30
 H11
A   31
 H12
A   32
 H13
A   33
 H14
A   34
 H15
A   35
 H16
A   36
 H17
A   37
 H18
A   38
 H19
A   39
 H20
M  END
>  <ref_pdb>  (56) 
x0310_0A

>  <ref_mols>  (56) 
x0451_0A,x0884_0A

>  <original SMILES>  (56) 
CCn1ccc(C(=O)OCCOCC2CCCO2)n1

>  <rationale>  (56) 
info hbond:S87; hydroph_interaction:P107+V124+Y90+T126+V84+R93; 

>  <intxn_cluster>  (56) 
103

>  <intxn_cluster_rank>  (56) 
14

>  <N_interactions>  (56) 
8

>  <∆∆G>  (56) 
-8.142265

>  <$/mg>  (56) 
163.0

>  <comRMSD>  (56) 
0.721607

>  <N_rotatable_bonds>  (56) 
8

>  <N_analogues_07>  (56) 
0

>  <deep_P1_sidechain>  (56) 
True

>  <farthest_distance_to_substrate>  (56) 
2.254504

>  <hbond:SER:7>  (56) 
hbond:SER:7    0
hbond:SER:7    0
Name: 55, dtype: object

>  <halogenbond:SER:7>  (56) 
halogenbond:SER:7    0
halogenbond:SER:7    0
Name: 55, dtype: object

>  <hbond:GLY:8>  (56) 
hbond:GLY:8    0
hbond:GLY:8    0
Name: 55, dtype: object

>  <hydroph_interaction:ASN:19>  (56) 
hydroph_interaction:ASN:19    0
hydroph_interaction:ASN:19    0
Name: 55, dtype: object

>  <hbond:ASN:19>  (56) 
hbond:ASN:19    0
hbond:ASN:19    0
Name: 55, dtype: object

>  <halogenbond:ASN:19>  (56) 
halogenbond:ASN:19    0
halogenbond:ASN:19    0
Name: 55, dtype: object

>  <hbond:ARG:20>  (56) 
hbond:ARG:20    0
hbond:ARG:20    0
Name: 55, dtype: object

>  <hydroph_interaction:ARG:20>  (56) 
hydroph_interaction:ARG:20    0
hydroph_interaction:ARG:20    0
Name: 55, dtype: object

>  <saltbridge:ARG:20>  (56) 
saltbridge:ARG:20    0
saltbridge:ARG:20    0
Name: 55, dtype: object

>  <halogenbond:ARG:20>  (56) 
halogenbond:ARG:20    0
halogenbond:ARG:20    0
Name: 55, dtype: object

>  <pication:ARG:20>  (56) 
pication:ARG:20    0
pication:ARG:20    0
Name: 55, dtype: object

>  <hbond:HIS:21>  (56) 
hbond:HIS:21    0
hbond:HIS:21    0
Name: 55, dtype: object

>  <hydroph_interaction:HIS:21>  (56) 
hydroph_interaction:HIS:21    0
hydroph_interaction:HIS:21    0
Name: 55, dtype: object

>  <saltbridge:HIS:21>  (56) 
saltbridge:HIS:21    0
saltbridge:HIS:21    0
Name: 55, dtype: object

>  <pistack:HIS:21>  (56) 
pistack:HIS:21    0
pistack:HIS:21    0
Name: 55, dtype: object

>  <pication:HIS:21>  (56) 
pication:HIS:21    0
pication:HIS:21    0
Name: 55, dtype: object

>  <halogenbond:HIS:21>  (56) 
halogenbond:HIS:21    0
halogenbond:HIS:21    0
Name: 55, dtype: object

>  <hydroph_interaction:LEU:22>  (56) 
hydroph_interaction:LEU:22    0
hydroph_interaction:LEU:22    0
Name: 55, dtype: object

>  <hbond:LEU:22>  (56) 
hbond:LEU:22    0
hbond:LEU:22    0
Name: 55, dtype: object

>  <hydroph_interaction:TRP:28>  (56) 
hydroph_interaction:TRP:28    0
hydroph_interaction:TRP:28    0
Name: 55, dtype: object

>  <hbond:SER:36>  (56) 
hbond:SER:36    0
hbond:SER:36    0
Name: 55, dtype: object

>  <halogenbond:SER:36>  (56) 
halogenbond:SER:36    0
halogenbond:SER:36    0
Name: 55, dtype: object

>  <hbond:ARG:38>  (56) 
hbond:ARG:38    0
hbond:ARG:38    0
Name: 55, dtype: object

>  <halogenbond:ARG:38>  (56) 
halogenbond:ARG:38    0
halogenbond:ARG:38    0
Name: 55, dtype: object

>  <hbond:ASP:39>  (56) 
hbond:ASP:39    0
hbond:ASP:39    0
Name: 55, dtype: object

>  <saltbridge:ASP:39>  (56) 
saltbridge:ASP:39    0
saltbridge:ASP:39    0
Name: 55, dtype: object

>  <hydroph_interaction:ASP:39>  (56) 
hydroph_interaction:ASP:39    0
hydroph_interaction:ASP:39    0
Name: 55, dtype: object

>  <halogenbond:ASP:39>  (56) 
halogenbond:ASP:39    0
halogenbond:ASP:39    0
Name: 55, dtype: object

>  <hydroph_interaction:LEU:40>  (56) 
hydroph_interaction:LEU:40    0
hydroph_interaction:LEU:40    0
Name: 55, dtype: object

>  <hydroph_interaction:TYR:63>  (56) 
hydroph_interaction:TYR:63    0
hydroph_interaction:TYR:63    0
Name: 55, dtype: object

>  <pistack:TYR:63>  (56) 
pistack:TYR:63    0
pistack:TYR:63    0
Name: 55, dtype: object

>  <hbond:TYR:63>  (56) 
hbond:TYR:63    0
hbond:TYR:63    0
Name: 55, dtype: object

>  <hbond:TYR:64>  (56) 
hbond:TYR:64    0
hbond:TYR:64    0
Name: 55, dtype: object

>  <halogenbond:TYR:64>  (56) 
halogenbond:TYR:64    0
halogenbond:TYR:64    0
Name: 55, dtype: object

>  <hydroph_interaction:TYR:64>  (56) 
hydroph_interaction:TYR:64    0
hydroph_interaction:TYR:64    0
Name: 55, dtype: object

>  <hbond:CYS:65>  (56) 
hbond:CYS:65    0
hbond:CYS:65    0
Name: 55, dtype: object

>  <halogenbond:CYS:65>  (56) 
halogenbond:CYS:65    0
halogenbond:CYS:65    0
Name: 55, dtype: object

>  <hbond:SER:66>  (56) 
hbond:SER:66    0
hbond:SER:66    0
Name: 55, dtype: object

>  <hbond:SER:67>  (56) 
hbond:SER:67    0
hbond:SER:67    0
Name: 55, dtype: object

>  <halogenbond:SER:67>  (56) 
halogenbond:SER:67    0
halogenbond:SER:67    0
Name: 55, dtype: object

>  <hydroph_interaction:ARG:68>  (56) 
hydroph_interaction:ARG:68    0
hydroph_interaction:ARG:68    0
Name: 55, dtype: object

>  <hbond:ARG:68>  (56) 
hbond:ARG:68    0
hbond:ARG:68    0
Name: 55, dtype: object

>  <saltbridge:ARG:68>  (56) 
saltbridge:ARG:68    0
saltbridge:ARG:68    0
Name: 55, dtype: object

>  <pication:ARG:68>  (56) 
pication:ARG:68    0
pication:ARG:68    0
Name: 55, dtype: object

>  <hydroph_interaction:TYR:72>  (56) 
hydroph_interaction:TYR:72    0
hydroph_interaction:TYR:72    0
Name: 55, dtype: object

>  <hydroph_interaction:VAL:74>  (56) 
hydroph_interaction:VAL:74    0
hydroph_interaction:VAL:74    0
Name: 55, dtype: object

>  <hydroph_interaction:PHE:76>  (56) 
hydroph_interaction:PHE:76    0
hydroph_interaction:PHE:76    0
Name: 55, dtype: object

>  <hbond:SER:77>  (56) 
hbond:SER:77    0
hbond:SER:77    0
Name: 55, dtype: object

>  <hbond:SER:80>  (56) 
hbond:SER:80    0
hbond:SER:80    0
Name: 55, dtype: object

>  <hbond:LEU:81>  (56) 
hbond:LEU:81    0
hbond:LEU:81    0
Name: 55, dtype: object

>  <halogenbond:LEU:81>  (56) 
halogenbond:LEU:81    0
halogenbond:LEU:81    0
Name: 55, dtype: object

>  <hydroph_interaction:LEU:81>  (56) 
hydroph_interaction:LEU:81    0
hydroph_interaction:LEU:81    0
Name: 55, dtype: object

>  <hydroph_interaction:ILE:82>  (56) 
hydroph_interaction:ILE:82    0
hydroph_interaction:ILE:82    0
Name: 55, dtype: object

>  <hbond:ILE:82>  (56) 
hbond:ILE:82    0
hbond:ILE:82    0
Name: 55, dtype: object

>  <hydroph_interaction:PHE:83>  (56) 
hydroph_interaction:PHE:83    0
hydroph_interaction:PHE:83    0
Name: 55, dtype: object

>  <hbond:PHE:83>  (56) 
hbond:PHE:83    0
hbond:PHE:83    0
Name: 55, dtype: object

>  <halogenbond:PHE:83>  (56) 
halogenbond:PHE:83    0
halogenbond:PHE:83    0
Name: 55, dtype: object

>  <pistack:PHE:83>  (56) 
pistack:PHE:83    0
pistack:PHE:83    0
Name: 55, dtype: object

>  <hydroph_interaction:VAL:84>  (56) 
hydroph_interaction:VAL:84    2
hydroph_interaction:VAL:84    2
Name: 55, dtype: object

>  <hbond:VAL:84>  (56) 
hbond:VAL:84    0
hbond:VAL:84    0
Name: 55, dtype: object

>  <halogenbond:VAL:84>  (56) 
halogenbond:VAL:84    0
halogenbond:VAL:84    0
Name: 55, dtype: object

>  <hydroph_interaction:GLU:85>  (56) 
hydroph_interaction:GLU:85    0
hydroph_interaction:GLU:85    0
Name: 55, dtype: object

>  <hbond:GLU:85>  (56) 
hbond:GLU:85    0
hbond:GLU:85    0
Name: 55, dtype: object

>  <saltbridge:GLU:85>  (56) 
saltbridge:GLU:85    0
saltbridge:GLU:85    0
Name: 55, dtype: object

>  <halogenbond:GLU:85>  (56) 
halogenbond:GLU:85    0
halogenbond:GLU:85    0
Name: 55, dtype: object

>  <hbond:ALA:86>  (56) 
hbond:ALA:86    0
hbond:ALA:86    0
Name: 55, dtype: object

>  <halogenbond:ALA:86>  (56) 
halogenbond:ALA:86    0
halogenbond:ALA:86    0
Name: 55, dtype: object

>  <hydroph_interaction:ALA:86>  (56) 
hydroph_interaction:ALA:86    0
hydroph_interaction:ALA:86    0
Name: 55, dtype: object

>  <hbond:SER:87>  (56) 
hbond:SER:87    1
hbond:SER:87    1
Name: 55, dtype: object

>  <halogenbond:SER:87>  (56) 
halogenbond:SER:87    0
halogenbond:SER:87    0
Name: 55, dtype: object

>  <hbond:GLU:88>  (56) 
hbond:GLU:88    0
hbond:GLU:88    0
Name: 55, dtype: object

>  <hydroph_interaction:GLU:88>  (56) 
hydroph_interaction:GLU:88    0
hydroph_interaction:GLU:88    0
Name: 55, dtype: object

>  <halogenbond:GLU:88>  (56) 
halogenbond:GLU:88    0
halogenbond:GLU:88    0
Name: 55, dtype: object

>  <saltbridge:GLU:88>  (56) 
saltbridge:GLU:88    0
saltbridge:GLU:88    0
Name: 55, dtype: object

>  <hydroph_interaction:TYR:89>  (56) 
hydroph_interaction:TYR:89    0
hydroph_interaction:TYR:89    0
Name: 55, dtype: object

>  <pistack:TYR:89>  (56) 
pistack:TYR:89    0
pistack:TYR:89    0
Name: 55, dtype: object

>  <hbond:TYR:89>  (56) 
hbond:TYR:89    0
hbond:TYR:89    0
Name: 55, dtype: object

>  <halogenbond:TYR:89>  (56) 
halogenbond:TYR:89    0
halogenbond:TYR:89    0
Name: 55, dtype: object

>  <hbond:TYR:90>  (56) 
hbond:TYR:90    0
hbond:TYR:90    0
Name: 55, dtype: object

>  <hydroph_interaction:TYR:90>  (56) 
hydroph_interaction:TYR:90    1
hydroph_interaction:TYR:90    1
Name: 55, dtype: object

>  <pistack:TYR:90>  (56) 
pistack:TYR:90    0
pistack:TYR:90    0
Name: 55, dtype: object

>  <halogenbond:TYR:90>  (56) 
halogenbond:TYR:90    0
halogenbond:TYR:90    0
Name: 55, dtype: object

>  <pication:TYR:90>  (56) 
pication:TYR:90    0
pication:TYR:90    0
Name: 55, dtype: object

>  <hydroph_interaction:PRO:91>  (56) 
hydroph_interaction:PRO:91    0
hydroph_interaction:PRO:91    0
Name: 55, dtype: object

>  <halogenbond:PRO:91>  (56) 
halogenbond:PRO:91    0
halogenbond:PRO:91    0
Name: 55, dtype: object

>  <hbond:PRO:91>  (56) 
hbond:PRO:91    0
hbond:PRO:91    0
Name: 55, dtype: object

>  <hydroph_interaction:ALA:92>  (56) 
hydroph_interaction:ALA:92    0
hydroph_interaction:ALA:92    0
Name: 55, dtype: object

>  <hbond:ARG:93>  (56) 
hbond:ARG:93    0
hbond:ARG:93    0
Name: 55, dtype: object

>  <pication:ARG:93>  (56) 
pication:ARG:93    0
pication:ARG:93    0
Name: 55, dtype: object

>  <saltbridge:ARG:93>  (56) 
saltbridge:ARG:93    0
saltbridge:ARG:93    0
Name: 55, dtype: object

>  <hydroph_interaction:ARG:93>  (56) 
hydroph_interaction:ARG:93    1
hydroph_interaction:ARG:93    1
Name: 55, dtype: object

>  <halogenbond:ARG:93>  (56) 
halogenbond:ARG:93    0
halogenbond:ARG:93    0
Name: 55, dtype: object

>  <hydroph_interaction:TYR:94>  (56) 
hydroph_interaction:TYR:94    0
hydroph_interaction:TYR:94    0
Name: 55, dtype: object

>  <hbond:TYR:94>  (56) 
hbond:TYR:94    0
hbond:TYR:94    0
Name: 55, dtype: object

>  <halogenbond:GLN:95>  (56) 
halogenbond:GLN:95    0
halogenbond:GLN:95    0
Name: 55, dtype: object

>  <hbond:GLN:95>  (56) 
hbond:GLN:95    0
hbond:GLN:95    0
Name: 55, dtype: object

>  <hydroph_interaction:GLN:95>  (56) 
hydroph_interaction:GLN:95    0
hydroph_interaction:GLN:95    0
Name: 55, dtype: object

>  <hbond:SER:96>  (56) 
hbond:SER:96    0
hbond:SER:96    0
Name: 55, dtype: object

>  <hydroph_interaction:LEU:98>  (56) 
hydroph_interaction:LEU:98    0
hydroph_interaction:LEU:98    0
Name: 55, dtype: object

>  <hbond:LEU:98>  (56) 
hbond:LEU:98    0
hbond:LEU:98    0
Name: 55, dtype: object

>  <hbond:MET:99>  (56) 
hbond:MET:99    0
hbond:MET:99    0
Name: 55, dtype: object

>  <hydroph_interaction:MET:99>  (56) 
hydroph_interaction:MET:99    0
hydroph_interaction:MET:99    0
Name: 55, dtype: object

>  <halogenbond:MET:99>  (56) 
halogenbond:MET:99    0
halogenbond:MET:99    0
Name: 55, dtype: object

>  <hydroph_interaction:LEU:100>  (56) 
hydroph_interaction:LEU:100    0
hydroph_interaction:LEU:100    0
Name: 55, dtype: object

>  <hbond:LEU:100>  (56) 
hbond:LEU:100    0
hbond:LEU:100    0
Name: 55, dtype: object

>  <hbond:ALA:101>  (56) 
hbond:ALA:101    0
hbond:ALA:101    0
Name: 55, dtype: object

>  <hydroph_interaction:ALA:101>  (56) 
hydroph_interaction:ALA:101    0
hydroph_interaction:ALA:101    0
Name: 55, dtype: object

>  <hydroph_interaction:VAL:102>  (56) 
hydroph_interaction:VAL:102    0
hydroph_interaction:VAL:102    0
Name: 55, dtype: object

>  <hbond:VAL:102>  (56) 
hbond:VAL:102    0
hbond:VAL:102    0
Name: 55, dtype: object

>  <hbond:GLY:103>  (56) 
hbond:GLY:103    0
hbond:GLY:103    0
Name: 55, dtype: object

>  <halogenbond:GLY:103>  (56) 
halogenbond:GLY:103    0
halogenbond:GLY:103    0
Name: 55, dtype: object

>  <hydroph_interaction:HIS:104>  (56) 
hydroph_interaction:HIS:104    0
hydroph_interaction:HIS:104    0
Name: 55, dtype: object

>  <hbond:HIS:104>  (56) 
hbond:HIS:104    0
hbond:HIS:104    0
Name: 55, dtype: object

>  <saltbridge:HIS:104>  (56) 
saltbridge:HIS:104    0
saltbridge:HIS:104    0
Name: 55, dtype: object

>  <pication:HIS:104>  (56) 
pication:HIS:104    0
pication:HIS:104    0
Name: 55, dtype: object

>  <pistack:HIS:104>  (56) 
pistack:HIS:104    0
pistack:HIS:104    0
Name: 55, dtype: object

>  <halogenbond:HIS:104>  (56) 
halogenbond:HIS:104    0
halogenbond:HIS:104    0
Name: 55, dtype: object

>  <hbond:SER:105>  (56) 
hbond:SER:105    0
hbond:SER:105    0
Name: 55, dtype: object

>  <halogenbond:SER:105>  (56) 
halogenbond:SER:105    0
halogenbond:SER:105    0
Name: 55, dtype: object

>  <hbond:GLU:106>  (56) 
hbond:GLU:106    0
hbond:GLU:106    0
Name: 55, dtype: object

>  <hydroph_interaction:GLU:106>  (56) 
hydroph_interaction:GLU:106    0
hydroph_interaction:GLU:106    0
Name: 55, dtype: object

>  <saltbridge:GLU:106>  (56) 
saltbridge:GLU:106    0
saltbridge:GLU:106    0
Name: 55, dtype: object

>  <halogenbond:GLU:106>  (56) 
halogenbond:GLU:106    0
halogenbond:GLU:106    0
Name: 55, dtype: object

>  <hydroph_interaction:PRO:107>  (56) 
hydroph_interaction:PRO:107    1
hydroph_interaction:PRO:107    1
Name: 55, dtype: object

>  <hbond:PRO:107>  (56) 
hbond:PRO:107    0
hbond:PRO:107    0
Name: 55, dtype: object

>  <halogenbond:PRO:107>  (56) 
halogenbond:PRO:107    0
halogenbond:PRO:107    0
Name: 55, dtype: object

>  <hbond:GLY:108>  (56) 
hbond:GLY:108    0
hbond:GLY:108    0
Name: 55, dtype: object

>  <halogenbond:GLY:108>  (56) 
halogenbond:GLY:108    0
halogenbond:GLY:108    0
Name: 55, dtype: object

>  <hbond:ASP:109>  (56) 
hbond:ASP:109    0
hbond:ASP:109    0
Name: 55, dtype: object

>  <hydroph_interaction:ASP:109>  (56) 
hydroph_interaction:ASP:109    0
hydroph_interaction:ASP:109    0
Name: 55, dtype: object

>  <saltbridge:ASP:109>  (56) 
saltbridge:ASP:109    0
saltbridge:ASP:109    0
Name: 55, dtype: object

>  <hbond:CYS:110>  (56) 
hbond:CYS:110    0
hbond:CYS:110    0
Name: 55, dtype: object

>  <halogenbond:CYS:110>  (56) 
halogenbond:CYS:110    0
halogenbond:CYS:110    0
Name: 55, dtype: object

>  <hbond:GLY:111>  (56) 
hbond:GLY:111    0
hbond:GLY:111    0
Name: 55, dtype: object

>  <hbond:GLY:112>  (56) 
hbond:GLY:112    0
hbond:GLY:112    0
Name: 55, dtype: object

>  <hbond:ILE:113>  (56) 
hbond:ILE:113    0
hbond:ILE:113    0
Name: 55, dtype: object

>  <hydroph_interaction:LEU:114>  (56) 
hydroph_interaction:LEU:114    0
hydroph_interaction:LEU:114    0
Name: 55, dtype: object

>  <hbond:LEU:114>  (56) 
hbond:LEU:114    0
hbond:LEU:114    0
Name: 55, dtype: object

>  <hydroph_interaction:ILE:123>  (56) 
hydroph_interaction:ILE:123    0
hydroph_interaction:ILE:123    0
Name: 55, dtype: object

>  <hbond:ILE:123>  (56) 
hbond:ILE:123    0
hbond:ILE:123    0
Name: 55, dtype: object

>  <hydroph_interaction:VAL:124>  (56) 
hydroph_interaction:VAL:124    1
hydroph_interaction:VAL:124    1
Name: 55, dtype: object

>  <hbond:VAL:124>  (56) 
hbond:VAL:124    0
hbond:VAL:124    0
Name: 55, dtype: object

>  <halogenbond:VAL:124>  (56) 
halogenbond:VAL:124    0
halogenbond:VAL:124    0
Name: 55, dtype: object

>  <hbond:SER:125>  (56) 
hbond:SER:125    0
hbond:SER:125    0
Name: 55, dtype: object

>  <halogenbond:SER:125>  (56) 
halogenbond:SER:125    0
halogenbond:SER:125    0
Name: 55, dtype: object

>  <hydroph_interaction:THR:126>  (56) 
hydroph_interaction:THR:126    1
hydroph_interaction:THR:126    1
Name: 55, dtype: object

>  <hbond:THR:126>  (56) 
hbond:THR:126    0
hbond:THR:126    0
Name: 55, dtype: object

>  <halogenbond:THR:126>  (56) 
halogenbond:THR:126    0
halogenbond:THR:126    0
Name: 55, dtype: object

>  <hbond:GLY:127>  (56) 
hbond:GLY:127    0
hbond:GLY:127    0
Name: 55, dtype: object

>  <halogenbond:GLY:127>  (56) 
halogenbond:GLY:127    0
halogenbond:GLY:127    0
Name: 55, dtype: object

>  <hydroph_interaction:GLY:127>  (56) 
hydroph_interaction:GLY:127    0
hydroph_interaction:GLY:127    0
Name: 55, dtype: object

>  <hbond:GLY:128>  (56) 
hbond:GLY:128    0
hbond:GLY:128    0
Name: 55, dtype: object

>  <halogenbond:GLY:128>  (56) 
halogenbond:GLY:128    0
halogenbond:GLY:128    0
Name: 55, dtype: object

>  <hydroph_interaction:GLY:128>  (56) 
hydroph_interaction:GLY:128    0
hydroph_interaction:GLY:128    0
Name: 55, dtype: object

>  <hbond:ASN:129>  (56) 
hbond:ASN:129    0
hbond:ASN:129    0
Name: 55, dtype: object

>  <hydroph_interaction:ASN:129>  (56) 
hydroph_interaction:ASN:129    0
hydroph_interaction:ASN:129    0
Name: 55, dtype: object

>  <halogenbond:ASN:129>  (56) 
halogenbond:ASN:129    0
halogenbond:ASN:129    0
Name: 55, dtype: object

>  <hbond:GLY:130>  (56) 
hbond:GLY:130    0
hbond:GLY:130    0
Name: 55, dtype: object

>  <hydroph_interaction:LEU:131>  (56) 
hydroph_interaction:LEU:131    0
hydroph_interaction:LEU:131    0
Name: 55, dtype: object

>  <hbond:LEU:131>  (56) 
hbond:LEU:131    0
hbond:LEU:131    0
Name: 55, dtype: object

>  <halogenbond:LEU:131>  (56) 
halogenbond:LEU:131    0
halogenbond:LEU:131    0
Name: 55, dtype: object

>  <hydroph_interaction:VAL:132>  (56) 
hydroph_interaction:VAL:132    0
hydroph_interaction:VAL:132    0
Name: 55, dtype: object

>  <hbond:VAL:132>  (56) 
hbond:VAL:132    0
hbond:VAL:132    0
Name: 55, dtype: object

>  <hbond:GLY:133>  (56) 
hbond:GLY:133    0
hbond:GLY:133    0
Name: 55, dtype: object

>  <halogenbond:GLY:133>  (56) 
halogenbond:GLY:133    0
halogenbond:GLY:133    0
Name: 55, dtype: object

>  <hydroph_interaction:PHE:134>  (56) 
hydroph_interaction:PHE:134    0
hydroph_interaction:PHE:134    0
Name: 55, dtype: object

>  <hbond:PHE:134>  (56) 
hbond:PHE:134    0
hbond:PHE:134    0
Name: 55, dtype: object

>  <pistack:PHE:134>  (56) 
pistack:PHE:134    0
pistack:PHE:134    0
Name: 55, dtype: object

>  <pication:PHE:134>  (56) 
pication:PHE:134    0
pication:PHE:134    0
Name: 55, dtype: object

>  <hydroph_interaction:ALA:135>  (56) 
hydroph_interaction:ALA:135    0
hydroph_interaction:ALA:135    0
Name: 55, dtype: object

>  <hbond:ALA:135>  (56) 
hbond:ALA:135    0
hbond:ALA:135    0
Name: 55, dtype: object

$$$$
Z4764827118
     RDKit          3D

 28 29  0  0  0  0  0  0  0  0999 V2000
    6.6920   13.8710   25.7910 C   0  0  0  0  0  0  0  0  0  0  0  0
    7.5560   12.8810   25.0370 C   0  0  0  0  0  0  0  0  0  0  0  0
    7.5520   11.5040   25.1740 C   0  0  0  0  0  0  0  0  0  0  0  0
    8.4310   10.7710   24.3760 C   0  0  0  0  0  0  0  0  0  0  0  0
    9.2930   11.3780   23.4710 C   0  0  0  0  0  0  0  0  0  0  0  0
   10.0190   10.4330   22.8500 C   0  0  0  0  0  0  0  0  0  0  0  0
    9.6060    9.1590   23.3760 C   0  0  0  0  0  0  0  0  0  0  0  0
    8.6180    9.3980   24.3100 O   0  0  0  0  0  0  0  0  0  0  0  0
    9.3070   12.7480   23.3180 C   0  0  0  0  0  0  0  0  0  0  0  0
   10.1770   13.2700   22.3820 N   0  0  0  0  0  0  0  0  0  0  0  0
   11.3670   13.9150   22.8610 C   0  0  0  0  0  0  0  0  0  0  0  0
   11.7560   14.8630   21.7430 C   0  0  0  0  0  0  0  0  0  0  0  0
   12.5680   16.0040   22.2320 C   0  0  0  0  0  0  0  0  0  0  0  0
   12.4890   14.2040   20.8100 F   0  0  0  0  0  0  0  0  0  0  0  0
    8.4610   13.5350   24.0790 N   0  0  0  0  0  0  0  0  0  0  0  0
    5.6290   13.7240   25.5720 H   0  0  0  0  0  0  0  0  0  0  0  0
    6.8310   13.7640   26.8710 H   0  0  0  0  0  0  0  0  0  0  0  0
    6.9560   14.8960   25.5090 H   0  0  0  0  0  0  0  0  0  0  0  0
    6.8970   10.9850   25.8660 H   0  0  0  0  0  0  0  0  0  0  0  0
   10.7720   10.5830   22.0960 H   0  0  0  0  0  0  0  0  0  0  0  0
    9.9040    8.1500   23.1880 H   0  0  0  0  0  0  0  0  0  0  0  0
   10.3640   12.7060   21.5430 H   0  0  0  0  0  0  0  0  0  0  0  0
   12.1390   13.1620   23.0470 H   0  0  0  0  0  0  0  0  0  0  0  0
   11.1820   14.4520   23.7990 H   0  0  0  0  0  0  0  0  0  0  0  0
   10.8690   15.2470   21.2350 H   0  0  0  0  0  0  0  0  0  0  0  0
   12.2450   16.2860   23.2360 H   0  0  0  0  0  0  0  0  0  0  0  0
   12.4310   16.8830   21.5950 H   0  0  0  0  0  0  0  0  0  0  0  0
   13.6260   15.7350   22.2610 H   0  0  0  0  0  0  0  0  0  0  0  0
  1  2  1  0
  2  3  2  0
  3  4  1  0
  4  5  2  0
  5  6  1  0
  6  7  2  0
  7  8  1  0
  5  9  1  0
  9 10  1  0
 10 11  1  0
 11 12  1  0
 12 13  1  0
 12 14  1  0
  9 15  2  0
 15  2  1  0
  8  4  1  0
  1 16  1  0
  1 17  1  0
  1 18  1  0
  3 19  1  0
  6 20  1  0
  7 21  1  0
 10 22  1  0
 11 23  1  0
 11 24  1  0
 12 25  1  0
 13 26  1  0
 13 27  1  0
 13 28  1  0
A    1
 C1 
A    2
 C2 
A    3
 C3 
A    4
 C4 
A    5
 C5 
A    6
 C6 
A    7
 C7 
A    8
 O1 
A    9
 C8 
A   10
 N1 
A   11
 C9 
A   12
 C10
A   13
 C11
A   14
 F1 
A   15
 N2 
A   16
 H1 
A   17
 H2 
A   18
 H3 
A   19
 H4 
A   20
 H5 
A   21
 H6 
A   22
 H7 
A   23
 H8 
A   24
 H9 
A   25
 H10
A   26
 H11
A   27
 H12
A   28
 H13
M  END
>  <ref_pdb>  (57) 
x0310_0A

>  <ref_mols>  (57) 
x0554_0A,x0739_0A

>  <original SMILES>  (57) 
Cc1cc2occc2c(NCC(C)F)n1

>  <rationale>  (57) 
info halogenbond:D39; hbond:S125; hydroph_interaction:Y89; 

>  <intxn_cluster>  (57) 
205

>  <intxn_cluster_rank>  (57) 
15

>  <N_interactions>  (57) 
3

>  <∆∆G>  (57) 
-8.984763

>  <$/mg>  (57) 
nan

>  <comRMSD>  (57) 
0.896942

>  <N_rotatable_bonds>  (57) 
5

>  <N_analogues_07>  (57) 
13

>  <deep_P1_sidechain>  (57) 
False

>  <farthest_distance_to_substrate>  (57) 
2.408146

>  <hbond:SER:7>  (57) 
hbond:SER:7    0
hbond:SER:7    0
Name: 56, dtype: object

>  <halogenbond:SER:7>  (57) 
halogenbond:SER:7    0
halogenbond:SER:7    0
Name: 56, dtype: object

>  <hbond:GLY:8>  (57) 
hbond:GLY:8    0
hbond:GLY:8    0
Name: 56, dtype: object

>  <hydroph_interaction:ASN:19>  (57) 
hydroph_interaction:ASN:19    0
hydroph_interaction:ASN:19    0
Name: 56, dtype: object

>  <hbond:ASN:19>  (57) 
hbond:ASN:19    0
hbond:ASN:19    0
Name: 56, dtype: object

>  <halogenbond:ASN:19>  (57) 
halogenbond:ASN:19    0
halogenbond:ASN:19    0
Name: 56, dtype: object

>  <hbond:ARG:20>  (57) 
hbond:ARG:20    0
hbond:ARG:20    0
Name: 56, dtype: object

>  <hydroph_interaction:ARG:20>  (57) 
hydroph_interaction:ARG:20    0
hydroph_interaction:ARG:20    0
Name: 56, dtype: object

>  <saltbridge:ARG:20>  (57) 
saltbridge:ARG:20    0
saltbridge:ARG:20    0
Name: 56, dtype: object

>  <halogenbond:ARG:20>  (57) 
halogenbond:ARG:20    0
halogenbond:ARG:20    0
Name: 56, dtype: object

>  <pication:ARG:20>  (57) 
pication:ARG:20    0
pication:ARG:20    0
Name: 56, dtype: object

>  <hbond:HIS:21>  (57) 
hbond:HIS:21    0
hbond:HIS:21    0
Name: 56, dtype: object

>  <hydroph_interaction:HIS:21>  (57) 
hydroph_interaction:HIS:21    0
hydroph_interaction:HIS:21    0
Name: 56, dtype: object

>  <saltbridge:HIS:21>  (57) 
saltbridge:HIS:21    0
saltbridge:HIS:21    0
Name: 56, dtype: object

>  <pistack:HIS:21>  (57) 
pistack:HIS:21    0
pistack:HIS:21    0
Name: 56, dtype: object

>  <pication:HIS:21>  (57) 
pication:HIS:21    0
pication:HIS:21    0
Name: 56, dtype: object

>  <halogenbond:HIS:21>  (57) 
halogenbond:HIS:21    0
halogenbond:HIS:21    0
Name: 56, dtype: object

>  <hydroph_interaction:LEU:22>  (57) 
hydroph_interaction:LEU:22    0
hydroph_interaction:LEU:22    0
Name: 56, dtype: object

>  <hbond:LEU:22>  (57) 
hbond:LEU:22    0
hbond:LEU:22    0
Name: 56, dtype: object

>  <hydroph_interaction:TRP:28>  (57) 
hydroph_interaction:TRP:28    0
hydroph_interaction:TRP:28    0
Name: 56, dtype: object

>  <hbond:SER:36>  (57) 
hbond:SER:36    0
hbond:SER:36    0
Name: 56, dtype: object

>  <halogenbond:SER:36>  (57) 
halogenbond:SER:36    0
halogenbond:SER:36    0
Name: 56, dtype: object

>  <hbond:ARG:38>  (57) 
hbond:ARG:38    0
hbond:ARG:38    0
Name: 56, dtype: object

>  <halogenbond:ARG:38>  (57) 
halogenbond:ARG:38    0
halogenbond:ARG:38    0
Name: 56, dtype: object

>  <hbond:ASP:39>  (57) 
hbond:ASP:39    0
hbond:ASP:39    0
Name: 56, dtype: object

>  <saltbridge:ASP:39>  (57) 
saltbridge:ASP:39    0
saltbridge:ASP:39    0
Name: 56, dtype: object

>  <hydroph_interaction:ASP:39>  (57) 
hydroph_interaction:ASP:39    0
hydroph_interaction:ASP:39    0
Name: 56, dtype: object

>  <halogenbond:ASP:39>  (57) 
halogenbond:ASP:39    1
halogenbond:ASP:39    1
Name: 56, dtype: object

>  <hydroph_interaction:LEU:40>  (57) 
hydroph_interaction:LEU:40    0
hydroph_interaction:LEU:40    0
Name: 56, dtype: object

>  <hydroph_interaction:TYR:63>  (57) 
hydroph_interaction:TYR:63    0
hydroph_interaction:TYR:63    0
Name: 56, dtype: object

>  <pistack:TYR:63>  (57) 
pistack:TYR:63    0
pistack:TYR:63    0
Name: 56, dtype: object

>  <hbond:TYR:63>  (57) 
hbond:TYR:63    0
hbond:TYR:63    0
Name: 56, dtype: object

>  <hbond:TYR:64>  (57) 
hbond:TYR:64    0
hbond:TYR:64    0
Name: 56, dtype: object

>  <halogenbond:TYR:64>  (57) 
halogenbond:TYR:64    0
halogenbond:TYR:64    0
Name: 56, dtype: object

>  <hydroph_interaction:TYR:64>  (57) 
hydroph_interaction:TYR:64    0
hydroph_interaction:TYR:64    0
Name: 56, dtype: object

>  <hbond:CYS:65>  (57) 
hbond:CYS:65    0
hbond:CYS:65    0
Name: 56, dtype: object

>  <halogenbond:CYS:65>  (57) 
halogenbond:CYS:65    0
halogenbond:CYS:65    0
Name: 56, dtype: object

>  <hbond:SER:66>  (57) 
hbond:SER:66    0
hbond:SER:66    0
Name: 56, dtype: object

>  <hbond:SER:67>  (57) 
hbond:SER:67    0
hbond:SER:67    0
Name: 56, dtype: object

>  <halogenbond:SER:67>  (57) 
halogenbond:SER:67    0
halogenbond:SER:67    0
Name: 56, dtype: object

>  <hydroph_interaction:ARG:68>  (57) 
hydroph_interaction:ARG:68    0
hydroph_interaction:ARG:68    0
Name: 56, dtype: object

>  <hbond:ARG:68>  (57) 
hbond:ARG:68    0
hbond:ARG:68    0
Name: 56, dtype: object

>  <saltbridge:ARG:68>  (57) 
saltbridge:ARG:68    0
saltbridge:ARG:68    0
Name: 56, dtype: object

>  <pication:ARG:68>  (57) 
pication:ARG:68    0
pication:ARG:68    0
Name: 56, dtype: object

>  <hydroph_interaction:TYR:72>  (57) 
hydroph_interaction:TYR:72    0
hydroph_interaction:TYR:72    0
Name: 56, dtype: object

>  <hydroph_interaction:VAL:74>  (57) 
hydroph_interaction:VAL:74    0
hydroph_interaction:VAL:74    0
Name: 56, dtype: object

>  <hydroph_interaction:PHE:76>  (57) 
hydroph_interaction:PHE:76    0
hydroph_interaction:PHE:76    0
Name: 56, dtype: object

>  <hbond:SER:77>  (57) 
hbond:SER:77    0
hbond:SER:77    0
Name: 56, dtype: object

>  <hbond:SER:80>  (57) 
hbond:SER:80    0
hbond:SER:80    0
Name: 56, dtype: object

>  <hbond:LEU:81>  (57) 
hbond:LEU:81    0
hbond:LEU:81    0
Name: 56, dtype: object

>  <halogenbond:LEU:81>  (57) 
halogenbond:LEU:81    0
halogenbond:LEU:81    0
Name: 56, dtype: object

>  <hydroph_interaction:LEU:81>  (57) 
hydroph_interaction:LEU:81    0
hydroph_interaction:LEU:81    0
Name: 56, dtype: object

>  <hydroph_interaction:ILE:82>  (57) 
hydroph_interaction:ILE:82    0
hydroph_interaction:ILE:82    0
Name: 56, dtype: object

>  <hbond:ILE:82>  (57) 
hbond:ILE:82    0
hbond:ILE:82    0
Name: 56, dtype: object

>  <hydroph_interaction:PHE:83>  (57) 
hydroph_interaction:PHE:83    0
hydroph_interaction:PHE:83    0
Name: 56, dtype: object

>  <hbond:PHE:83>  (57) 
hbond:PHE:83    0
hbond:PHE:83    0
Name: 56, dtype: object

>  <halogenbond:PHE:83>  (57) 
halogenbond:PHE:83    0
halogenbond:PHE:83    0
Name: 56, dtype: object

>  <pistack:PHE:83>  (57) 
pistack:PHE:83    0
pistack:PHE:83    0
Name: 56, dtype: object

>  <hydroph_interaction:VAL:84>  (57) 
hydroph_interaction:VAL:84    0
hydroph_interaction:VAL:84    0
Name: 56, dtype: object

>  <hbond:VAL:84>  (57) 
hbond:VAL:84    0
hbond:VAL:84    0
Name: 56, dtype: object

>  <halogenbond:VAL:84>  (57) 
halogenbond:VAL:84    0
halogenbond:VAL:84    0
Name: 56, dtype: object

>  <hydroph_interaction:GLU:85>  (57) 
hydroph_interaction:GLU:85    0
hydroph_interaction:GLU:85    0
Name: 56, dtype: object

>  <hbond:GLU:85>  (57) 
hbond:GLU:85    0
hbond:GLU:85    0
Name: 56, dtype: object

>  <saltbridge:GLU:85>  (57) 
saltbridge:GLU:85    0
saltbridge:GLU:85    0
Name: 56, dtype: object

>  <halogenbond:GLU:85>  (57) 
halogenbond:GLU:85    0
halogenbond:GLU:85    0
Name: 56, dtype: object

>  <hbond:ALA:86>  (57) 
hbond:ALA:86    0
hbond:ALA:86    0
Name: 56, dtype: object

>  <halogenbond:ALA:86>  (57) 
halogenbond:ALA:86    0
halogenbond:ALA:86    0
Name: 56, dtype: object

>  <hydroph_interaction:ALA:86>  (57) 
hydroph_interaction:ALA:86    0
hydroph_interaction:ALA:86    0
Name: 56, dtype: object

>  <hbond:SER:87>  (57) 
hbond:SER:87    0
hbond:SER:87    0
Name: 56, dtype: object

>  <halogenbond:SER:87>  (57) 
halogenbond:SER:87    0
halogenbond:SER:87    0
Name: 56, dtype: object

>  <hbond:GLU:88>  (57) 
hbond:GLU:88    0
hbond:GLU:88    0
Name: 56, dtype: object

>  <hydroph_interaction:GLU:88>  (57) 
hydroph_interaction:GLU:88    0
hydroph_interaction:GLU:88    0
Name: 56, dtype: object

>  <halogenbond:GLU:88>  (57) 
halogenbond:GLU:88    0
halogenbond:GLU:88    0
Name: 56, dtype: object

>  <saltbridge:GLU:88>  (57) 
saltbridge:GLU:88    0
saltbridge:GLU:88    0
Name: 56, dtype: object

>  <hydroph_interaction:TYR:89>  (57) 
hydroph_interaction:TYR:89    1
hydroph_interaction:TYR:89    1
Name: 56, dtype: object

>  <pistack:TYR:89>  (57) 
pistack:TYR:89    0
pistack:TYR:89    0
Name: 56, dtype: object

>  <hbond:TYR:89>  (57) 
hbond:TYR:89    0
hbond:TYR:89    0
Name: 56, dtype: object

>  <halogenbond:TYR:89>  (57) 
halogenbond:TYR:89    0
halogenbond:TYR:89    0
Name: 56, dtype: object

>  <hbond:TYR:90>  (57) 
hbond:TYR:90    0
hbond:TYR:90    0
Name: 56, dtype: object

>  <hydroph_interaction:TYR:90>  (57) 
hydroph_interaction:TYR:90    0
hydroph_interaction:TYR:90    0
Name: 56, dtype: object

>  <pistack:TYR:90>  (57) 
pistack:TYR:90    0
pistack:TYR:90    0
Name: 56, dtype: object

>  <halogenbond:TYR:90>  (57) 
halogenbond:TYR:90    0
halogenbond:TYR:90    0
Name: 56, dtype: object

>  <pication:TYR:90>  (57) 
pication:TYR:90    0
pication:TYR:90    0
Name: 56, dtype: object

>  <hydroph_interaction:PRO:91>  (57) 
hydroph_interaction:PRO:91    0
hydroph_interaction:PRO:91    0
Name: 56, dtype: object

>  <halogenbond:PRO:91>  (57) 
halogenbond:PRO:91    0
halogenbond:PRO:91    0
Name: 56, dtype: object

>  <hbond:PRO:91>  (57) 
hbond:PRO:91    0
hbond:PRO:91    0
Name: 56, dtype: object

>  <hydroph_interaction:ALA:92>  (57) 
hydroph_interaction:ALA:92    0
hydroph_interaction:ALA:92    0
Name: 56, dtype: object

>  <hbond:ARG:93>  (57) 
hbond:ARG:93    0
hbond:ARG:93    0
Name: 56, dtype: object

>  <pication:ARG:93>  (57) 
pication:ARG:93    0
pication:ARG:93    0
Name: 56, dtype: object

>  <saltbridge:ARG:93>  (57) 
saltbridge:ARG:93    0
saltbridge:ARG:93    0
Name: 56, dtype: object

>  <hydroph_interaction:ARG:93>  (57) 
hydroph_interaction:ARG:93    0
hydroph_interaction:ARG:93    0
Name: 56, dtype: object

>  <halogenbond:ARG:93>  (57) 
halogenbond:ARG:93    0
halogenbond:ARG:93    0
Name: 56, dtype: object

>  <hydroph_interaction:TYR:94>  (57) 
hydroph_interaction:TYR:94    0
hydroph_interaction:TYR:94    0
Name: 56, dtype: object

>  <hbond:TYR:94>  (57) 
hbond:TYR:94    0
hbond:TYR:94    0
Name: 56, dtype: object

>  <halogenbond:GLN:95>  (57) 
halogenbond:GLN:95    0
halogenbond:GLN:95    0
Name: 56, dtype: object

>  <hbond:GLN:95>  (57) 
hbond:GLN:95    0
hbond:GLN:95    0
Name: 56, dtype: object

>  <hydroph_interaction:GLN:95>  (57) 
hydroph_interaction:GLN:95    0
hydroph_interaction:GLN:95    0
Name: 56, dtype: object

>  <hbond:SER:96>  (57) 
hbond:SER:96    0
hbond:SER:96    0
Name: 56, dtype: object

>  <hydroph_interaction:LEU:98>  (57) 
hydroph_interaction:LEU:98    0
hydroph_interaction:LEU:98    0
Name: 56, dtype: object

>  <hbond:LEU:98>  (57) 
hbond:LEU:98    0
hbond:LEU:98    0
Name: 56, dtype: object

>  <hbond:MET:99>  (57) 
hbond:MET:99    0
hbond:MET:99    0
Name: 56, dtype: object

>  <hydroph_interaction:MET:99>  (57) 
hydroph_interaction:MET:99    0
hydroph_interaction:MET:99    0
Name: 56, dtype: object

>  <halogenbond:MET:99>  (57) 
halogenbond:MET:99    0
halogenbond:MET:99    0
Name: 56, dtype: object

>  <hydroph_interaction:LEU:100>  (57) 
hydroph_interaction:LEU:100    0
hydroph_interaction:LEU:100    0
Name: 56, dtype: object

>  <hbond:LEU:100>  (57) 
hbond:LEU:100    0
hbond:LEU:100    0
Name: 56, dtype: object

>  <hbond:ALA:101>  (57) 
hbond:ALA:101    0
hbond:ALA:101    0
Name: 56, dtype: object

>  <hydroph_interaction:ALA:101>  (57) 
hydroph_interaction:ALA:101    0
hydroph_interaction:ALA:101    0
Name: 56, dtype: object

>  <hydroph_interaction:VAL:102>  (57) 
hydroph_interaction:VAL:102    0
hydroph_interaction:VAL:102    0
Name: 56, dtype: object

>  <hbond:VAL:102>  (57) 
hbond:VAL:102    0
hbond:VAL:102    0
Name: 56, dtype: object

>  <hbond:GLY:103>  (57) 
hbond:GLY:103    0
hbond:GLY:103    0
Name: 56, dtype: object

>  <halogenbond:GLY:103>  (57) 
halogenbond:GLY:103    0
halogenbond:GLY:103    0
Name: 56, dtype: object

>  <hydroph_interaction:HIS:104>  (57) 
hydroph_interaction:HIS:104    0
hydroph_interaction:HIS:104    0
Name: 56, dtype: object

>  <hbond:HIS:104>  (57) 
hbond:HIS:104    0
hbond:HIS:104    0
Name: 56, dtype: object

>  <saltbridge:HIS:104>  (57) 
saltbridge:HIS:104    0
saltbridge:HIS:104    0
Name: 56, dtype: object

>  <pication:HIS:104>  (57) 
pication:HIS:104    0
pication:HIS:104    0
Name: 56, dtype: object

>  <pistack:HIS:104>  (57) 
pistack:HIS:104    0
pistack:HIS:104    0
Name: 56, dtype: object

>  <halogenbond:HIS:104>  (57) 
halogenbond:HIS:104    0
halogenbond:HIS:104    0
Name: 56, dtype: object

>  <hbond:SER:105>  (57) 
hbond:SER:105    0
hbond:SER:105    0
Name: 56, dtype: object

>  <halogenbond:SER:105>  (57) 
halogenbond:SER:105    0
halogenbond:SER:105    0
Name: 56, dtype: object

>  <hbond:GLU:106>  (57) 
hbond:GLU:106    0
hbond:GLU:106    0
Name: 56, dtype: object

>  <hydroph_interaction:GLU:106>  (57) 
hydroph_interaction:GLU:106    0
hydroph_interaction:GLU:106    0
Name: 56, dtype: object

>  <saltbridge:GLU:106>  (57) 
saltbridge:GLU:106    0
saltbridge:GLU:106    0
Name: 56, dtype: object

>  <halogenbond:GLU:106>  (57) 
halogenbond:GLU:106    0
halogenbond:GLU:106    0
Name: 56, dtype: object

>  <hydroph_interaction:PRO:107>  (57) 
hydroph_interaction:PRO:107    0
hydroph_interaction:PRO:107    0
Name: 56, dtype: object

>  <hbond:PRO:107>  (57) 
hbond:PRO:107    0
hbond:PRO:107    0
Name: 56, dtype: object

>  <halogenbond:PRO:107>  (57) 
halogenbond:PRO:107    0
halogenbond:PRO:107    0
Name: 56, dtype: object

>  <hbond:GLY:108>  (57) 
hbond:GLY:108    0
hbond:GLY:108    0
Name: 56, dtype: object

>  <halogenbond:GLY:108>  (57) 
halogenbond:GLY:108    0
halogenbond:GLY:108    0
Name: 56, dtype: object

>  <hbond:ASP:109>  (57) 
hbond:ASP:109    0
hbond:ASP:109    0
Name: 56, dtype: object

>  <hydroph_interaction:ASP:109>  (57) 
hydroph_interaction:ASP:109    0
hydroph_interaction:ASP:109    0
Name: 56, dtype: object

>  <saltbridge:ASP:109>  (57) 
saltbridge:ASP:109    0
saltbridge:ASP:109    0
Name: 56, dtype: object

>  <hbond:CYS:110>  (57) 
hbond:CYS:110    0
hbond:CYS:110    0
Name: 56, dtype: object

>  <halogenbond:CYS:110>  (57) 
halogenbond:CYS:110    0
halogenbond:CYS:110    0
Name: 56, dtype: object

>  <hbond:GLY:111>  (57) 
hbond:GLY:111    0
hbond:GLY:111    0
Name: 56, dtype: object

>  <hbond:GLY:112>  (57) 
hbond:GLY:112    0
hbond:GLY:112    0
Name: 56, dtype: object

>  <hbond:ILE:113>  (57) 
hbond:ILE:113    0
hbond:ILE:113    0
Name: 56, dtype: object

>  <hydroph_interaction:LEU:114>  (57) 
hydroph_interaction:LEU:114    0
hydroph_interaction:LEU:114    0
Name: 56, dtype: object

>  <hbond:LEU:114>  (57) 
hbond:LEU:114    0
hbond:LEU:114    0
Name: 56, dtype: object

>  <hydroph_interaction:ILE:123>  (57) 
hydroph_interaction:ILE:123    0
hydroph_interaction:ILE:123    0
Name: 56, dtype: object

>  <hbond:ILE:123>  (57) 
hbond:ILE:123    0
hbond:ILE:123    0
Name: 56, dtype: object

>  <hydroph_interaction:VAL:124>  (57) 
hydroph_interaction:VAL:124    0
hydroph_interaction:VAL:124    0
Name: 56, dtype: object

>  <hbond:VAL:124>  (57) 
hbond:VAL:124    0
hbond:VAL:124    0
Name: 56, dtype: object

>  <halogenbond:VAL:124>  (57) 
halogenbond:VAL:124    0
halogenbond:VAL:124    0
Name: 56, dtype: object

>  <hbond:SER:125>  (57) 
hbond:SER:125    1
hbond:SER:125    1
Name: 56, dtype: object

>  <halogenbond:SER:125>  (57) 
halogenbond:SER:125    0
halogenbond:SER:125    0
Name: 56, dtype: object

>  <hydroph_interaction:THR:126>  (57) 
hydroph_interaction:THR:126    0
hydroph_interaction:THR:126    0
Name: 56, dtype: object

>  <hbond:THR:126>  (57) 
hbond:THR:126    0
hbond:THR:126    0
Name: 56, dtype: object

>  <halogenbond:THR:126>  (57) 
halogenbond:THR:126    0
halogenbond:THR:126    0
Name: 56, dtype: object

>  <hbond:GLY:127>  (57) 
hbond:GLY:127    0
hbond:GLY:127    0
Name: 56, dtype: object

>  <halogenbond:GLY:127>  (57) 
halogenbond:GLY:127    0
halogenbond:GLY:127    0
Name: 56, dtype: object

>  <hydroph_interaction:GLY:127>  (57) 
hydroph_interaction:GLY:127    0
hydroph_interaction:GLY:127    0
Name: 56, dtype: object

>  <hbond:GLY:128>  (57) 
hbond:GLY:128    0
hbond:GLY:128    0
Name: 56, dtype: object

>  <halogenbond:GLY:128>  (57) 
halogenbond:GLY:128    0
halogenbond:GLY:128    0
Name: 56, dtype: object

>  <hydroph_interaction:GLY:128>  (57) 
hydroph_interaction:GLY:128    0
hydroph_interaction:GLY:128    0
Name: 56, dtype: object

>  <hbond:ASN:129>  (57) 
hbond:ASN:129    0
hbond:ASN:129    0
Name: 56, dtype: object

>  <hydroph_interaction:ASN:129>  (57) 
hydroph_interaction:ASN:129    0
hydroph_interaction:ASN:129    0
Name: 56, dtype: object

>  <halogenbond:ASN:129>  (57) 
halogenbond:ASN:129    0
halogenbond:ASN:129    0
Name: 56, dtype: object

>  <hbond:GLY:130>  (57) 
hbond:GLY:130    0
hbond:GLY:130    0
Name: 56, dtype: object

>  <hydroph_interaction:LEU:131>  (57) 
hydroph_interaction:LEU:131    0
hydroph_interaction:LEU:131    0
Name: 56, dtype: object

>  <hbond:LEU:131>  (57) 
hbond:LEU:131    0
hbond:LEU:131    0
Name: 56, dtype: object

>  <halogenbond:LEU:131>  (57) 
halogenbond:LEU:131    0
halogenbond:LEU:131    0
Name: 56, dtype: object

>  <hydroph_interaction:VAL:132>  (57) 
hydroph_interaction:VAL:132    0
hydroph_interaction:VAL:132    0
Name: 56, dtype: object

>  <hbond:VAL:132>  (57) 
hbond:VAL:132    0
hbond:VAL:132    0
Name: 56, dtype: object

>  <hbond:GLY:133>  (57) 
hbond:GLY:133    0
hbond:GLY:133    0
Name: 56, dtype: object

>  <halogenbond:GLY:133>  (57) 
halogenbond:GLY:133    0
halogenbond:GLY:133    0
Name: 56, dtype: object

>  <hydroph_interaction:PHE:134>  (57) 
hydroph_interaction:PHE:134    0
hydroph_interaction:PHE:134    0
Name: 56, dtype: object

>  <hbond:PHE:134>  (57) 
hbond:PHE:134    0
hbond:PHE:134    0
Name: 56, dtype: object

>  <pistack:PHE:134>  (57) 
pistack:PHE:134    0
pistack:PHE:134    0
Name: 56, dtype: object

>  <pication:PHE:134>  (57) 
pication:PHE:134    0
pication:PHE:134    0
Name: 56, dtype: object

>  <hydroph_interaction:ALA:135>  (57) 
hydroph_interaction:ALA:135    0
hydroph_interaction:ALA:135    0
Name: 56, dtype: object

>  <hbond:ALA:135>  (57) 
hbond:ALA:135    0
hbond:ALA:135    0
Name: 56, dtype: object

$$$$
Z5089435414
     RDKit          3D

 31 32  0  0  0  0  0  0  0  0999 V2000
   12.8910   15.7700   21.6880 C   0  0  0  0  0  0  0  0  0  0  0  0
   12.0980   14.5070   21.4980 C   0  0  0  0  0  0  0  0  0  0  0  0
   11.2100   14.2730   22.6280 N   0  0  0  0  0  0  0  0  0  0  0  0
   11.8540   14.2040   23.9380 C   0  0  0  0  0  0  0  0  0  0  0  0
    9.9540   13.8020   22.3460 C   0  0  0  0  0  0  0  0  0  0  0  0
    9.2070   14.3190   21.5080 O   0  0  0  0  0  0  0  0  0  0  0  0
    9.4270   12.6010   23.0960 C   0  0  0  0  0  0  0  0  0  0  0  0
   10.0140   11.2980   22.7710 C   0  0  0  0  0  0  0  0  0  0  0  0
    9.6470   10.1260   23.3350 C   0  0  0  0  0  0  0  0  0  0  0  0
   10.2260    8.8300   22.9890 C   0  0  0  0  0  0  0  0  0  0  0  0
    8.6290   10.2050   24.3160 C   0  0  0  0  0  0  0  0  0  0  0  0
    7.9930   11.5460   24.6960 C   0  0  0  0  0  0  0  0  0  0  0  0
    8.4400   12.6730   24.0440 C   0  0  0  0  0  0  0  0  0  0  0  0
    7.7140   13.7140   24.5440 N   0  0  0  0  0  0  0  0  0  0  0  0
    6.8730   13.1760   25.4760 C   0  0  0  0  0  0  0  0  0  0  0  0
    7.0350   11.8650   25.5780 N   0  0  0  0  0  0  0  0  0  0  0  0
   13.5780   15.9570   20.8580 H   0  0  0  0  0  0  0  0  0  0  0  0
   13.4880   15.6890   22.6040 H   0  0  0  0  0  0  0  0  0  0  0  0
   12.2350   16.6450   21.7890 H   0  0  0  0  0  0  0  0  0  0  0  0
   12.7540   13.6460   21.3530 H   0  0  0  0  0  0  0  0  0  0  0  0
   11.4970   14.6050   20.5890 H   0  0  0  0  0  0  0  0  0  0  0  0
   12.5770   13.3750   23.9570 H   0  0  0  0  0  0  0  0  0  0  0  0
   11.1310   13.9490   24.7190 H   0  0  0  0  0  0  0  0  0  0  0  0
   12.3400   15.1560   24.1900 H   0  0  0  0  0  0  0  0  0  0  0  0
   10.7920   11.2680   22.0260 H   0  0  0  0  0  0  0  0  0  0  0  0
    9.9890    8.1160   23.7500 H   0  0  0  0  0  0  0  0  0  0  0  0
   11.3140    8.8660   22.9220 H   0  0  0  0  0  0  0  0  0  0  0  0
    9.8130    8.4880   22.0340 H   0  0  0  0  0  0  0  0  0  0  0  0
    8.2390    9.3430   24.8490 H   0  0  0  0  0  0  0  0  0  0  0  0
    7.8140   14.6950   24.2430 H   0  0  0  0  0  0  0  0  0  0  0  0
    6.1730   13.7750   26.0410 H   0  0  0  0  0  0  0  0  0  0  0  0
  1  2  1  0
  2  3  1  0
  3  4  1  0
  3  5  1  0
  5  6  2  0
  5  7  1  0
  7  8  2  0
  8  9  1  0
  9 10  1  0
  9 11  2  0
 11 12  1  0
 12 13  2  0
 13 14  1  0
 14 15  1  0
 15 16  2  0
 13  7  1  0
 16 12  1  0
  1 17  1  0
  1 18  1  0
  1 19  1  0
  2 20  1  0
  2 21  1  0
  4 22  1  0
  4 23  1  0
  4 24  1  0
  8 25  1  0
 10 26  1  0
 10 27  1  0
 10 28  1  0
 11 29  1  0
 14 30  1  0
 15 31  1  0
A    1
 C1 
A    2
 C2 
A    3
 N1 
A    4
 C3 
A    5
 C4 
A    6
 O1 
A    7
 C5 
A    8
 C6 
A    9
 C7 
A   10
 C8 
A   11
 C9 
A   12
 C10
A   13
 C11
A   14
 N2 
A   15
 C12
A   16
 N3 
A   17
 H1 
A   18
 H2 
A   19
 H3 
A   20
 H4 
A   21
 H5 
A   22
 H6 
A   23
 H7 
A   24
 H8 
A   25
 H9 
A   26
 H10
A   27
 H11
A   28
 H12
A   29
 H13
A   30
 H14
A   31
 H15
M  END
>  <ref_pdb>  (58) 
x0310_0A

>  <ref_mols>  (58) 
x0554_0A,x0732_0A

>  <original SMILES>  (58) 
CCN(C)C(=O)c1cc(C)cc2nc[nH]c12

>  <rationale>  (58) 
info hbond:S87; hydroph_interaction:V124+Y89+Y90; 

>  <intxn_cluster>  (58) 
107

>  <intxn_cluster_rank>  (58) 
16

>  <N_interactions>  (58) 
4

>  <∆∆G>  (58) 
-13.026752

>  <$/mg>  (58) 
163.0

>  <comRMSD>  (58) 
0.972789

>  <N_rotatable_bonds>  (58) 
5

>  <N_analogues_07>  (58) 
3

>  <deep_P1_sidechain>  (58) 
True

>  <farthest_distance_to_substrate>  (58) 
2.175365

>  <hbond:SER:7>  (58) 
hbond:SER:7    0
hbond:SER:7    0
Name: 57, dtype: object

>  <halogenbond:SER:7>  (58) 
halogenbond:SER:7    0
halogenbond:SER:7    0
Name: 57, dtype: object

>  <hbond:GLY:8>  (58) 
hbond:GLY:8    0
hbond:GLY:8    0
Name: 57, dtype: object

>  <hydroph_interaction:ASN:19>  (58) 
hydroph_interaction:ASN:19    0
hydroph_interaction:ASN:19    0
Name: 57, dtype: object

>  <hbond:ASN:19>  (58) 
hbond:ASN:19    0
hbond:ASN:19    0
Name: 57, dtype: object

>  <halogenbond:ASN:19>  (58) 
halogenbond:ASN:19    0
halogenbond:ASN:19    0
Name: 57, dtype: object

>  <hbond:ARG:20>  (58) 
hbond:ARG:20    0
hbond:ARG:20    0
Name: 57, dtype: object

>  <hydroph_interaction:ARG:20>  (58) 
hydroph_interaction:ARG:20    0
hydroph_interaction:ARG:20    0
Name: 57, dtype: object

>  <saltbridge:ARG:20>  (58) 
saltbridge:ARG:20    0
saltbridge:ARG:20    0
Name: 57, dtype: object

>  <halogenbond:ARG:20>  (58) 
halogenbond:ARG:20    0
halogenbond:ARG:20    0
Name: 57, dtype: object

>  <pication:ARG:20>  (58) 
pication:ARG:20    0
pication:ARG:20    0
Name: 57, dtype: object

>  <hbond:HIS:21>  (58) 
hbond:HIS:21    0
hbond:HIS:21    0
Name: 57, dtype: object

>  <hydroph_interaction:HIS:21>  (58) 
hydroph_interaction:HIS:21    0
hydroph_interaction:HIS:21    0
Name: 57, dtype: object

>  <saltbridge:HIS:21>  (58) 
saltbridge:HIS:21    0
saltbridge:HIS:21    0
Name: 57, dtype: object

>  <pistack:HIS:21>  (58) 
pistack:HIS:21    0
pistack:HIS:21    0
Name: 57, dtype: object

>  <pication:HIS:21>  (58) 
pication:HIS:21    0
pication:HIS:21    0
Name: 57, dtype: object

>  <halogenbond:HIS:21>  (58) 
halogenbond:HIS:21    0
halogenbond:HIS:21    0
Name: 57, dtype: object

>  <hydroph_interaction:LEU:22>  (58) 
hydroph_interaction:LEU:22    0
hydroph_interaction:LEU:22    0
Name: 57, dtype: object

>  <hbond:LEU:22>  (58) 
hbond:LEU:22    0
hbond:LEU:22    0
Name: 57, dtype: object

>  <hydroph_interaction:TRP:28>  (58) 
hydroph_interaction:TRP:28    0
hydroph_interaction:TRP:28    0
Name: 57, dtype: object

>  <hbond:SER:36>  (58) 
hbond:SER:36    0
hbond:SER:36    0
Name: 57, dtype: object

>  <halogenbond:SER:36>  (58) 
halogenbond:SER:36    0
halogenbond:SER:36    0
Name: 57, dtype: object

>  <hbond:ARG:38>  (58) 
hbond:ARG:38    0
hbond:ARG:38    0
Name: 57, dtype: object

>  <halogenbond:ARG:38>  (58) 
halogenbond:ARG:38    0
halogenbond:ARG:38    0
Name: 57, dtype: object

>  <hbond:ASP:39>  (58) 
hbond:ASP:39    0
hbond:ASP:39    0
Name: 57, dtype: object

>  <saltbridge:ASP:39>  (58) 
saltbridge:ASP:39    0
saltbridge:ASP:39    0
Name: 57, dtype: object

>  <hydroph_interaction:ASP:39>  (58) 
hydroph_interaction:ASP:39    0
hydroph_interaction:ASP:39    0
Name: 57, dtype: object

>  <halogenbond:ASP:39>  (58) 
halogenbond:ASP:39    0
halogenbond:ASP:39    0
Name: 57, dtype: object

>  <hydroph_interaction:LEU:40>  (58) 
hydroph_interaction:LEU:40    0
hydroph_interaction:LEU:40    0
Name: 57, dtype: object

>  <hydroph_interaction:TYR:63>  (58) 
hydroph_interaction:TYR:63    0
hydroph_interaction:TYR:63    0
Name: 57, dtype: object

>  <pistack:TYR:63>  (58) 
pistack:TYR:63    0
pistack:TYR:63    0
Name: 57, dtype: object

>  <hbond:TYR:63>  (58) 
hbond:TYR:63    0
hbond:TYR:63    0
Name: 57, dtype: object

>  <hbond:TYR:64>  (58) 
hbond:TYR:64    0
hbond:TYR:64    0
Name: 57, dtype: object

>  <halogenbond:TYR:64>  (58) 
halogenbond:TYR:64    0
halogenbond:TYR:64    0
Name: 57, dtype: object

>  <hydroph_interaction:TYR:64>  (58) 
hydroph_interaction:TYR:64    0
hydroph_interaction:TYR:64    0
Name: 57, dtype: object

>  <hbond:CYS:65>  (58) 
hbond:CYS:65    0
hbond:CYS:65    0
Name: 57, dtype: object

>  <halogenbond:CYS:65>  (58) 
halogenbond:CYS:65    0
halogenbond:CYS:65    0
Name: 57, dtype: object

>  <hbond:SER:66>  (58) 
hbond:SER:66    0
hbond:SER:66    0
Name: 57, dtype: object

>  <hbond:SER:67>  (58) 
hbond:SER:67    0
hbond:SER:67    0
Name: 57, dtype: object

>  <halogenbond:SER:67>  (58) 
halogenbond:SER:67    0
halogenbond:SER:67    0
Name: 57, dtype: object

>  <hydroph_interaction:ARG:68>  (58) 
hydroph_interaction:ARG:68    0
hydroph_interaction:ARG:68    0
Name: 57, dtype: object

>  <hbond:ARG:68>  (58) 
hbond:ARG:68    0
hbond:ARG:68    0
Name: 57, dtype: object

>  <saltbridge:ARG:68>  (58) 
saltbridge:ARG:68    0
saltbridge:ARG:68    0
Name: 57, dtype: object

>  <pication:ARG:68>  (58) 
pication:ARG:68    0
pication:ARG:68    0
Name: 57, dtype: object

>  <hydroph_interaction:TYR:72>  (58) 
hydroph_interaction:TYR:72    0
hydroph_interaction:TYR:72    0
Name: 57, dtype: object

>  <hydroph_interaction:VAL:74>  (58) 
hydroph_interaction:VAL:74    0
hydroph_interaction:VAL:74    0
Name: 57, dtype: object

>  <hydroph_interaction:PHE:76>  (58) 
hydroph_interaction:PHE:76    0
hydroph_interaction:PHE:76    0
Name: 57, dtype: object

>  <hbond:SER:77>  (58) 
hbond:SER:77    0
hbond:SER:77    0
Name: 57, dtype: object

>  <hbond:SER:80>  (58) 
hbond:SER:80    0
hbond:SER:80    0
Name: 57, dtype: object

>  <hbond:LEU:81>  (58) 
hbond:LEU:81    0
hbond:LEU:81    0
Name: 57, dtype: object

>  <halogenbond:LEU:81>  (58) 
halogenbond:LEU:81    0
halogenbond:LEU:81    0
Name: 57, dtype: object

>  <hydroph_interaction:LEU:81>  (58) 
hydroph_interaction:LEU:81    0
hydroph_interaction:LEU:81    0
Name: 57, dtype: object

>  <hydroph_interaction:ILE:82>  (58) 
hydroph_interaction:ILE:82    0
hydroph_interaction:ILE:82    0
Name: 57, dtype: object

>  <hbond:ILE:82>  (58) 
hbond:ILE:82    0
hbond:ILE:82    0
Name: 57, dtype: object

>  <hydroph_interaction:PHE:83>  (58) 
hydroph_interaction:PHE:83    0
hydroph_interaction:PHE:83    0
Name: 57, dtype: object

>  <hbond:PHE:83>  (58) 
hbond:PHE:83    0
hbond:PHE:83    0
Name: 57, dtype: object

>  <halogenbond:PHE:83>  (58) 
halogenbond:PHE:83    0
halogenbond:PHE:83    0
Name: 57, dtype: object

>  <pistack:PHE:83>  (58) 
pistack:PHE:83    0
pistack:PHE:83    0
Name: 57, dtype: object

>  <hydroph_interaction:VAL:84>  (58) 
hydroph_interaction:VAL:84    0
hydroph_interaction:VAL:84    0
Name: 57, dtype: object

>  <hbond:VAL:84>  (58) 
hbond:VAL:84    0
hbond:VAL:84    0
Name: 57, dtype: object

>  <halogenbond:VAL:84>  (58) 
halogenbond:VAL:84    0
halogenbond:VAL:84    0
Name: 57, dtype: object

>  <hydroph_interaction:GLU:85>  (58) 
hydroph_interaction:GLU:85    0
hydroph_interaction:GLU:85    0
Name: 57, dtype: object

>  <hbond:GLU:85>  (58) 
hbond:GLU:85    0
hbond:GLU:85    0
Name: 57, dtype: object

>  <saltbridge:GLU:85>  (58) 
saltbridge:GLU:85    0
saltbridge:GLU:85    0
Name: 57, dtype: object

>  <halogenbond:GLU:85>  (58) 
halogenbond:GLU:85    0
halogenbond:GLU:85    0
Name: 57, dtype: object

>  <hbond:ALA:86>  (58) 
hbond:ALA:86    0
hbond:ALA:86    0
Name: 57, dtype: object

>  <halogenbond:ALA:86>  (58) 
halogenbond:ALA:86    0
halogenbond:ALA:86    0
Name: 57, dtype: object

>  <hydroph_interaction:ALA:86>  (58) 
hydroph_interaction:ALA:86    0
hydroph_interaction:ALA:86    0
Name: 57, dtype: object

>  <hbond:SER:87>  (58) 
hbond:SER:87    1
hbond:SER:87    1
Name: 57, dtype: object

>  <halogenbond:SER:87>  (58) 
halogenbond:SER:87    0
halogenbond:SER:87    0
Name: 57, dtype: object

>  <hbond:GLU:88>  (58) 
hbond:GLU:88    0
hbond:GLU:88    0
Name: 57, dtype: object

>  <hydroph_interaction:GLU:88>  (58) 
hydroph_interaction:GLU:88    0
hydroph_interaction:GLU:88    0
Name: 57, dtype: object

>  <halogenbond:GLU:88>  (58) 
halogenbond:GLU:88    0
halogenbond:GLU:88    0
Name: 57, dtype: object

>  <saltbridge:GLU:88>  (58) 
saltbridge:GLU:88    0
saltbridge:GLU:88    0
Name: 57, dtype: object

>  <hydroph_interaction:TYR:89>  (58) 
hydroph_interaction:TYR:89    1
hydroph_interaction:TYR:89    1
Name: 57, dtype: object

>  <pistack:TYR:89>  (58) 
pistack:TYR:89    0
pistack:TYR:89    0
Name: 57, dtype: object

>  <hbond:TYR:89>  (58) 
hbond:TYR:89    0
hbond:TYR:89    0
Name: 57, dtype: object

>  <halogenbond:TYR:89>  (58) 
halogenbond:TYR:89    0
halogenbond:TYR:89    0
Name: 57, dtype: object

>  <hbond:TYR:90>  (58) 
hbond:TYR:90    0
hbond:TYR:90    0
Name: 57, dtype: object

>  <hydroph_interaction:TYR:90>  (58) 
hydroph_interaction:TYR:90    1
hydroph_interaction:TYR:90    1
Name: 57, dtype: object

>  <pistack:TYR:90>  (58) 
pistack:TYR:90    0
pistack:TYR:90    0
Name: 57, dtype: object

>  <halogenbond:TYR:90>  (58) 
halogenbond:TYR:90    0
halogenbond:TYR:90    0
Name: 57, dtype: object

>  <pication:TYR:90>  (58) 
pication:TYR:90    0
pication:TYR:90    0
Name: 57, dtype: object

>  <hydroph_interaction:PRO:91>  (58) 
hydroph_interaction:PRO:91    0
hydroph_interaction:PRO:91    0
Name: 57, dtype: object

>  <halogenbond:PRO:91>  (58) 
halogenbond:PRO:91    0
halogenbond:PRO:91    0
Name: 57, dtype: object

>  <hbond:PRO:91>  (58) 
hbond:PRO:91    0
hbond:PRO:91    0
Name: 57, dtype: object

>  <hydroph_interaction:ALA:92>  (58) 
hydroph_interaction:ALA:92    0
hydroph_interaction:ALA:92    0
Name: 57, dtype: object

>  <hbond:ARG:93>  (58) 
hbond:ARG:93    0
hbond:ARG:93    0
Name: 57, dtype: object

>  <pication:ARG:93>  (58) 
pication:ARG:93    0
pication:ARG:93    0
Name: 57, dtype: object

>  <saltbridge:ARG:93>  (58) 
saltbridge:ARG:93    0
saltbridge:ARG:93    0
Name: 57, dtype: object

>  <hydroph_interaction:ARG:93>  (58) 
hydroph_interaction:ARG:93    0
hydroph_interaction:ARG:93    0
Name: 57, dtype: object

>  <halogenbond:ARG:93>  (58) 
halogenbond:ARG:93    0
halogenbond:ARG:93    0
Name: 57, dtype: object

>  <hydroph_interaction:TYR:94>  (58) 
hydroph_interaction:TYR:94    0
hydroph_interaction:TYR:94    0
Name: 57, dtype: object

>  <hbond:TYR:94>  (58) 
hbond:TYR:94    0
hbond:TYR:94    0
Name: 57, dtype: object

>  <halogenbond:GLN:95>  (58) 
halogenbond:GLN:95    0
halogenbond:GLN:95    0
Name: 57, dtype: object

>  <hbond:GLN:95>  (58) 
hbond:GLN:95    0
hbond:GLN:95    0
Name: 57, dtype: object

>  <hydroph_interaction:GLN:95>  (58) 
hydroph_interaction:GLN:95    0
hydroph_interaction:GLN:95    0
Name: 57, dtype: object

>  <hbond:SER:96>  (58) 
hbond:SER:96    0
hbond:SER:96    0
Name: 57, dtype: object

>  <hydroph_interaction:LEU:98>  (58) 
hydroph_interaction:LEU:98    0
hydroph_interaction:LEU:98    0
Name: 57, dtype: object

>  <hbond:LEU:98>  (58) 
hbond:LEU:98    0
hbond:LEU:98    0
Name: 57, dtype: object

>  <hbond:MET:99>  (58) 
hbond:MET:99    0
hbond:MET:99    0
Name: 57, dtype: object

>  <hydroph_interaction:MET:99>  (58) 
hydroph_interaction:MET:99    0
hydroph_interaction:MET:99    0
Name: 57, dtype: object

>  <halogenbond:MET:99>  (58) 
halogenbond:MET:99    0
halogenbond:MET:99    0
Name: 57, dtype: object

>  <hydroph_interaction:LEU:100>  (58) 
hydroph_interaction:LEU:100    0
hydroph_interaction:LEU:100    0
Name: 57, dtype: object

>  <hbond:LEU:100>  (58) 
hbond:LEU:100    0
hbond:LEU:100    0
Name: 57, dtype: object

>  <hbond:ALA:101>  (58) 
hbond:ALA:101    0
hbond:ALA:101    0
Name: 57, dtype: object

>  <hydroph_interaction:ALA:101>  (58) 
hydroph_interaction:ALA:101    0
hydroph_interaction:ALA:101    0
Name: 57, dtype: object

>  <hydroph_interaction:VAL:102>  (58) 
hydroph_interaction:VAL:102    0
hydroph_interaction:VAL:102    0
Name: 57, dtype: object

>  <hbond:VAL:102>  (58) 
hbond:VAL:102    0
hbond:VAL:102    0
Name: 57, dtype: object

>  <hbond:GLY:103>  (58) 
hbond:GLY:103    0
hbond:GLY:103    0
Name: 57, dtype: object

>  <halogenbond:GLY:103>  (58) 
halogenbond:GLY:103    0
halogenbond:GLY:103    0
Name: 57, dtype: object

>  <hydroph_interaction:HIS:104>  (58) 
hydroph_interaction:HIS:104    0
hydroph_interaction:HIS:104    0
Name: 57, dtype: object

>  <hbond:HIS:104>  (58) 
hbond:HIS:104    0
hbond:HIS:104    0
Name: 57, dtype: object

>  <saltbridge:HIS:104>  (58) 
saltbridge:HIS:104    0
saltbridge:HIS:104    0
Name: 57, dtype: object

>  <pication:HIS:104>  (58) 
pication:HIS:104    0
pication:HIS:104    0
Name: 57, dtype: object

>  <pistack:HIS:104>  (58) 
pistack:HIS:104    0
pistack:HIS:104    0
Name: 57, dtype: object

>  <halogenbond:HIS:104>  (58) 
halogenbond:HIS:104    0
halogenbond:HIS:104    0
Name: 57, dtype: object

>  <hbond:SER:105>  (58) 
hbond:SER:105    0
hbond:SER:105    0
Name: 57, dtype: object

>  <halogenbond:SER:105>  (58) 
halogenbond:SER:105    0
halogenbond:SER:105    0
Name: 57, dtype: object

>  <hbond:GLU:106>  (58) 
hbond:GLU:106    0
hbond:GLU:106    0
Name: 57, dtype: object

>  <hydroph_interaction:GLU:106>  (58) 
hydroph_interaction:GLU:106    0
hydroph_interaction:GLU:106    0
Name: 57, dtype: object

>  <saltbridge:GLU:106>  (58) 
saltbridge:GLU:106    0
saltbridge:GLU:106    0
Name: 57, dtype: object

>  <halogenbond:GLU:106>  (58) 
halogenbond:GLU:106    0
halogenbond:GLU:106    0
Name: 57, dtype: object

>  <hydroph_interaction:PRO:107>  (58) 
hydroph_interaction:PRO:107    0
hydroph_interaction:PRO:107    0
Name: 57, dtype: object

>  <hbond:PRO:107>  (58) 
hbond:PRO:107    0
hbond:PRO:107    0
Name: 57, dtype: object

>  <halogenbond:PRO:107>  (58) 
halogenbond:PRO:107    0
halogenbond:PRO:107    0
Name: 57, dtype: object

>  <hbond:GLY:108>  (58) 
hbond:GLY:108    0
hbond:GLY:108    0
Name: 57, dtype: object

>  <halogenbond:GLY:108>  (58) 
halogenbond:GLY:108    0
halogenbond:GLY:108    0
Name: 57, dtype: object

>  <hbond:ASP:109>  (58) 
hbond:ASP:109    0
hbond:ASP:109    0
Name: 57, dtype: object

>  <hydroph_interaction:ASP:109>  (58) 
hydroph_interaction:ASP:109    0
hydroph_interaction:ASP:109    0
Name: 57, dtype: object

>  <saltbridge:ASP:109>  (58) 
saltbridge:ASP:109    0
saltbridge:ASP:109    0
Name: 57, dtype: object

>  <hbond:CYS:110>  (58) 
hbond:CYS:110    0
hbond:CYS:110    0
Name: 57, dtype: object

>  <halogenbond:CYS:110>  (58) 
halogenbond:CYS:110    0
halogenbond:CYS:110    0
Name: 57, dtype: object

>  <hbond:GLY:111>  (58) 
hbond:GLY:111    0
hbond:GLY:111    0
Name: 57, dtype: object

>  <hbond:GLY:112>  (58) 
hbond:GLY:112    0
hbond:GLY:112    0
Name: 57, dtype: object

>  <hbond:ILE:113>  (58) 
hbond:ILE:113    0
hbond:ILE:113    0
Name: 57, dtype: object

>  <hydroph_interaction:LEU:114>  (58) 
hydroph_interaction:LEU:114    0
hydroph_interaction:LEU:114    0
Name: 57, dtype: object

>  <hbond:LEU:114>  (58) 
hbond:LEU:114    0
hbond:LEU:114    0
Name: 57, dtype: object

>  <hydroph_interaction:ILE:123>  (58) 
hydroph_interaction:ILE:123    0
hydroph_interaction:ILE:123    0
Name: 57, dtype: object

>  <hbond:ILE:123>  (58) 
hbond:ILE:123    0
hbond:ILE:123    0
Name: 57, dtype: object

>  <hydroph_interaction:VAL:124>  (58) 
hydroph_interaction:VAL:124    1
hydroph_interaction:VAL:124    1
Name: 57, dtype: object

>  <hbond:VAL:124>  (58) 
hbond:VAL:124    0
hbond:VAL:124    0
Name: 57, dtype: object

>  <halogenbond:VAL:124>  (58) 
halogenbond:VAL:124    0
halogenbond:VAL:124    0
Name: 57, dtype: object

>  <hbond:SER:125>  (58) 
hbond:SER:125    0
hbond:SER:125    0
Name: 57, dtype: object

>  <halogenbond:SER:125>  (58) 
halogenbond:SER:125    0
halogenbond:SER:125    0
Name: 57, dtype: object

>  <hydroph_interaction:THR:126>  (58) 
hydroph_interaction:THR:126    0
hydroph_interaction:THR:126    0
Name: 57, dtype: object

>  <hbond:THR:126>  (58) 
hbond:THR:126    0
hbond:THR:126    0
Name: 57, dtype: object

>  <halogenbond:THR:126>  (58) 
halogenbond:THR:126    0
halogenbond:THR:126    0
Name: 57, dtype: object

>  <hbond:GLY:127>  (58) 
hbond:GLY:127    0
hbond:GLY:127    0
Name: 57, dtype: object

>  <halogenbond:GLY:127>  (58) 
halogenbond:GLY:127    0
halogenbond:GLY:127    0
Name: 57, dtype: object

>  <hydroph_interaction:GLY:127>  (58) 
hydroph_interaction:GLY:127    0
hydroph_interaction:GLY:127    0
Name: 57, dtype: object

>  <hbond:GLY:128>  (58) 
hbond:GLY:128    0
hbond:GLY:128    0
Name: 57, dtype: object

>  <halogenbond:GLY:128>  (58) 
halogenbond:GLY:128    0
halogenbond:GLY:128    0
Name: 57, dtype: object

>  <hydroph_interaction:GLY:128>  (58) 
hydroph_interaction:GLY:128    0
hydroph_interaction:GLY:128    0
Name: 57, dtype: object

>  <hbond:ASN:129>  (58) 
hbond:ASN:129    0
hbond:ASN:129    0
Name: 57, dtype: object

>  <hydroph_interaction:ASN:129>  (58) 
hydroph_interaction:ASN:129    0
hydroph_interaction:ASN:129    0
Name: 57, dtype: object

>  <halogenbond:ASN:129>  (58) 
halogenbond:ASN:129    0
halogenbond:ASN:129    0
Name: 57, dtype: object

>  <hbond:GLY:130>  (58) 
hbond:GLY:130    0
hbond:GLY:130    0
Name: 57, dtype: object

>  <hydroph_interaction:LEU:131>  (58) 
hydroph_interaction:LEU:131    0
hydroph_interaction:LEU:131    0
Name: 57, dtype: object

>  <hbond:LEU:131>  (58) 
hbond:LEU:131    0
hbond:LEU:131    0
Name: 57, dtype: object

>  <halogenbond:LEU:131>  (58) 
halogenbond:LEU:131    0
halogenbond:LEU:131    0
Name: 57, dtype: object

>  <hydroph_interaction:VAL:132>  (58) 
hydroph_interaction:VAL:132    0
hydroph_interaction:VAL:132    0
Name: 57, dtype: object

>  <hbond:VAL:132>  (58) 
hbond:VAL:132    0
hbond:VAL:132    0
Name: 57, dtype: object

>  <hbond:GLY:133>  (58) 
hbond:GLY:133    0
hbond:GLY:133    0
Name: 57, dtype: object

>  <halogenbond:GLY:133>  (58) 
halogenbond:GLY:133    0
halogenbond:GLY:133    0
Name: 57, dtype: object

>  <hydroph_interaction:PHE:134>  (58) 
hydroph_interaction:PHE:134    0
hydroph_interaction:PHE:134    0
Name: 57, dtype: object

>  <hbond:PHE:134>  (58) 
hbond:PHE:134    0
hbond:PHE:134    0
Name: 57, dtype: object

>  <pistack:PHE:134>  (58) 
pistack:PHE:134    0
pistack:PHE:134    0
Name: 57, dtype: object

>  <pication:PHE:134>  (58) 
pication:PHE:134    0
pication:PHE:134    0
Name: 57, dtype: object

>  <hydroph_interaction:ALA:135>  (58) 
hydroph_interaction:ALA:135    0
hydroph_interaction:ALA:135    0
Name: 57, dtype: object

>  <hbond:ALA:135>  (58) 
hbond:ALA:135    0
hbond:ALA:135    0
Name: 57, dtype: object

$$$$
Z1607665206
     RDKit          3D

 33 33  0  0  0  0  0  0  0  0999 V2000
    2.6960   11.4160   20.3100 C   0  0  0  0  0  0  0  0  0  0  0  0
    3.6550   12.5660   20.1020 C   0  0  0  0  0  0  0  0  0  0  0  0
    3.2930   13.9990   21.1270 S   0  0  0  0  0  6  0  0  0  0  0  0
    2.5940   13.5680   22.3170 O   0  0  0  0  0  0  0  0  0  0  0  0
    2.6370   14.9090   20.2320 O   0  0  0  0  0  0  0  0  0  0  0  0
    4.9280   14.6480   21.5780 C   0  0  0  0  0  0  0  0  0  0  0  0
    5.2100   14.9070   22.9380 C   0  0  0  0  0  0  0  0  0  0  0  0
    6.9560   14.7980   23.5390 S   0  0  0  0  0  0  0  0  0  0  0  0
    7.0830   13.5910   24.9230 C   0  0  0  0  0  0  0  0  0  0  0  0
    7.9490   12.4380   24.4450 C   0  0  0  0  0  0  0  0  0  0  0  0
    9.0220   12.7400   23.5200 C   0  0  0  0  0  0  0  0  0  0  0  0
    9.8320   11.6280   23.0320 C   0  0  0  0  0  0  0  0  0  0  0  0
    9.5000   10.2470   23.5160 C   0  0  0  0  0  0  0  0  0  0  0  0
   10.2370    9.1790   23.0580 C   0  0  0  0  0  0  0  0  0  0  0  0
    8.4390   10.1480   24.4170 C   0  0  0  0  0  0  0  0  0  0  0  0
    7.6800   11.1800   24.8820 N   0  0  0  0  0  0  0  0  0  0  0  0
    3.2620   10.4870   20.4230 H   0  0  0  0  0  0  0  0  0  0  0  0
    2.0350   11.3140   19.4460 H   0  0  0  0  0  0  0  0  0  0  0  0
    2.1120   11.5760   21.2210 H   0  0  0  0  0  0  0  0  0  0  0  0
    3.6390   12.8850   19.0510 H   0  0  0  0  0  0  0  0  0  0  0  0
    4.6790   12.2480   20.3050 H   0  0  0  0  0  0  0  0  0  0  0  0
    5.6460   13.9020   21.2140 H   0  0  0  0  0  0  0  0  0  0  0  0
    5.0910   15.5590   20.9950 H   0  0  0  0  0  0  0  0  0  0  0  0
    4.5910   14.2830   23.5980 H   0  0  0  0  0  0  0  0  0  0  0  0
    4.9410   15.9350   23.1670 H   0  0  0  0  0  0  0  0  0  0  0  0
    7.5520   14.0980   25.7780 H   0  0  0  0  0  0  0  0  0  0  0  0
    6.1010   13.2400   25.2660 H   0  0  0  0  0  0  0  0  0  0  0  0
    9.2140   13.7580   23.1950 H   0  0  0  0  0  0  0  0  0  0  0  0
   10.6310   11.8910   22.3330 H   0  0  0  0  0  0  0  0  0  0  0  0
    9.9060    8.2850   23.5640 H   0  0  0  0  0  0  0  0  0  0  0  0
   10.1330    9.0400   21.9820 H   0  0  0  0  0  0  0  0  0  0  0  0
   11.2950    9.3160   23.2960 H   0  0  0  0  0  0  0  0  0  0  0  0
    8.1450    9.1960   24.8070 H   0  0  0  0  0  0  0  0  0  0  0  0
  1  2  1  0
  2  3  1  0
  3  4  2  0
  3  5  2  0
  3  6  1  0
  6  7  1  0
  7  8  1  0
  8  9  1  0
  9 10  1  0
 10 11  2  0
 11 12  1  0
 12 13  2  0
 13 14  1  0
 13 15  1  0
 15 16  2  0
 16 10  1  0
  1 17  1  0
  1 18  1  0
  1 19  1  0
  2 20  1  0
  2 21  1  0
  6 22  1  0
  6 23  1  0
  7 24  1  0
  7 25  1  0
  9 26  1  0
  9 27  1  0
 11 28  1  0
 12 29  1  0
 14 30  1  0
 14 31  1  0
 14 32  1  0
 15 33  1  0
A    1
 C1 
A    2
 C2 
A    3
 S1 
A    4
 O1 
A    5
 O2 
A    6
 C3 
A    7
 C4 
A    8
 S2 
A    9
 C5 
A   10
 C6 
A   11
 C7 
A   12
 C8 
A   13
 C9 
A   14
 C10
A   15
 C11
A   16
 N1 
A   17
 H1 
A   18
 H2 
A   19
 H3 
A   20
 H4 
A   21
 H5 
A   22
 H6 
A   23
 H7 
A   24
 H8 
A   25
 H9 
A   26
 H10
A   27
 H11
A   28
 H12
A   29
 H13
A   30
 H14
A   31
 H15
A   32
 H16
A   33
 H17
M  END
>  <ref_pdb>  (59) 
x0310_0A

>  <ref_mols>  (59) 
x0416_0A,x0365_0A

>  <original SMILES>  (59) 
CCS(=O)(=O)CCSCc1ccc(C)cn1

>  <rationale>  (59) 
info hydroph_interaction:V124+L131; 

>  <intxn_cluster>  (59) 
101

>  <intxn_cluster_rank>  (59) 
16

>  <N_interactions>  (59) 
2

>  <∆∆G>  (59) 
-10.92727

>  <$/mg>  (59) 
163.0

>  <comRMSD>  (59) 
0.670968

>  <N_rotatable_bonds>  (59) 
8

>  <N_analogues_07>  (59) 
0

>  <deep_P1_sidechain>  (59) 
True

>  <farthest_distance_to_substrate>  (59) 
2.353648

>  <hbond:SER:7>  (59) 
hbond:SER:7    0
hbond:SER:7    0
Name: 58, dtype: object

>  <halogenbond:SER:7>  (59) 
halogenbond:SER:7    0
halogenbond:SER:7    0
Name: 58, dtype: object

>  <hbond:GLY:8>  (59) 
hbond:GLY:8    0
hbond:GLY:8    0
Name: 58, dtype: object

>  <hydroph_interaction:ASN:19>  (59) 
hydroph_interaction:ASN:19    0
hydroph_interaction:ASN:19    0
Name: 58, dtype: object

>  <hbond:ASN:19>  (59) 
hbond:ASN:19    0
hbond:ASN:19    0
Name: 58, dtype: object

>  <halogenbond:ASN:19>  (59) 
halogenbond:ASN:19    0
halogenbond:ASN:19    0
Name: 58, dtype: object

>  <hbond:ARG:20>  (59) 
hbond:ARG:20    0
hbond:ARG:20    0
Name: 58, dtype: object

>  <hydroph_interaction:ARG:20>  (59) 
hydroph_interaction:ARG:20    0
hydroph_interaction:ARG:20    0
Name: 58, dtype: object

>  <saltbridge:ARG:20>  (59) 
saltbridge:ARG:20    0
saltbridge:ARG:20    0
Name: 58, dtype: object

>  <halogenbond:ARG:20>  (59) 
halogenbond:ARG:20    0
halogenbond:ARG:20    0
Name: 58, dtype: object

>  <pication:ARG:20>  (59) 
pication:ARG:20    0
pication:ARG:20    0
Name: 58, dtype: object

>  <hbond:HIS:21>  (59) 
hbond:HIS:21    0
hbond:HIS:21    0
Name: 58, dtype: object

>  <hydroph_interaction:HIS:21>  (59) 
hydroph_interaction:HIS:21    0
hydroph_interaction:HIS:21    0
Name: 58, dtype: object

>  <saltbridge:HIS:21>  (59) 
saltbridge:HIS:21    0
saltbridge:HIS:21    0
Name: 58, dtype: object

>  <pistack:HIS:21>  (59) 
pistack:HIS:21    0
pistack:HIS:21    0
Name: 58, dtype: object

>  <pication:HIS:21>  (59) 
pication:HIS:21    0
pication:HIS:21    0
Name: 58, dtype: object

>  <halogenbond:HIS:21>  (59) 
halogenbond:HIS:21    0
halogenbond:HIS:21    0
Name: 58, dtype: object

>  <hydroph_interaction:LEU:22>  (59) 
hydroph_interaction:LEU:22    0
hydroph_interaction:LEU:22    0
Name: 58, dtype: object

>  <hbond:LEU:22>  (59) 
hbond:LEU:22    0
hbond:LEU:22    0
Name: 58, dtype: object

>  <hydroph_interaction:TRP:28>  (59) 
hydroph_interaction:TRP:28    0
hydroph_interaction:TRP:28    0
Name: 58, dtype: object

>  <hbond:SER:36>  (59) 
hbond:SER:36    0
hbond:SER:36    0
Name: 58, dtype: object

>  <halogenbond:SER:36>  (59) 
halogenbond:SER:36    0
halogenbond:SER:36    0
Name: 58, dtype: object

>  <hbond:ARG:38>  (59) 
hbond:ARG:38    0
hbond:ARG:38    0
Name: 58, dtype: object

>  <halogenbond:ARG:38>  (59) 
halogenbond:ARG:38    0
halogenbond:ARG:38    0
Name: 58, dtype: object

>  <hbond:ASP:39>  (59) 
hbond:ASP:39    0
hbond:ASP:39    0
Name: 58, dtype: object

>  <saltbridge:ASP:39>  (59) 
saltbridge:ASP:39    0
saltbridge:ASP:39    0
Name: 58, dtype: object

>  <hydroph_interaction:ASP:39>  (59) 
hydroph_interaction:ASP:39    0
hydroph_interaction:ASP:39    0
Name: 58, dtype: object

>  <halogenbond:ASP:39>  (59) 
halogenbond:ASP:39    0
halogenbond:ASP:39    0
Name: 58, dtype: object

>  <hydroph_interaction:LEU:40>  (59) 
hydroph_interaction:LEU:40    0
hydroph_interaction:LEU:40    0
Name: 58, dtype: object

>  <hydroph_interaction:TYR:63>  (59) 
hydroph_interaction:TYR:63    0
hydroph_interaction:TYR:63    0
Name: 58, dtype: object

>  <pistack:TYR:63>  (59) 
pistack:TYR:63    0
pistack:TYR:63    0
Name: 58, dtype: object

>  <hbond:TYR:63>  (59) 
hbond:TYR:63    0
hbond:TYR:63    0
Name: 58, dtype: object

>  <hbond:TYR:64>  (59) 
hbond:TYR:64    0
hbond:TYR:64    0
Name: 58, dtype: object

>  <halogenbond:TYR:64>  (59) 
halogenbond:TYR:64    0
halogenbond:TYR:64    0
Name: 58, dtype: object

>  <hydroph_interaction:TYR:64>  (59) 
hydroph_interaction:TYR:64    0
hydroph_interaction:TYR:64    0
Name: 58, dtype: object

>  <hbond:CYS:65>  (59) 
hbond:CYS:65    0
hbond:CYS:65    0
Name: 58, dtype: object

>  <halogenbond:CYS:65>  (59) 
halogenbond:CYS:65    0
halogenbond:CYS:65    0
Name: 58, dtype: object

>  <hbond:SER:66>  (59) 
hbond:SER:66    0
hbond:SER:66    0
Name: 58, dtype: object

>  <hbond:SER:67>  (59) 
hbond:SER:67    0
hbond:SER:67    0
Name: 58, dtype: object

>  <halogenbond:SER:67>  (59) 
halogenbond:SER:67    0
halogenbond:SER:67    0
Name: 58, dtype: object

>  <hydroph_interaction:ARG:68>  (59) 
hydroph_interaction:ARG:68    0
hydroph_interaction:ARG:68    0
Name: 58, dtype: object

>  <hbond:ARG:68>  (59) 
hbond:ARG:68    0
hbond:ARG:68    0
Name: 58, dtype: object

>  <saltbridge:ARG:68>  (59) 
saltbridge:ARG:68    0
saltbridge:ARG:68    0
Name: 58, dtype: object

>  <pication:ARG:68>  (59) 
pication:ARG:68    0
pication:ARG:68    0
Name: 58, dtype: object

>  <hydroph_interaction:TYR:72>  (59) 
hydroph_interaction:TYR:72    0
hydroph_interaction:TYR:72    0
Name: 58, dtype: object

>  <hydroph_interaction:VAL:74>  (59) 
hydroph_interaction:VAL:74    0
hydroph_interaction:VAL:74    0
Name: 58, dtype: object

>  <hydroph_interaction:PHE:76>  (59) 
hydroph_interaction:PHE:76    0
hydroph_interaction:PHE:76    0
Name: 58, dtype: object

>  <hbond:SER:77>  (59) 
hbond:SER:77    0
hbond:SER:77    0
Name: 58, dtype: object

>  <hbond:SER:80>  (59) 
hbond:SER:80    0
hbond:SER:80    0
Name: 58, dtype: object

>  <hbond:LEU:81>  (59) 
hbond:LEU:81    0
hbond:LEU:81    0
Name: 58, dtype: object

>  <halogenbond:LEU:81>  (59) 
halogenbond:LEU:81    0
halogenbond:LEU:81    0
Name: 58, dtype: object

>  <hydroph_interaction:LEU:81>  (59) 
hydroph_interaction:LEU:81    0
hydroph_interaction:LEU:81    0
Name: 58, dtype: object

>  <hydroph_interaction:ILE:82>  (59) 
hydroph_interaction:ILE:82    0
hydroph_interaction:ILE:82    0
Name: 58, dtype: object

>  <hbond:ILE:82>  (59) 
hbond:ILE:82    0
hbond:ILE:82    0
Name: 58, dtype: object

>  <hydroph_interaction:PHE:83>  (59) 
hydroph_interaction:PHE:83    0
hydroph_interaction:PHE:83    0
Name: 58, dtype: object

>  <hbond:PHE:83>  (59) 
hbond:PHE:83    0
hbond:PHE:83    0
Name: 58, dtype: object

>  <halogenbond:PHE:83>  (59) 
halogenbond:PHE:83    0
halogenbond:PHE:83    0
Name: 58, dtype: object

>  <pistack:PHE:83>  (59) 
pistack:PHE:83    0
pistack:PHE:83    0
Name: 58, dtype: object

>  <hydroph_interaction:VAL:84>  (59) 
hydroph_interaction:VAL:84    0
hydroph_interaction:VAL:84    0
Name: 58, dtype: object

>  <hbond:VAL:84>  (59) 
hbond:VAL:84    0
hbond:VAL:84    0
Name: 58, dtype: object

>  <halogenbond:VAL:84>  (59) 
halogenbond:VAL:84    0
halogenbond:VAL:84    0
Name: 58, dtype: object

>  <hydroph_interaction:GLU:85>  (59) 
hydroph_interaction:GLU:85    0
hydroph_interaction:GLU:85    0
Name: 58, dtype: object

>  <hbond:GLU:85>  (59) 
hbond:GLU:85    0
hbond:GLU:85    0
Name: 58, dtype: object

>  <saltbridge:GLU:85>  (59) 
saltbridge:GLU:85    0
saltbridge:GLU:85    0
Name: 58, dtype: object

>  <halogenbond:GLU:85>  (59) 
halogenbond:GLU:85    0
halogenbond:GLU:85    0
Name: 58, dtype: object

>  <hbond:ALA:86>  (59) 
hbond:ALA:86    0
hbond:ALA:86    0
Name: 58, dtype: object

>  <halogenbond:ALA:86>  (59) 
halogenbond:ALA:86    0
halogenbond:ALA:86    0
Name: 58, dtype: object

>  <hydroph_interaction:ALA:86>  (59) 
hydroph_interaction:ALA:86    0
hydroph_interaction:ALA:86    0
Name: 58, dtype: object

>  <hbond:SER:87>  (59) 
hbond:SER:87    0
hbond:SER:87    0
Name: 58, dtype: object

>  <halogenbond:SER:87>  (59) 
halogenbond:SER:87    0
halogenbond:SER:87    0
Name: 58, dtype: object

>  <hbond:GLU:88>  (59) 
hbond:GLU:88    0
hbond:GLU:88    0
Name: 58, dtype: object

>  <hydroph_interaction:GLU:88>  (59) 
hydroph_interaction:GLU:88    0
hydroph_interaction:GLU:88    0
Name: 58, dtype: object

>  <halogenbond:GLU:88>  (59) 
halogenbond:GLU:88    0
halogenbond:GLU:88    0
Name: 58, dtype: object

>  <saltbridge:GLU:88>  (59) 
saltbridge:GLU:88    0
saltbridge:GLU:88    0
Name: 58, dtype: object

>  <hydroph_interaction:TYR:89>  (59) 
hydroph_interaction:TYR:89    0
hydroph_interaction:TYR:89    0
Name: 58, dtype: object

>  <pistack:TYR:89>  (59) 
pistack:TYR:89    0
pistack:TYR:89    0
Name: 58, dtype: object

>  <hbond:TYR:89>  (59) 
hbond:TYR:89    0
hbond:TYR:89    0
Name: 58, dtype: object

>  <halogenbond:TYR:89>  (59) 
halogenbond:TYR:89    0
halogenbond:TYR:89    0
Name: 58, dtype: object

>  <hbond:TYR:90>  (59) 
hbond:TYR:90    0
hbond:TYR:90    0
Name: 58, dtype: object

>  <hydroph_interaction:TYR:90>  (59) 
hydroph_interaction:TYR:90    0
hydroph_interaction:TYR:90    0
Name: 58, dtype: object

>  <pistack:TYR:90>  (59) 
pistack:TYR:90    0
pistack:TYR:90    0
Name: 58, dtype: object

>  <halogenbond:TYR:90>  (59) 
halogenbond:TYR:90    0
halogenbond:TYR:90    0
Name: 58, dtype: object

>  <pication:TYR:90>  (59) 
pication:TYR:90    0
pication:TYR:90    0
Name: 58, dtype: object

>  <hydroph_interaction:PRO:91>  (59) 
hydroph_interaction:PRO:91    0
hydroph_interaction:PRO:91    0
Name: 58, dtype: object

>  <halogenbond:PRO:91>  (59) 
halogenbond:PRO:91    0
halogenbond:PRO:91    0
Name: 58, dtype: object

>  <hbond:PRO:91>  (59) 
hbond:PRO:91    0
hbond:PRO:91    0
Name: 58, dtype: object

>  <hydroph_interaction:ALA:92>  (59) 
hydroph_interaction:ALA:92    0
hydroph_interaction:ALA:92    0
Name: 58, dtype: object

>  <hbond:ARG:93>  (59) 
hbond:ARG:93    0
hbond:ARG:93    0
Name: 58, dtype: object

>  <pication:ARG:93>  (59) 
pication:ARG:93    0
pication:ARG:93    0
Name: 58, dtype: object

>  <saltbridge:ARG:93>  (59) 
saltbridge:ARG:93    0
saltbridge:ARG:93    0
Name: 58, dtype: object

>  <hydroph_interaction:ARG:93>  (59) 
hydroph_interaction:ARG:93    0
hydroph_interaction:ARG:93    0
Name: 58, dtype: object

>  <halogenbond:ARG:93>  (59) 
halogenbond:ARG:93    0
halogenbond:ARG:93    0
Name: 58, dtype: object

>  <hydroph_interaction:TYR:94>  (59) 
hydroph_interaction:TYR:94    0
hydroph_interaction:TYR:94    0
Name: 58, dtype: object

>  <hbond:TYR:94>  (59) 
hbond:TYR:94    0
hbond:TYR:94    0
Name: 58, dtype: object

>  <halogenbond:GLN:95>  (59) 
halogenbond:GLN:95    0
halogenbond:GLN:95    0
Name: 58, dtype: object

>  <hbond:GLN:95>  (59) 
hbond:GLN:95    0
hbond:GLN:95    0
Name: 58, dtype: object

>  <hydroph_interaction:GLN:95>  (59) 
hydroph_interaction:GLN:95    0
hydroph_interaction:GLN:95    0
Name: 58, dtype: object

>  <hbond:SER:96>  (59) 
hbond:SER:96    0
hbond:SER:96    0
Name: 58, dtype: object

>  <hydroph_interaction:LEU:98>  (59) 
hydroph_interaction:LEU:98    0
hydroph_interaction:LEU:98    0
Name: 58, dtype: object

>  <hbond:LEU:98>  (59) 
hbond:LEU:98    0
hbond:LEU:98    0
Name: 58, dtype: object

>  <hbond:MET:99>  (59) 
hbond:MET:99    0
hbond:MET:99    0
Name: 58, dtype: object

>  <hydroph_interaction:MET:99>  (59) 
hydroph_interaction:MET:99    0
hydroph_interaction:MET:99    0
Name: 58, dtype: object

>  <halogenbond:MET:99>  (59) 
halogenbond:MET:99    0
halogenbond:MET:99    0
Name: 58, dtype: object

>  <hydroph_interaction:LEU:100>  (59) 
hydroph_interaction:LEU:100    0
hydroph_interaction:LEU:100    0
Name: 58, dtype: object

>  <hbond:LEU:100>  (59) 
hbond:LEU:100    0
hbond:LEU:100    0
Name: 58, dtype: object

>  <hbond:ALA:101>  (59) 
hbond:ALA:101    0
hbond:ALA:101    0
Name: 58, dtype: object

>  <hydroph_interaction:ALA:101>  (59) 
hydroph_interaction:ALA:101    0
hydroph_interaction:ALA:101    0
Name: 58, dtype: object

>  <hydroph_interaction:VAL:102>  (59) 
hydroph_interaction:VAL:102    0
hydroph_interaction:VAL:102    0
Name: 58, dtype: object

>  <hbond:VAL:102>  (59) 
hbond:VAL:102    0
hbond:VAL:102    0
Name: 58, dtype: object

>  <hbond:GLY:103>  (59) 
hbond:GLY:103    0
hbond:GLY:103    0
Name: 58, dtype: object

>  <halogenbond:GLY:103>  (59) 
halogenbond:GLY:103    0
halogenbond:GLY:103    0
Name: 58, dtype: object

>  <hydroph_interaction:HIS:104>  (59) 
hydroph_interaction:HIS:104    0
hydroph_interaction:HIS:104    0
Name: 58, dtype: object

>  <hbond:HIS:104>  (59) 
hbond:HIS:104    0
hbond:HIS:104    0
Name: 58, dtype: object

>  <saltbridge:HIS:104>  (59) 
saltbridge:HIS:104    0
saltbridge:HIS:104    0
Name: 58, dtype: object

>  <pication:HIS:104>  (59) 
pication:HIS:104    0
pication:HIS:104    0
Name: 58, dtype: object

>  <pistack:HIS:104>  (59) 
pistack:HIS:104    0
pistack:HIS:104    0
Name: 58, dtype: object

>  <halogenbond:HIS:104>  (59) 
halogenbond:HIS:104    0
halogenbond:HIS:104    0
Name: 58, dtype: object

>  <hbond:SER:105>  (59) 
hbond:SER:105    0
hbond:SER:105    0
Name: 58, dtype: object

>  <halogenbond:SER:105>  (59) 
halogenbond:SER:105    0
halogenbond:SER:105    0
Name: 58, dtype: object

>  <hbond:GLU:106>  (59) 
hbond:GLU:106    0
hbond:GLU:106    0
Name: 58, dtype: object

>  <hydroph_interaction:GLU:106>  (59) 
hydroph_interaction:GLU:106    0
hydroph_interaction:GLU:106    0
Name: 58, dtype: object

>  <saltbridge:GLU:106>  (59) 
saltbridge:GLU:106    0
saltbridge:GLU:106    0
Name: 58, dtype: object

>  <halogenbond:GLU:106>  (59) 
halogenbond:GLU:106    0
halogenbond:GLU:106    0
Name: 58, dtype: object

>  <hydroph_interaction:PRO:107>  (59) 
hydroph_interaction:PRO:107    0
hydroph_interaction:PRO:107    0
Name: 58, dtype: object

>  <hbond:PRO:107>  (59) 
hbond:PRO:107    0
hbond:PRO:107    0
Name: 58, dtype: object

>  <halogenbond:PRO:107>  (59) 
halogenbond:PRO:107    0
halogenbond:PRO:107    0
Name: 58, dtype: object

>  <hbond:GLY:108>  (59) 
hbond:GLY:108    0
hbond:GLY:108    0
Name: 58, dtype: object

>  <halogenbond:GLY:108>  (59) 
halogenbond:GLY:108    0
halogenbond:GLY:108    0
Name: 58, dtype: object

>  <hbond:ASP:109>  (59) 
hbond:ASP:109    0
hbond:ASP:109    0
Name: 58, dtype: object

>  <hydroph_interaction:ASP:109>  (59) 
hydroph_interaction:ASP:109    0
hydroph_interaction:ASP:109    0
Name: 58, dtype: object

>  <saltbridge:ASP:109>  (59) 
saltbridge:ASP:109    0
saltbridge:ASP:109    0
Name: 58, dtype: object

>  <hbond:CYS:110>  (59) 
hbond:CYS:110    0
hbond:CYS:110    0
Name: 58, dtype: object

>  <halogenbond:CYS:110>  (59) 
halogenbond:CYS:110    0
halogenbond:CYS:110    0
Name: 58, dtype: object

>  <hbond:GLY:111>  (59) 
hbond:GLY:111    0
hbond:GLY:111    0
Name: 58, dtype: object

>  <hbond:GLY:112>  (59) 
hbond:GLY:112    0
hbond:GLY:112    0
Name: 58, dtype: object

>  <hbond:ILE:113>  (59) 
hbond:ILE:113    0
hbond:ILE:113    0
Name: 58, dtype: object

>  <hydroph_interaction:LEU:114>  (59) 
hydroph_interaction:LEU:114    0
hydroph_interaction:LEU:114    0
Name: 58, dtype: object

>  <hbond:LEU:114>  (59) 
hbond:LEU:114    0
hbond:LEU:114    0
Name: 58, dtype: object

>  <hydroph_interaction:ILE:123>  (59) 
hydroph_interaction:ILE:123    0
hydroph_interaction:ILE:123    0
Name: 58, dtype: object

>  <hbond:ILE:123>  (59) 
hbond:ILE:123    0
hbond:ILE:123    0
Name: 58, dtype: object

>  <hydroph_interaction:VAL:124>  (59) 
hydroph_interaction:VAL:124    1
hydroph_interaction:VAL:124    1
Name: 58, dtype: object

>  <hbond:VAL:124>  (59) 
hbond:VAL:124    0
hbond:VAL:124    0
Name: 58, dtype: object

>  <halogenbond:VAL:124>  (59) 
halogenbond:VAL:124    0
halogenbond:VAL:124    0
Name: 58, dtype: object

>  <hbond:SER:125>  (59) 
hbond:SER:125    0
hbond:SER:125    0
Name: 58, dtype: object

>  <halogenbond:SER:125>  (59) 
halogenbond:SER:125    0
halogenbond:SER:125    0
Name: 58, dtype: object

>  <hydroph_interaction:THR:126>  (59) 
hydroph_interaction:THR:126    0
hydroph_interaction:THR:126    0
Name: 58, dtype: object

>  <hbond:THR:126>  (59) 
hbond:THR:126    0
hbond:THR:126    0
Name: 58, dtype: object

>  <halogenbond:THR:126>  (59) 
halogenbond:THR:126    0
halogenbond:THR:126    0
Name: 58, dtype: object

>  <hbond:GLY:127>  (59) 
hbond:GLY:127    0
hbond:GLY:127    0
Name: 58, dtype: object

>  <halogenbond:GLY:127>  (59) 
halogenbond:GLY:127    0
halogenbond:GLY:127    0
Name: 58, dtype: object

>  <hydroph_interaction:GLY:127>  (59) 
hydroph_interaction:GLY:127    0
hydroph_interaction:GLY:127    0
Name: 58, dtype: object

>  <hbond:GLY:128>  (59) 
hbond:GLY:128    0
hbond:GLY:128    0
Name: 58, dtype: object

>  <halogenbond:GLY:128>  (59) 
halogenbond:GLY:128    0
halogenbond:GLY:128    0
Name: 58, dtype: object

>  <hydroph_interaction:GLY:128>  (59) 
hydroph_interaction:GLY:128    0
hydroph_interaction:GLY:128    0
Name: 58, dtype: object

>  <hbond:ASN:129>  (59) 
hbond:ASN:129    0
hbond:ASN:129    0
Name: 58, dtype: object

>  <hydroph_interaction:ASN:129>  (59) 
hydroph_interaction:ASN:129    0
hydroph_interaction:ASN:129    0
Name: 58, dtype: object

>  <halogenbond:ASN:129>  (59) 
halogenbond:ASN:129    0
halogenbond:ASN:129    0
Name: 58, dtype: object

>  <hbond:GLY:130>  (59) 
hbond:GLY:130    0
hbond:GLY:130    0
Name: 58, dtype: object

>  <hydroph_interaction:LEU:131>  (59) 
hydroph_interaction:LEU:131    1
hydroph_interaction:LEU:131    1
Name: 58, dtype: object

>  <hbond:LEU:131>  (59) 
hbond:LEU:131    0
hbond:LEU:131    0
Name: 58, dtype: object

>  <halogenbond:LEU:131>  (59) 
halogenbond:LEU:131    0
halogenbond:LEU:131    0
Name: 58, dtype: object

>  <hydroph_interaction:VAL:132>  (59) 
hydroph_interaction:VAL:132    0
hydroph_interaction:VAL:132    0
Name: 58, dtype: object

>  <hbond:VAL:132>  (59) 
hbond:VAL:132    0
hbond:VAL:132    0
Name: 58, dtype: object

>  <hbond:GLY:133>  (59) 
hbond:GLY:133    0
hbond:GLY:133    0
Name: 58, dtype: object

>  <halogenbond:GLY:133>  (59) 
halogenbond:GLY:133    0
halogenbond:GLY:133    0
Name: 58, dtype: object

>  <hydroph_interaction:PHE:134>  (59) 
hydroph_interaction:PHE:134    0
hydroph_interaction:PHE:134    0
Name: 58, dtype: object

>  <hbond:PHE:134>  (59) 
hbond:PHE:134    0
hbond:PHE:134    0
Name: 58, dtype: object

>  <pistack:PHE:134>  (59) 
pistack:PHE:134    0
pistack:PHE:134    0
Name: 58, dtype: object

>  <pication:PHE:134>  (59) 
pication:PHE:134    0
pication:PHE:134    0
Name: 58, dtype: object

>  <hydroph_interaction:ALA:135>  (59) 
hydroph_interaction:ALA:135    0
hydroph_interaction:ALA:135    0
Name: 58, dtype: object

>  <hbond:ALA:135>  (59) 
hbond:ALA:135    0
hbond:ALA:135    0
Name: 58, dtype: object

$$$$
Z4646473011
     RDKit          3D

 33 33  0  0  0  0  0  0  0  0999 V2000
   13.3780   15.7300   20.7570 C   0  0  0  0  0  0  0  0  0  0  0  0
   12.4280   14.5690   20.9260 C   0  0  0  0  0  0  0  0  0  0  0  0
   11.7570   14.6120   22.2920 C   0  0  2  0  0  0  0  0  0  0  0  0
   12.3770   13.6710   23.3240 C   0  0  0  0  0  0  0  0  0  0  0  0
   10.2740   14.3310   22.1280 C   0  0  0  0  0  0  0  0  0  0  0  0
    9.6360   14.4010   21.0860 O   0  0  0  0  0  0  0  0  0  0  0  0
    9.7710   13.9990   23.3730 O   0  0  0  0  0  0  0  0  0  0  0  0
    9.4290   12.6630   23.5610 C   0  0  0  0  0  0  0  0  0  0  0  0
    8.4000   12.4220   24.4550 C   0  0  0  0  0  0  0  0  0  0  0  0
    8.0030   11.1190   24.7080 C   0  0  0  0  0  0  0  0  0  0  0  0
    6.8840   10.8520   25.6640 C   0  0  0  0  0  0  0  0  0  0  0  0
    8.6590   10.0740   24.0510 C   0  0  0  0  0  0  0  0  0  0  0  0
    9.6870   10.3160   23.1430 C   0  0  0  0  0  0  0  0  0  0  0  0
   10.3520    9.1840   22.4410 C   0  0  0  0  0  0  0  0  0  0  0  0
   10.0770   11.6290   22.8990 C   0  0  0  0  0  0  0  0  0  0  0  0
   12.8440   16.6830   20.7730 H   0  0  0  0  0  0  0  0  0  0  0  0
   14.0890   15.7330   21.5850 H   0  0  0  0  0  0  0  0  0  0  0  0
   13.9490   15.6520   19.8330 H   0  0  0  0  0  0  0  0  0  0  0  0
   12.9680   13.6240   20.7910 H   0  0  0  0  0  0  0  0  0  0  0  0
   11.6720   14.6080   20.1300 H   0  0  0  0  0  0  0  0  0  0  0  0
   11.8500   15.6270   22.7020 H   0  0  0  0  0  0  0  0  0  0  0  0
   12.3560   14.1100   24.3270 H   0  0  0  0  0  0  0  0  0  0  0  0
   11.8560   12.7140   23.3620 H   0  0  0  0  0  0  0  0  0  0  0  0
   13.4280   13.4680   23.0820 H   0  0  0  0  0  0  0  0  0  0  0  0
    7.9100   13.2520   24.9530 H   0  0  0  0  0  0  0  0  0  0  0  0
    7.2470   10.7670   26.6810 H   0  0  0  0  0  0  0  0  0  0  0  0
    6.3650    9.9300   25.4040 H   0  0  0  0  0  0  0  0  0  0  0  0
    6.1440   11.6570   25.6240 H   0  0  0  0  0  0  0  0  0  0  0  0
    8.3540    9.0520   24.2460 H   0  0  0  0  0  0  0  0  0  0  0  0
   10.9700    9.5490   21.6260 H   0  0  0  0  0  0  0  0  0  0  0  0
    9.6090    8.5310   21.9850 H   0  0  0  0  0  0  0  0  0  0  0  0
   10.9730    8.6100   23.1350 H   0  0  0  0  0  0  0  0  0  0  0  0
   10.8750   11.8490   22.2020 H   0  0  0  0  0  0  0  0  0  0  0  0
  1  2  1  0
  2  3  1  0
  3  4  1  0
  3  5  1  0
  5  6  2  0
  5  7  1  0
  7  8  1  0
  8  9  2  0
  9 10  1  0
 10 11  1  0
 10 12  2  0
 12 13  1  0
 13 14  1  0
 13 15  2  0
 15  8  1  0
  1 16  1  0
  1 17  1  0
  1 18  1  0
  2 19  1  0
  2 20  1  0
  3 21  1  1
  4 22  1  0
  4 23  1  0
  4 24  1  0
  9 25  1  0
 11 26  1  0
 11 27  1  0
 11 28  1  0
 12 29  1  0
 14 30  1  0
 14 31  1  0
 14 32  1  0
 15 33  1  0
A    1
 C1 
A    2
 C2 
A    3
 C3 
A    4
 C4 
A    5
 C5 
A    6
 O1 
A    7
 O2 
A    8
 C6 
A    9
 C7 
A   10
 C8 
A   11
 C9 
A   12
 C10
A   13
 C11
A   14
 C12
A   15
 C13
A   16
 H1 
A   17
 H2 
A   18
 H3 
A   19
 H4 
A   20
 H5 
A   21
 H6 
A   22
 H7 
A   23
 H8 
A   24
 H9 
A   25
 H10
A   26
 H11
A   27
 H12
A   28
 H13
A   29
 H14
A   30
 H15
A   31
 H16
A   32
 H17
A   33
 H18
M  END
>  <ref_pdb>  (60) 
x0310_0A

>  <ref_mols>  (60) 
x0451_0A,x0739_0A

>  <original SMILES>  (60) 
CC[C@H](C)C(=O)Oc1cc(C)cc(C)c1

>  <rationale>  (60) 
info hbond:S87; hydroph_interaction:P107+V124+Y89+Y90+H21; 

>  <intxn_cluster>  (60) 
107

>  <intxn_cluster_rank>  (60) 
17

>  <N_interactions>  (60) 
6

>  <∆∆G>  (60) 
-13.728619

>  <$/mg>  (60) 
163.0

>  <comRMSD>  (60) 
0.923474

>  <N_rotatable_bonds>  (60) 
7

>  <N_analogues_07>  (60) 
3

>  <deep_P1_sidechain>  (60) 
True

>  <farthest_distance_to_substrate>  (60) 
2.663289

>  <hbond:SER:7>  (60) 
hbond:SER:7    0
hbond:SER:7    0
Name: 59, dtype: object

>  <halogenbond:SER:7>  (60) 
halogenbond:SER:7    0
halogenbond:SER:7    0
Name: 59, dtype: object

>  <hbond:GLY:8>  (60) 
hbond:GLY:8    0
hbond:GLY:8    0
Name: 59, dtype: object

>  <hydroph_interaction:ASN:19>  (60) 
hydroph_interaction:ASN:19    0
hydroph_interaction:ASN:19    0
Name: 59, dtype: object

>  <hbond:ASN:19>  (60) 
hbond:ASN:19    0
hbond:ASN:19    0
Name: 59, dtype: object

>  <halogenbond:ASN:19>  (60) 
halogenbond:ASN:19    0
halogenbond:ASN:19    0
Name: 59, dtype: object

>  <hbond:ARG:20>  (60) 
hbond:ARG:20    0
hbond:ARG:20    0
Name: 59, dtype: object

>  <hydroph_interaction:ARG:20>  (60) 
hydroph_interaction:ARG:20    0
hydroph_interaction:ARG:20    0
Name: 59, dtype: object

>  <saltbridge:ARG:20>  (60) 
saltbridge:ARG:20    0
saltbridge:ARG:20    0
Name: 59, dtype: object

>  <halogenbond:ARG:20>  (60) 
halogenbond:ARG:20    0
halogenbond:ARG:20    0
Name: 59, dtype: object

>  <pication:ARG:20>  (60) 
pication:ARG:20    0
pication:ARG:20    0
Name: 59, dtype: object

>  <hbond:HIS:21>  (60) 
hbond:HIS:21    0
hbond:HIS:21    0
Name: 59, dtype: object

>  <hydroph_interaction:HIS:21>  (60) 
hydroph_interaction:HIS:21    1
hydroph_interaction:HIS:21    1
Name: 59, dtype: object

>  <saltbridge:HIS:21>  (60) 
saltbridge:HIS:21    0
saltbridge:HIS:21    0
Name: 59, dtype: object

>  <pistack:HIS:21>  (60) 
pistack:HIS:21    0
pistack:HIS:21    0
Name: 59, dtype: object

>  <pication:HIS:21>  (60) 
pication:HIS:21    0
pication:HIS:21    0
Name: 59, dtype: object

>  <halogenbond:HIS:21>  (60) 
halogenbond:HIS:21    0
halogenbond:HIS:21    0
Name: 59, dtype: object

>  <hydroph_interaction:LEU:22>  (60) 
hydroph_interaction:LEU:22    0
hydroph_interaction:LEU:22    0
Name: 59, dtype: object

>  <hbond:LEU:22>  (60) 
hbond:LEU:22    0
hbond:LEU:22    0
Name: 59, dtype: object

>  <hydroph_interaction:TRP:28>  (60) 
hydroph_interaction:TRP:28    0
hydroph_interaction:TRP:28    0
Name: 59, dtype: object

>  <hbond:SER:36>  (60) 
hbond:SER:36    0
hbond:SER:36    0
Name: 59, dtype: object

>  <halogenbond:SER:36>  (60) 
halogenbond:SER:36    0
halogenbond:SER:36    0
Name: 59, dtype: object

>  <hbond:ARG:38>  (60) 
hbond:ARG:38    0
hbond:ARG:38    0
Name: 59, dtype: object

>  <halogenbond:ARG:38>  (60) 
halogenbond:ARG:38    0
halogenbond:ARG:38    0
Name: 59, dtype: object

>  <hbond:ASP:39>  (60) 
hbond:ASP:39    0
hbond:ASP:39    0
Name: 59, dtype: object

>  <saltbridge:ASP:39>  (60) 
saltbridge:ASP:39    0
saltbridge:ASP:39    0
Name: 59, dtype: object

>  <hydroph_interaction:ASP:39>  (60) 
hydroph_interaction:ASP:39    0
hydroph_interaction:ASP:39    0
Name: 59, dtype: object

>  <halogenbond:ASP:39>  (60) 
halogenbond:ASP:39    0
halogenbond:ASP:39    0
Name: 59, dtype: object

>  <hydroph_interaction:LEU:40>  (60) 
hydroph_interaction:LEU:40    0
hydroph_interaction:LEU:40    0
Name: 59, dtype: object

>  <hydroph_interaction:TYR:63>  (60) 
hydroph_interaction:TYR:63    0
hydroph_interaction:TYR:63    0
Name: 59, dtype: object

>  <pistack:TYR:63>  (60) 
pistack:TYR:63    0
pistack:TYR:63    0
Name: 59, dtype: object

>  <hbond:TYR:63>  (60) 
hbond:TYR:63    0
hbond:TYR:63    0
Name: 59, dtype: object

>  <hbond:TYR:64>  (60) 
hbond:TYR:64    0
hbond:TYR:64    0
Name: 59, dtype: object

>  <halogenbond:TYR:64>  (60) 
halogenbond:TYR:64    0
halogenbond:TYR:64    0
Name: 59, dtype: object

>  <hydroph_interaction:TYR:64>  (60) 
hydroph_interaction:TYR:64    0
hydroph_interaction:TYR:64    0
Name: 59, dtype: object

>  <hbond:CYS:65>  (60) 
hbond:CYS:65    0
hbond:CYS:65    0
Name: 59, dtype: object

>  <halogenbond:CYS:65>  (60) 
halogenbond:CYS:65    0
halogenbond:CYS:65    0
Name: 59, dtype: object

>  <hbond:SER:66>  (60) 
hbond:SER:66    0
hbond:SER:66    0
Name: 59, dtype: object

>  <hbond:SER:67>  (60) 
hbond:SER:67    0
hbond:SER:67    0
Name: 59, dtype: object

>  <halogenbond:SER:67>  (60) 
halogenbond:SER:67    0
halogenbond:SER:67    0
Name: 59, dtype: object

>  <hydroph_interaction:ARG:68>  (60) 
hydroph_interaction:ARG:68    0
hydroph_interaction:ARG:68    0
Name: 59, dtype: object

>  <hbond:ARG:68>  (60) 
hbond:ARG:68    0
hbond:ARG:68    0
Name: 59, dtype: object

>  <saltbridge:ARG:68>  (60) 
saltbridge:ARG:68    0
saltbridge:ARG:68    0
Name: 59, dtype: object

>  <pication:ARG:68>  (60) 
pication:ARG:68    0
pication:ARG:68    0
Name: 59, dtype: object

>  <hydroph_interaction:TYR:72>  (60) 
hydroph_interaction:TYR:72    0
hydroph_interaction:TYR:72    0
Name: 59, dtype: object

>  <hydroph_interaction:VAL:74>  (60) 
hydroph_interaction:VAL:74    0
hydroph_interaction:VAL:74    0
Name: 59, dtype: object

>  <hydroph_interaction:PHE:76>  (60) 
hydroph_interaction:PHE:76    0
hydroph_interaction:PHE:76    0
Name: 59, dtype: object

>  <hbond:SER:77>  (60) 
hbond:SER:77    0
hbond:SER:77    0
Name: 59, dtype: object

>  <hbond:SER:80>  (60) 
hbond:SER:80    0
hbond:SER:80    0
Name: 59, dtype: object

>  <hbond:LEU:81>  (60) 
hbond:LEU:81    0
hbond:LEU:81    0
Name: 59, dtype: object

>  <halogenbond:LEU:81>  (60) 
halogenbond:LEU:81    0
halogenbond:LEU:81    0
Name: 59, dtype: object

>  <hydroph_interaction:LEU:81>  (60) 
hydroph_interaction:LEU:81    0
hydroph_interaction:LEU:81    0
Name: 59, dtype: object

>  <hydroph_interaction:ILE:82>  (60) 
hydroph_interaction:ILE:82    0
hydroph_interaction:ILE:82    0
Name: 59, dtype: object

>  <hbond:ILE:82>  (60) 
hbond:ILE:82    0
hbond:ILE:82    0
Name: 59, dtype: object

>  <hydroph_interaction:PHE:83>  (60) 
hydroph_interaction:PHE:83    0
hydroph_interaction:PHE:83    0
Name: 59, dtype: object

>  <hbond:PHE:83>  (60) 
hbond:PHE:83    0
hbond:PHE:83    0
Name: 59, dtype: object

>  <halogenbond:PHE:83>  (60) 
halogenbond:PHE:83    0
halogenbond:PHE:83    0
Name: 59, dtype: object

>  <pistack:PHE:83>  (60) 
pistack:PHE:83    0
pistack:PHE:83    0
Name: 59, dtype: object

>  <hydroph_interaction:VAL:84>  (60) 
hydroph_interaction:VAL:84    0
hydroph_interaction:VAL:84    0
Name: 59, dtype: object

>  <hbond:VAL:84>  (60) 
hbond:VAL:84    0
hbond:VAL:84    0
Name: 59, dtype: object

>  <halogenbond:VAL:84>  (60) 
halogenbond:VAL:84    0
halogenbond:VAL:84    0
Name: 59, dtype: object

>  <hydroph_interaction:GLU:85>  (60) 
hydroph_interaction:GLU:85    0
hydroph_interaction:GLU:85    0
Name: 59, dtype: object

>  <hbond:GLU:85>  (60) 
hbond:GLU:85    0
hbond:GLU:85    0
Name: 59, dtype: object

>  <saltbridge:GLU:85>  (60) 
saltbridge:GLU:85    0
saltbridge:GLU:85    0
Name: 59, dtype: object

>  <halogenbond:GLU:85>  (60) 
halogenbond:GLU:85    0
halogenbond:GLU:85    0
Name: 59, dtype: object

>  <hbond:ALA:86>  (60) 
hbond:ALA:86    0
hbond:ALA:86    0
Name: 59, dtype: object

>  <halogenbond:ALA:86>  (60) 
halogenbond:ALA:86    0
halogenbond:ALA:86    0
Name: 59, dtype: object

>  <hydroph_interaction:ALA:86>  (60) 
hydroph_interaction:ALA:86    0
hydroph_interaction:ALA:86    0
Name: 59, dtype: object

>  <hbond:SER:87>  (60) 
hbond:SER:87    1
hbond:SER:87    1
Name: 59, dtype: object

>  <halogenbond:SER:87>  (60) 
halogenbond:SER:87    0
halogenbond:SER:87    0
Name: 59, dtype: object

>  <hbond:GLU:88>  (60) 
hbond:GLU:88    0
hbond:GLU:88    0
Name: 59, dtype: object

>  <hydroph_interaction:GLU:88>  (60) 
hydroph_interaction:GLU:88    0
hydroph_interaction:GLU:88    0
Name: 59, dtype: object

>  <halogenbond:GLU:88>  (60) 
halogenbond:GLU:88    0
halogenbond:GLU:88    0
Name: 59, dtype: object

>  <saltbridge:GLU:88>  (60) 
saltbridge:GLU:88    0
saltbridge:GLU:88    0
Name: 59, dtype: object

>  <hydroph_interaction:TYR:89>  (60) 
hydroph_interaction:TYR:89    1
hydroph_interaction:TYR:89    1
Name: 59, dtype: object

>  <pistack:TYR:89>  (60) 
pistack:TYR:89    0
pistack:TYR:89    0
Name: 59, dtype: object

>  <hbond:TYR:89>  (60) 
hbond:TYR:89    0
hbond:TYR:89    0
Name: 59, dtype: object

>  <halogenbond:TYR:89>  (60) 
halogenbond:TYR:89    0
halogenbond:TYR:89    0
Name: 59, dtype: object

>  <hbond:TYR:90>  (60) 
hbond:TYR:90    0
hbond:TYR:90    0
Name: 59, dtype: object

>  <hydroph_interaction:TYR:90>  (60) 
hydroph_interaction:TYR:90    1
hydroph_interaction:TYR:90    1
Name: 59, dtype: object

>  <pistack:TYR:90>  (60) 
pistack:TYR:90    0
pistack:TYR:90    0
Name: 59, dtype: object

>  <halogenbond:TYR:90>  (60) 
halogenbond:TYR:90    0
halogenbond:TYR:90    0
Name: 59, dtype: object

>  <pication:TYR:90>  (60) 
pication:TYR:90    0
pication:TYR:90    0
Name: 59, dtype: object

>  <hydroph_interaction:PRO:91>  (60) 
hydroph_interaction:PRO:91    0
hydroph_interaction:PRO:91    0
Name: 59, dtype: object

>  <halogenbond:PRO:91>  (60) 
halogenbond:PRO:91    0
halogenbond:PRO:91    0
Name: 59, dtype: object

>  <hbond:PRO:91>  (60) 
hbond:PRO:91    0
hbond:PRO:91    0
Name: 59, dtype: object

>  <hydroph_interaction:ALA:92>  (60) 
hydroph_interaction:ALA:92    0
hydroph_interaction:ALA:92    0
Name: 59, dtype: object

>  <hbond:ARG:93>  (60) 
hbond:ARG:93    0
hbond:ARG:93    0
Name: 59, dtype: object

>  <pication:ARG:93>  (60) 
pication:ARG:93    0
pication:ARG:93    0
Name: 59, dtype: object

>  <saltbridge:ARG:93>  (60) 
saltbridge:ARG:93    0
saltbridge:ARG:93    0
Name: 59, dtype: object

>  <hydroph_interaction:ARG:93>  (60) 
hydroph_interaction:ARG:93    0
hydroph_interaction:ARG:93    0
Name: 59, dtype: object

>  <halogenbond:ARG:93>  (60) 
halogenbond:ARG:93    0
halogenbond:ARG:93    0
Name: 59, dtype: object

>  <hydroph_interaction:TYR:94>  (60) 
hydroph_interaction:TYR:94    0
hydroph_interaction:TYR:94    0
Name: 59, dtype: object

>  <hbond:TYR:94>  (60) 
hbond:TYR:94    0
hbond:TYR:94    0
Name: 59, dtype: object

>  <halogenbond:GLN:95>  (60) 
halogenbond:GLN:95    0
halogenbond:GLN:95    0
Name: 59, dtype: object

>  <hbond:GLN:95>  (60) 
hbond:GLN:95    0
hbond:GLN:95    0
Name: 59, dtype: object

>  <hydroph_interaction:GLN:95>  (60) 
hydroph_interaction:GLN:95    0
hydroph_interaction:GLN:95    0
Name: 59, dtype: object

>  <hbond:SER:96>  (60) 
hbond:SER:96    0
hbond:SER:96    0
Name: 59, dtype: object

>  <hydroph_interaction:LEU:98>  (60) 
hydroph_interaction:LEU:98    0
hydroph_interaction:LEU:98    0
Name: 59, dtype: object

>  <hbond:LEU:98>  (60) 
hbond:LEU:98    0
hbond:LEU:98    0
Name: 59, dtype: object

>  <hbond:MET:99>  (60) 
hbond:MET:99    0
hbond:MET:99    0
Name: 59, dtype: object

>  <hydroph_interaction:MET:99>  (60) 
hydroph_interaction:MET:99    0
hydroph_interaction:MET:99    0
Name: 59, dtype: object

>  <halogenbond:MET:99>  (60) 
halogenbond:MET:99    0
halogenbond:MET:99    0
Name: 59, dtype: object

>  <hydroph_interaction:LEU:100>  (60) 
hydroph_interaction:LEU:100    0
hydroph_interaction:LEU:100    0
Name: 59, dtype: object

>  <hbond:LEU:100>  (60) 
hbond:LEU:100    0
hbond:LEU:100    0
Name: 59, dtype: object

>  <hbond:ALA:101>  (60) 
hbond:ALA:101    0
hbond:ALA:101    0
Name: 59, dtype: object

>  <hydroph_interaction:ALA:101>  (60) 
hydroph_interaction:ALA:101    0
hydroph_interaction:ALA:101    0
Name: 59, dtype: object

>  <hydroph_interaction:VAL:102>  (60) 
hydroph_interaction:VAL:102    0
hydroph_interaction:VAL:102    0
Name: 59, dtype: object

>  <hbond:VAL:102>  (60) 
hbond:VAL:102    0
hbond:VAL:102    0
Name: 59, dtype: object

>  <hbond:GLY:103>  (60) 
hbond:GLY:103    0
hbond:GLY:103    0
Name: 59, dtype: object

>  <halogenbond:GLY:103>  (60) 
halogenbond:GLY:103    0
halogenbond:GLY:103    0
Name: 59, dtype: object

>  <hydroph_interaction:HIS:104>  (60) 
hydroph_interaction:HIS:104    0
hydroph_interaction:HIS:104    0
Name: 59, dtype: object

>  <hbond:HIS:104>  (60) 
hbond:HIS:104    0
hbond:HIS:104    0
Name: 59, dtype: object

>  <saltbridge:HIS:104>  (60) 
saltbridge:HIS:104    0
saltbridge:HIS:104    0
Name: 59, dtype: object

>  <pication:HIS:104>  (60) 
pication:HIS:104    0
pication:HIS:104    0
Name: 59, dtype: object

>  <pistack:HIS:104>  (60) 
pistack:HIS:104    0
pistack:HIS:104    0
Name: 59, dtype: object

>  <halogenbond:HIS:104>  (60) 
halogenbond:HIS:104    0
halogenbond:HIS:104    0
Name: 59, dtype: object

>  <hbond:SER:105>  (60) 
hbond:SER:105    0
hbond:SER:105    0
Name: 59, dtype: object

>  <halogenbond:SER:105>  (60) 
halogenbond:SER:105    0
halogenbond:SER:105    0
Name: 59, dtype: object

>  <hbond:GLU:106>  (60) 
hbond:GLU:106    0
hbond:GLU:106    0
Name: 59, dtype: object

>  <hydroph_interaction:GLU:106>  (60) 
hydroph_interaction:GLU:106    0
hydroph_interaction:GLU:106    0
Name: 59, dtype: object

>  <saltbridge:GLU:106>  (60) 
saltbridge:GLU:106    0
saltbridge:GLU:106    0
Name: 59, dtype: object

>  <halogenbond:GLU:106>  (60) 
halogenbond:GLU:106    0
halogenbond:GLU:106    0
Name: 59, dtype: object

>  <hydroph_interaction:PRO:107>  (60) 
hydroph_interaction:PRO:107    1
hydroph_interaction:PRO:107    1
Name: 59, dtype: object

>  <hbond:PRO:107>  (60) 
hbond:PRO:107    0
hbond:PRO:107    0
Name: 59, dtype: object

>  <halogenbond:PRO:107>  (60) 
halogenbond:PRO:107    0
halogenbond:PRO:107    0
Name: 59, dtype: object

>  <hbond:GLY:108>  (60) 
hbond:GLY:108    0
hbond:GLY:108    0
Name: 59, dtype: object

>  <halogenbond:GLY:108>  (60) 
halogenbond:GLY:108    0
halogenbond:GLY:108    0
Name: 59, dtype: object

>  <hbond:ASP:109>  (60) 
hbond:ASP:109    0
hbond:ASP:109    0
Name: 59, dtype: object

>  <hydroph_interaction:ASP:109>  (60) 
hydroph_interaction:ASP:109    0
hydroph_interaction:ASP:109    0
Name: 59, dtype: object

>  <saltbridge:ASP:109>  (60) 
saltbridge:ASP:109    0
saltbridge:ASP:109    0
Name: 59, dtype: object

>  <hbond:CYS:110>  (60) 
hbond:CYS:110    0
hbond:CYS:110    0
Name: 59, dtype: object

>  <halogenbond:CYS:110>  (60) 
halogenbond:CYS:110    0
halogenbond:CYS:110    0
Name: 59, dtype: object

>  <hbond:GLY:111>  (60) 
hbond:GLY:111    0
hbond:GLY:111    0
Name: 59, dtype: object

>  <hbond:GLY:112>  (60) 
hbond:GLY:112    0
hbond:GLY:112    0
Name: 59, dtype: object

>  <hbond:ILE:113>  (60) 
hbond:ILE:113    0
hbond:ILE:113    0
Name: 59, dtype: object

>  <hydroph_interaction:LEU:114>  (60) 
hydroph_interaction:LEU:114    0
hydroph_interaction:LEU:114    0
Name: 59, dtype: object

>  <hbond:LEU:114>  (60) 
hbond:LEU:114    0
hbond:LEU:114    0
Name: 59, dtype: object

>  <hydroph_interaction:ILE:123>  (60) 
hydroph_interaction:ILE:123    0
hydroph_interaction:ILE:123    0
Name: 59, dtype: object

>  <hbond:ILE:123>  (60) 
hbond:ILE:123    0
hbond:ILE:123    0
Name: 59, dtype: object

>  <hydroph_interaction:VAL:124>  (60) 
hydroph_interaction:VAL:124    1
hydroph_interaction:VAL:124    1
Name: 59, dtype: object

>  <hbond:VAL:124>  (60) 
hbond:VAL:124    0
hbond:VAL:124    0
Name: 59, dtype: object

>  <halogenbond:VAL:124>  (60) 
halogenbond:VAL:124    0
halogenbond:VAL:124    0
Name: 59, dtype: object

>  <hbond:SER:125>  (60) 
hbond:SER:125    0
hbond:SER:125    0
Name: 59, dtype: object

>  <halogenbond:SER:125>  (60) 
halogenbond:SER:125    0
halogenbond:SER:125    0
Name: 59, dtype: object

>  <hydroph_interaction:THR:126>  (60) 
hydroph_interaction:THR:126    0
hydroph_interaction:THR:126    0
Name: 59, dtype: object

>  <hbond:THR:126>  (60) 
hbond:THR:126    0
hbond:THR:126    0
Name: 59, dtype: object

>  <halogenbond:THR:126>  (60) 
halogenbond:THR:126    0
halogenbond:THR:126    0
Name: 59, dtype: object

>  <hbond:GLY:127>  (60) 
hbond:GLY:127    0
hbond:GLY:127    0
Name: 59, dtype: object

>  <halogenbond:GLY:127>  (60) 
halogenbond:GLY:127    0
halogenbond:GLY:127    0
Name: 59, dtype: object

>  <hydroph_interaction:GLY:127>  (60) 
hydroph_interaction:GLY:127    0
hydroph_interaction:GLY:127    0
Name: 59, dtype: object

>  <hbond:GLY:128>  (60) 
hbond:GLY:128    0
hbond:GLY:128    0
Name: 59, dtype: object

>  <halogenbond:GLY:128>  (60) 
halogenbond:GLY:128    0
halogenbond:GLY:128    0
Name: 59, dtype: object

>  <hydroph_interaction:GLY:128>  (60) 
hydroph_interaction:GLY:128    0
hydroph_interaction:GLY:128    0
Name: 59, dtype: object

>  <hbond:ASN:129>  (60) 
hbond:ASN:129    0
hbond:ASN:129    0
Name: 59, dtype: object

>  <hydroph_interaction:ASN:129>  (60) 
hydroph_interaction:ASN:129    0
hydroph_interaction:ASN:129    0
Name: 59, dtype: object

>  <halogenbond:ASN:129>  (60) 
halogenbond:ASN:129    0
halogenbond:ASN:129    0
Name: 59, dtype: object

>  <hbond:GLY:130>  (60) 
hbond:GLY:130    0
hbond:GLY:130    0
Name: 59, dtype: object

>  <hydroph_interaction:LEU:131>  (60) 
hydroph_interaction:LEU:131    0
hydroph_interaction:LEU:131    0
Name: 59, dtype: object

>  <hbond:LEU:131>  (60) 
hbond:LEU:131    0
hbond:LEU:131    0
Name: 59, dtype: object

>  <halogenbond:LEU:131>  (60) 
halogenbond:LEU:131    0
halogenbond:LEU:131    0
Name: 59, dtype: object

>  <hydroph_interaction:VAL:132>  (60) 
hydroph_interaction:VAL:132    0
hydroph_interaction:VAL:132    0
Name: 59, dtype: object

>  <hbond:VAL:132>  (60) 
hbond:VAL:132    0
hbond:VAL:132    0
Name: 59, dtype: object

>  <hbond:GLY:133>  (60) 
hbond:GLY:133    0
hbond:GLY:133    0
Name: 59, dtype: object

>  <halogenbond:GLY:133>  (60) 
halogenbond:GLY:133    0
halogenbond:GLY:133    0
Name: 59, dtype: object

>  <hydroph_interaction:PHE:134>  (60) 
hydroph_interaction:PHE:134    0
hydroph_interaction:PHE:134    0
Name: 59, dtype: object

>  <hbond:PHE:134>  (60) 
hbond:PHE:134    0
hbond:PHE:134    0
Name: 59, dtype: object

>  <pistack:PHE:134>  (60) 
pistack:PHE:134    0
pistack:PHE:134    0
Name: 59, dtype: object

>  <pication:PHE:134>  (60) 
pication:PHE:134    0
pication:PHE:134    0
Name: 59, dtype: object

>  <hydroph_interaction:ALA:135>  (60) 
hydroph_interaction:ALA:135    0
hydroph_interaction:ALA:135    0
Name: 59, dtype: object

>  <hbond:ALA:135>  (60) 
hbond:ALA:135    0
hbond:ALA:135    0
Name: 59, dtype: object

$$$$
Z4264516456
     RDKit          3D

 32 32  0  0  0  0  0  0  0  0999 V2000
   12.2700   16.2030   21.9780 C   0  0  0  0  0  0  0  0  0  0  0  0
   12.7930   15.1150   22.8690 C   0  0  0  0  0  0  0  0  0  0  0  0
   12.2270   13.8730   22.4790 O   0  0  0  0  0  0  0  0  0  0  0  0
   11.2100   13.4580   23.2700 C   0  0  0  0  0  0  0  0  0  0  0  0
   11.2130   13.8130   24.4380 O   0  0  0  0  0  0  0  0  0  0  0  0
   10.2070   12.6720   22.7630 N   0  0  0  0  0  0  0  0  0  0  0  0
    9.4390   11.7240   23.4630 C   0  0  0  0  0  0  0  0  0  0  0  0
    8.3900   12.0730   24.3070 C   0  0  0  0  0  0  0  0  0  0  0  0
    7.8160   13.3950   24.6930 C   0  0  0  0  0  0  0  0  0  0  0  0
    7.0010   13.3790   25.8420 C   0  0  0  0  0  0  0  0  0  0  0  0
    6.8040   14.6790   26.5670 C   0  0  0  0  0  0  0  0  0  0  0  0
    7.7690   14.9130   27.4780 F   0  0  0  0  0  0  0  0  0  0  0  0
    6.8010   15.7220   25.7110 F   0  0  0  0  0  0  0  0  0  0  0  0
    5.6200   14.6890   27.2230 F   0  0  0  0  0  0  0  0  0  0  0  0
    7.9080   10.8800   24.7780 N   0  0  0  0  0  0  0  0  0  0  0  0
    6.8340   10.6880   25.6600 C   0  0  0  0  0  0  0  0  0  0  0  0
    8.5720    9.8090   24.3050 N   0  0  0  0  0  0  0  0  0  0  0  0
    9.5050   10.3170   23.5030 C   0  0  0  0  0  0  0  0  0  0  0  0
   12.9970   16.4050   21.1930 H   0  0  0  0  0  0  0  0  0  0  0  0
   11.3230   15.9120   21.5090 H   0  0  0  0  0  0  0  0  0  0  0  0
   12.0860   17.1190   22.5410 H   0  0  0  0  0  0  0  0  0  0  0  0
   12.6220   15.3350   23.9280 H   0  0  0  0  0  0  0  0  0  0  0  0
   13.8750   15.0250   22.7320 H   0  0  0  0  0  0  0  0  0  0  0  0
    9.7860   13.0580   21.9200 H   0  0  0  0  0  0  0  0  0  0  0  0
    7.1580   13.7320   23.8860 H   0  0  0  0  0  0  0  0  0  0  0  0
    8.6450   14.1100   24.6930 H   0  0  0  0  0  0  0  0  0  0  0  0
    7.1980   12.5450   26.5110 H   0  0  0  0  0  0  0  0  0  0  0  0
    6.0040   13.1510   25.4470 H   0  0  0  0  0  0  0  0  0  0  0  0
    7.1920   10.6190   26.6790 H   0  0  0  0  0  0  0  0  0  0  0  0
    6.1400   11.5240   25.5780 H   0  0  0  0  0  0  0  0  0  0  0  0
    6.3260    9.7840   25.3710 H   0  0  0  0  0  0  0  0  0  0  0  0
   10.1830    9.6490   22.9890 H   0  0  0  0  0  0  0  0  0  0  0  0
  1  2  1  0
  2  3  1  0
  3  4  1  0
  4  5  2  0
  4  6  1  0
  6  7  1  0
  7  8  2  0
  8  9  1  0
  9 10  1  0
 10 11  1  0
 11 12  1  0
 11 13  1  0
 11 14  1  0
  8 15  1  0
 15 16  1  0
 15 17  1  0
 17 18  2  0
 18  7  1  0
  1 19  1  0
  1 20  1  0
  1 21  1  0
  2 22  1  0
  2 23  1  0
  6 24  1  0
  9 25  1  0
  9 26  1  0
 10 27  1  0
 10 28  1  0
 16 29  1  0
 16 30  1  0
 16 31  1  0
 18 32  1  0
A    1
 C1 
A    2
 C2 
A    3
 O1 
A    4
 C3 
A    5
 O2 
A    6
 N1 
A    7
 C4 
A    8
 C5 
A    9
 C6 
A   10
 C7 
A   11
 C8 
A   12
 F1 
A   13
 F2 
A   14
 F3 
A   15
 N2 
A   16
 C9 
A   17
 N3 
A   18
 C10
A   19
 H1 
A   20
 H2 
A   21
 H3 
A   22
 H4 
A   23
 H5 
A   24
 H6 
A   25
 H7 
A   26
 H8 
A   27
 H9 
A   28
 H10
A   29
 H11
A   30
 H12
A   31
 H13
A   32
 H14
M  END
>  <ref_pdb>  (61) 
x0310_0A

>  <ref_mols>  (61) 
x0310_0A,x0566_0A

>  <original SMILES>  (61) 
CCOC(=O)Nc1cnn(C)c1CCC(F)(F)F

>  <rationale>  (61) 
info halogenbond:S87+A86; hbond:S125; hydroph_interaction:Y89+Y90; 

>  <intxn_cluster>  (61) 
204

>  <intxn_cluster_rank>  (61) 
17

>  <N_interactions>  (61) 
5

>  <∆∆G>  (61) 
-8.193593

>  <$/mg>  (61) 
nan

>  <comRMSD>  (61) 
0.545699

>  <N_rotatable_bonds>  (61) 
6

>  <N_analogues_07>  (61) 
0

>  <deep_P1_sidechain>  (61) 
False

>  <farthest_distance_to_substrate>  (61) 
3.713722

>  <hbond:SER:7>  (61) 
hbond:SER:7    0
hbond:SER:7    0
Name: 60, dtype: object

>  <halogenbond:SER:7>  (61) 
halogenbond:SER:7    0
halogenbond:SER:7    0
Name: 60, dtype: object

>  <hbond:GLY:8>  (61) 
hbond:GLY:8    0
hbond:GLY:8    0
Name: 60, dtype: object

>  <hydroph_interaction:ASN:19>  (61) 
hydroph_interaction:ASN:19    0
hydroph_interaction:ASN:19    0
Name: 60, dtype: object

>  <hbond:ASN:19>  (61) 
hbond:ASN:19    0
hbond:ASN:19    0
Name: 60, dtype: object

>  <halogenbond:ASN:19>  (61) 
halogenbond:ASN:19    0
halogenbond:ASN:19    0
Name: 60, dtype: object

>  <hbond:ARG:20>  (61) 
hbond:ARG:20    0
hbond:ARG:20    0
Name: 60, dtype: object

>  <hydroph_interaction:ARG:20>  (61) 
hydroph_interaction:ARG:20    0
hydroph_interaction:ARG:20    0
Name: 60, dtype: object

>  <saltbridge:ARG:20>  (61) 
saltbridge:ARG:20    0
saltbridge:ARG:20    0
Name: 60, dtype: object

>  <halogenbond:ARG:20>  (61) 
halogenbond:ARG:20    0
halogenbond:ARG:20    0
Name: 60, dtype: object

>  <pication:ARG:20>  (61) 
pication:ARG:20    0
pication:ARG:20    0
Name: 60, dtype: object

>  <hbond:HIS:21>  (61) 
hbond:HIS:21    0
hbond:HIS:21    0
Name: 60, dtype: object

>  <hydroph_interaction:HIS:21>  (61) 
hydroph_interaction:HIS:21    0
hydroph_interaction:HIS:21    0
Name: 60, dtype: object

>  <saltbridge:HIS:21>  (61) 
saltbridge:HIS:21    0
saltbridge:HIS:21    0
Name: 60, dtype: object

>  <pistack:HIS:21>  (61) 
pistack:HIS:21    0
pistack:HIS:21    0
Name: 60, dtype: object

>  <pication:HIS:21>  (61) 
pication:HIS:21    0
pication:HIS:21    0
Name: 60, dtype: object

>  <halogenbond:HIS:21>  (61) 
halogenbond:HIS:21    0
halogenbond:HIS:21    0
Name: 60, dtype: object

>  <hydroph_interaction:LEU:22>  (61) 
hydroph_interaction:LEU:22    0
hydroph_interaction:LEU:22    0
Name: 60, dtype: object

>  <hbond:LEU:22>  (61) 
hbond:LEU:22    0
hbond:LEU:22    0
Name: 60, dtype: object

>  <hydroph_interaction:TRP:28>  (61) 
hydroph_interaction:TRP:28    0
hydroph_interaction:TRP:28    0
Name: 60, dtype: object

>  <hbond:SER:36>  (61) 
hbond:SER:36    0
hbond:SER:36    0
Name: 60, dtype: object

>  <halogenbond:SER:36>  (61) 
halogenbond:SER:36    0
halogenbond:SER:36    0
Name: 60, dtype: object

>  <hbond:ARG:38>  (61) 
hbond:ARG:38    0
hbond:ARG:38    0
Name: 60, dtype: object

>  <halogenbond:ARG:38>  (61) 
halogenbond:ARG:38    0
halogenbond:ARG:38    0
Name: 60, dtype: object

>  <hbond:ASP:39>  (61) 
hbond:ASP:39    0
hbond:ASP:39    0
Name: 60, dtype: object

>  <saltbridge:ASP:39>  (61) 
saltbridge:ASP:39    0
saltbridge:ASP:39    0
Name: 60, dtype: object

>  <hydroph_interaction:ASP:39>  (61) 
hydroph_interaction:ASP:39    0
hydroph_interaction:ASP:39    0
Name: 60, dtype: object

>  <halogenbond:ASP:39>  (61) 
halogenbond:ASP:39    0
halogenbond:ASP:39    0
Name: 60, dtype: object

>  <hydroph_interaction:LEU:40>  (61) 
hydroph_interaction:LEU:40    0
hydroph_interaction:LEU:40    0
Name: 60, dtype: object

>  <hydroph_interaction:TYR:63>  (61) 
hydroph_interaction:TYR:63    0
hydroph_interaction:TYR:63    0
Name: 60, dtype: object

>  <pistack:TYR:63>  (61) 
pistack:TYR:63    0
pistack:TYR:63    0
Name: 60, dtype: object

>  <hbond:TYR:63>  (61) 
hbond:TYR:63    0
hbond:TYR:63    0
Name: 60, dtype: object

>  <hbond:TYR:64>  (61) 
hbond:TYR:64    0
hbond:TYR:64    0
Name: 60, dtype: object

>  <halogenbond:TYR:64>  (61) 
halogenbond:TYR:64    0
halogenbond:TYR:64    0
Name: 60, dtype: object

>  <hydroph_interaction:TYR:64>  (61) 
hydroph_interaction:TYR:64    0
hydroph_interaction:TYR:64    0
Name: 60, dtype: object

>  <hbond:CYS:65>  (61) 
hbond:CYS:65    0
hbond:CYS:65    0
Name: 60, dtype: object

>  <halogenbond:CYS:65>  (61) 
halogenbond:CYS:65    0
halogenbond:CYS:65    0
Name: 60, dtype: object

>  <hbond:SER:66>  (61) 
hbond:SER:66    0
hbond:SER:66    0
Name: 60, dtype: object

>  <hbond:SER:67>  (61) 
hbond:SER:67    0
hbond:SER:67    0
Name: 60, dtype: object

>  <halogenbond:SER:67>  (61) 
halogenbond:SER:67    0
halogenbond:SER:67    0
Name: 60, dtype: object

>  <hydroph_interaction:ARG:68>  (61) 
hydroph_interaction:ARG:68    0
hydroph_interaction:ARG:68    0
Name: 60, dtype: object

>  <hbond:ARG:68>  (61) 
hbond:ARG:68    0
hbond:ARG:68    0
Name: 60, dtype: object

>  <saltbridge:ARG:68>  (61) 
saltbridge:ARG:68    0
saltbridge:ARG:68    0
Name: 60, dtype: object

>  <pication:ARG:68>  (61) 
pication:ARG:68    0
pication:ARG:68    0
Name: 60, dtype: object

>  <hydroph_interaction:TYR:72>  (61) 
hydroph_interaction:TYR:72    0
hydroph_interaction:TYR:72    0
Name: 60, dtype: object

>  <hydroph_interaction:VAL:74>  (61) 
hydroph_interaction:VAL:74    0
hydroph_interaction:VAL:74    0
Name: 60, dtype: object

>  <hydroph_interaction:PHE:76>  (61) 
hydroph_interaction:PHE:76    0
hydroph_interaction:PHE:76    0
Name: 60, dtype: object

>  <hbond:SER:77>  (61) 
hbond:SER:77    0
hbond:SER:77    0
Name: 60, dtype: object

>  <hbond:SER:80>  (61) 
hbond:SER:80    0
hbond:SER:80    0
Name: 60, dtype: object

>  <hbond:LEU:81>  (61) 
hbond:LEU:81    0
hbond:LEU:81    0
Name: 60, dtype: object

>  <halogenbond:LEU:81>  (61) 
halogenbond:LEU:81    0
halogenbond:LEU:81    0
Name: 60, dtype: object

>  <hydroph_interaction:LEU:81>  (61) 
hydroph_interaction:LEU:81    0
hydroph_interaction:LEU:81    0
Name: 60, dtype: object

>  <hydroph_interaction:ILE:82>  (61) 
hydroph_interaction:ILE:82    0
hydroph_interaction:ILE:82    0
Name: 60, dtype: object

>  <hbond:ILE:82>  (61) 
hbond:ILE:82    0
hbond:ILE:82    0
Name: 60, dtype: object

>  <hydroph_interaction:PHE:83>  (61) 
hydroph_interaction:PHE:83    0
hydroph_interaction:PHE:83    0
Name: 60, dtype: object

>  <hbond:PHE:83>  (61) 
hbond:PHE:83    0
hbond:PHE:83    0
Name: 60, dtype: object

>  <halogenbond:PHE:83>  (61) 
halogenbond:PHE:83    0
halogenbond:PHE:83    0
Name: 60, dtype: object

>  <pistack:PHE:83>  (61) 
pistack:PHE:83    0
pistack:PHE:83    0
Name: 60, dtype: object

>  <hydroph_interaction:VAL:84>  (61) 
hydroph_interaction:VAL:84    0
hydroph_interaction:VAL:84    0
Name: 60, dtype: object

>  <hbond:VAL:84>  (61) 
hbond:VAL:84    0
hbond:VAL:84    0
Name: 60, dtype: object

>  <halogenbond:VAL:84>  (61) 
halogenbond:VAL:84    0
halogenbond:VAL:84    0
Name: 60, dtype: object

>  <hydroph_interaction:GLU:85>  (61) 
hydroph_interaction:GLU:85    0
hydroph_interaction:GLU:85    0
Name: 60, dtype: object

>  <hbond:GLU:85>  (61) 
hbond:GLU:85    0
hbond:GLU:85    0
Name: 60, dtype: object

>  <saltbridge:GLU:85>  (61) 
saltbridge:GLU:85    0
saltbridge:GLU:85    0
Name: 60, dtype: object

>  <halogenbond:GLU:85>  (61) 
halogenbond:GLU:85    0
halogenbond:GLU:85    0
Name: 60, dtype: object

>  <hbond:ALA:86>  (61) 
hbond:ALA:86    0
hbond:ALA:86    0
Name: 60, dtype: object

>  <halogenbond:ALA:86>  (61) 
halogenbond:ALA:86    1
halogenbond:ALA:86    1
Name: 60, dtype: object

>  <hydroph_interaction:ALA:86>  (61) 
hydroph_interaction:ALA:86    0
hydroph_interaction:ALA:86    0
Name: 60, dtype: object

>  <hbond:SER:87>  (61) 
hbond:SER:87    0
hbond:SER:87    0
Name: 60, dtype: object

>  <halogenbond:SER:87>  (61) 
halogenbond:SER:87    1
halogenbond:SER:87    1
Name: 60, dtype: object

>  <hbond:GLU:88>  (61) 
hbond:GLU:88    0
hbond:GLU:88    0
Name: 60, dtype: object

>  <hydroph_interaction:GLU:88>  (61) 
hydroph_interaction:GLU:88    0
hydroph_interaction:GLU:88    0
Name: 60, dtype: object

>  <halogenbond:GLU:88>  (61) 
halogenbond:GLU:88    0
halogenbond:GLU:88    0
Name: 60, dtype: object

>  <saltbridge:GLU:88>  (61) 
saltbridge:GLU:88    0
saltbridge:GLU:88    0
Name: 60, dtype: object

>  <hydroph_interaction:TYR:89>  (61) 
hydroph_interaction:TYR:89    1
hydroph_interaction:TYR:89    1
Name: 60, dtype: object

>  <pistack:TYR:89>  (61) 
pistack:TYR:89    0
pistack:TYR:89    0
Name: 60, dtype: object

>  <hbond:TYR:89>  (61) 
hbond:TYR:89    0
hbond:TYR:89    0
Name: 60, dtype: object

>  <halogenbond:TYR:89>  (61) 
halogenbond:TYR:89    0
halogenbond:TYR:89    0
Name: 60, dtype: object

>  <hbond:TYR:90>  (61) 
hbond:TYR:90    0
hbond:TYR:90    0
Name: 60, dtype: object

>  <hydroph_interaction:TYR:90>  (61) 
hydroph_interaction:TYR:90    1
hydroph_interaction:TYR:90    1
Name: 60, dtype: object

>  <pistack:TYR:90>  (61) 
pistack:TYR:90    0
pistack:TYR:90    0
Name: 60, dtype: object

>  <halogenbond:TYR:90>  (61) 
halogenbond:TYR:90    0
halogenbond:TYR:90    0
Name: 60, dtype: object

>  <pication:TYR:90>  (61) 
pication:TYR:90    0
pication:TYR:90    0
Name: 60, dtype: object

>  <hydroph_interaction:PRO:91>  (61) 
hydroph_interaction:PRO:91    0
hydroph_interaction:PRO:91    0
Name: 60, dtype: object

>  <halogenbond:PRO:91>  (61) 
halogenbond:PRO:91    0
halogenbond:PRO:91    0
Name: 60, dtype: object

>  <hbond:PRO:91>  (61) 
hbond:PRO:91    0
hbond:PRO:91    0
Name: 60, dtype: object

>  <hydroph_interaction:ALA:92>  (61) 
hydroph_interaction:ALA:92    0
hydroph_interaction:ALA:92    0
Name: 60, dtype: object

>  <hbond:ARG:93>  (61) 
hbond:ARG:93    0
hbond:ARG:93    0
Name: 60, dtype: object

>  <pication:ARG:93>  (61) 
pication:ARG:93    0
pication:ARG:93    0
Name: 60, dtype: object

>  <saltbridge:ARG:93>  (61) 
saltbridge:ARG:93    0
saltbridge:ARG:93    0
Name: 60, dtype: object

>  <hydroph_interaction:ARG:93>  (61) 
hydroph_interaction:ARG:93    0
hydroph_interaction:ARG:93    0
Name: 60, dtype: object

>  <halogenbond:ARG:93>  (61) 
halogenbond:ARG:93    0
halogenbond:ARG:93    0
Name: 60, dtype: object

>  <hydroph_interaction:TYR:94>  (61) 
hydroph_interaction:TYR:94    0
hydroph_interaction:TYR:94    0
Name: 60, dtype: object

>  <hbond:TYR:94>  (61) 
hbond:TYR:94    0
hbond:TYR:94    0
Name: 60, dtype: object

>  <halogenbond:GLN:95>  (61) 
halogenbond:GLN:95    0
halogenbond:GLN:95    0
Name: 60, dtype: object

>  <hbond:GLN:95>  (61) 
hbond:GLN:95    0
hbond:GLN:95    0
Name: 60, dtype: object

>  <hydroph_interaction:GLN:95>  (61) 
hydroph_interaction:GLN:95    0
hydroph_interaction:GLN:95    0
Name: 60, dtype: object

>  <hbond:SER:96>  (61) 
hbond:SER:96    0
hbond:SER:96    0
Name: 60, dtype: object

>  <hydroph_interaction:LEU:98>  (61) 
hydroph_interaction:LEU:98    0
hydroph_interaction:LEU:98    0
Name: 60, dtype: object

>  <hbond:LEU:98>  (61) 
hbond:LEU:98    0
hbond:LEU:98    0
Name: 60, dtype: object

>  <hbond:MET:99>  (61) 
hbond:MET:99    0
hbond:MET:99    0
Name: 60, dtype: object

>  <hydroph_interaction:MET:99>  (61) 
hydroph_interaction:MET:99    0
hydroph_interaction:MET:99    0
Name: 60, dtype: object

>  <halogenbond:MET:99>  (61) 
halogenbond:MET:99    0
halogenbond:MET:99    0
Name: 60, dtype: object

>  <hydroph_interaction:LEU:100>  (61) 
hydroph_interaction:LEU:100    0
hydroph_interaction:LEU:100    0
Name: 60, dtype: object

>  <hbond:LEU:100>  (61) 
hbond:LEU:100    0
hbond:LEU:100    0
Name: 60, dtype: object

>  <hbond:ALA:101>  (61) 
hbond:ALA:101    0
hbond:ALA:101    0
Name: 60, dtype: object

>  <hydroph_interaction:ALA:101>  (61) 
hydroph_interaction:ALA:101    0
hydroph_interaction:ALA:101    0
Name: 60, dtype: object

>  <hydroph_interaction:VAL:102>  (61) 
hydroph_interaction:VAL:102    0
hydroph_interaction:VAL:102    0
Name: 60, dtype: object

>  <hbond:VAL:102>  (61) 
hbond:VAL:102    0
hbond:VAL:102    0
Name: 60, dtype: object

>  <hbond:GLY:103>  (61) 
hbond:GLY:103    0
hbond:GLY:103    0
Name: 60, dtype: object

>  <halogenbond:GLY:103>  (61) 
halogenbond:GLY:103    0
halogenbond:GLY:103    0
Name: 60, dtype: object

>  <hydroph_interaction:HIS:104>  (61) 
hydroph_interaction:HIS:104    0
hydroph_interaction:HIS:104    0
Name: 60, dtype: object

>  <hbond:HIS:104>  (61) 
hbond:HIS:104    0
hbond:HIS:104    0
Name: 60, dtype: object

>  <saltbridge:HIS:104>  (61) 
saltbridge:HIS:104    0
saltbridge:HIS:104    0
Name: 60, dtype: object

>  <pication:HIS:104>  (61) 
pication:HIS:104    0
pication:HIS:104    0
Name: 60, dtype: object

>  <pistack:HIS:104>  (61) 
pistack:HIS:104    0
pistack:HIS:104    0
Name: 60, dtype: object

>  <halogenbond:HIS:104>  (61) 
halogenbond:HIS:104    0
halogenbond:HIS:104    0
Name: 60, dtype: object

>  <hbond:SER:105>  (61) 
hbond:SER:105    0
hbond:SER:105    0
Name: 60, dtype: object

>  <halogenbond:SER:105>  (61) 
halogenbond:SER:105    0
halogenbond:SER:105    0
Name: 60, dtype: object

>  <hbond:GLU:106>  (61) 
hbond:GLU:106    0
hbond:GLU:106    0
Name: 60, dtype: object

>  <hydroph_interaction:GLU:106>  (61) 
hydroph_interaction:GLU:106    0
hydroph_interaction:GLU:106    0
Name: 60, dtype: object

>  <saltbridge:GLU:106>  (61) 
saltbridge:GLU:106    0
saltbridge:GLU:106    0
Name: 60, dtype: object

>  <halogenbond:GLU:106>  (61) 
halogenbond:GLU:106    0
halogenbond:GLU:106    0
Name: 60, dtype: object

>  <hydroph_interaction:PRO:107>  (61) 
hydroph_interaction:PRO:107    0
hydroph_interaction:PRO:107    0
Name: 60, dtype: object

>  <hbond:PRO:107>  (61) 
hbond:PRO:107    0
hbond:PRO:107    0
Name: 60, dtype: object

>  <halogenbond:PRO:107>  (61) 
halogenbond:PRO:107    0
halogenbond:PRO:107    0
Name: 60, dtype: object

>  <hbond:GLY:108>  (61) 
hbond:GLY:108    0
hbond:GLY:108    0
Name: 60, dtype: object

>  <halogenbond:GLY:108>  (61) 
halogenbond:GLY:108    0
halogenbond:GLY:108    0
Name: 60, dtype: object

>  <hbond:ASP:109>  (61) 
hbond:ASP:109    0
hbond:ASP:109    0
Name: 60, dtype: object

>  <hydroph_interaction:ASP:109>  (61) 
hydroph_interaction:ASP:109    0
hydroph_interaction:ASP:109    0
Name: 60, dtype: object

>  <saltbridge:ASP:109>  (61) 
saltbridge:ASP:109    0
saltbridge:ASP:109    0
Name: 60, dtype: object

>  <hbond:CYS:110>  (61) 
hbond:CYS:110    0
hbond:CYS:110    0
Name: 60, dtype: object

>  <halogenbond:CYS:110>  (61) 
halogenbond:CYS:110    0
halogenbond:CYS:110    0
Name: 60, dtype: object

>  <hbond:GLY:111>  (61) 
hbond:GLY:111    0
hbond:GLY:111    0
Name: 60, dtype: object

>  <hbond:GLY:112>  (61) 
hbond:GLY:112    0
hbond:GLY:112    0
Name: 60, dtype: object

>  <hbond:ILE:113>  (61) 
hbond:ILE:113    0
hbond:ILE:113    0
Name: 60, dtype: object

>  <hydroph_interaction:LEU:114>  (61) 
hydroph_interaction:LEU:114    0
hydroph_interaction:LEU:114    0
Name: 60, dtype: object

>  <hbond:LEU:114>  (61) 
hbond:LEU:114    0
hbond:LEU:114    0
Name: 60, dtype: object

>  <hydroph_interaction:ILE:123>  (61) 
hydroph_interaction:ILE:123    0
hydroph_interaction:ILE:123    0
Name: 60, dtype: object

>  <hbond:ILE:123>  (61) 
hbond:ILE:123    0
hbond:ILE:123    0
Name: 60, dtype: object

>  <hydroph_interaction:VAL:124>  (61) 
hydroph_interaction:VAL:124    0
hydroph_interaction:VAL:124    0
Name: 60, dtype: object

>  <hbond:VAL:124>  (61) 
hbond:VAL:124    0
hbond:VAL:124    0
Name: 60, dtype: object

>  <halogenbond:VAL:124>  (61) 
halogenbond:VAL:124    0
halogenbond:VAL:124    0
Name: 60, dtype: object

>  <hbond:SER:125>  (61) 
hbond:SER:125    1
hbond:SER:125    1
Name: 60, dtype: object

>  <halogenbond:SER:125>  (61) 
halogenbond:SER:125    0
halogenbond:SER:125    0
Name: 60, dtype: object

>  <hydroph_interaction:THR:126>  (61) 
hydroph_interaction:THR:126    0
hydroph_interaction:THR:126    0
Name: 60, dtype: object

>  <hbond:THR:126>  (61) 
hbond:THR:126    0
hbond:THR:126    0
Name: 60, dtype: object

>  <halogenbond:THR:126>  (61) 
halogenbond:THR:126    0
halogenbond:THR:126    0
Name: 60, dtype: object

>  <hbond:GLY:127>  (61) 
hbond:GLY:127    0
hbond:GLY:127    0
Name: 60, dtype: object

>  <halogenbond:GLY:127>  (61) 
halogenbond:GLY:127    0
halogenbond:GLY:127    0
Name: 60, dtype: object

>  <hydroph_interaction:GLY:127>  (61) 
hydroph_interaction:GLY:127    0
hydroph_interaction:GLY:127    0
Name: 60, dtype: object

>  <hbond:GLY:128>  (61) 
hbond:GLY:128    0
hbond:GLY:128    0
Name: 60, dtype: object

>  <halogenbond:GLY:128>  (61) 
halogenbond:GLY:128    0
halogenbond:GLY:128    0
Name: 60, dtype: object

>  <hydroph_interaction:GLY:128>  (61) 
hydroph_interaction:GLY:128    0
hydroph_interaction:GLY:128    0
Name: 60, dtype: object

>  <hbond:ASN:129>  (61) 
hbond:ASN:129    0
hbond:ASN:129    0
Name: 60, dtype: object

>  <hydroph_interaction:ASN:129>  (61) 
hydroph_interaction:ASN:129    0
hydroph_interaction:ASN:129    0
Name: 60, dtype: object

>  <halogenbond:ASN:129>  (61) 
halogenbond:ASN:129    0
halogenbond:ASN:129    0
Name: 60, dtype: object

>  <hbond:GLY:130>  (61) 
hbond:GLY:130    0
hbond:GLY:130    0
Name: 60, dtype: object

>  <hydroph_interaction:LEU:131>  (61) 
hydroph_interaction:LEU:131    0
hydroph_interaction:LEU:131    0
Name: 60, dtype: object

>  <hbond:LEU:131>  (61) 
hbond:LEU:131    0
hbond:LEU:131    0
Name: 60, dtype: object

>  <halogenbond:LEU:131>  (61) 
halogenbond:LEU:131    0
halogenbond:LEU:131    0
Name: 60, dtype: object

>  <hydroph_interaction:VAL:132>  (61) 
hydroph_interaction:VAL:132    0
hydroph_interaction:VAL:132    0
Name: 60, dtype: object

>  <hbond:VAL:132>  (61) 
hbond:VAL:132    0
hbond:VAL:132    0
Name: 60, dtype: object

>  <hbond:GLY:133>  (61) 
hbond:GLY:133    0
hbond:GLY:133    0
Name: 60, dtype: object

>  <halogenbond:GLY:133>  (61) 
halogenbond:GLY:133    0
halogenbond:GLY:133    0
Name: 60, dtype: object

>  <hydroph_interaction:PHE:134>  (61) 
hydroph_interaction:PHE:134    0
hydroph_interaction:PHE:134    0
Name: 60, dtype: object

>  <hbond:PHE:134>  (61) 
hbond:PHE:134    0
hbond:PHE:134    0
Name: 60, dtype: object

>  <pistack:PHE:134>  (61) 
pistack:PHE:134    0
pistack:PHE:134    0
Name: 60, dtype: object

>  <pication:PHE:134>  (61) 
pication:PHE:134    0
pication:PHE:134    0
Name: 60, dtype: object

>  <hydroph_interaction:ALA:135>  (61) 
hydroph_interaction:ALA:135    0
hydroph_interaction:ALA:135    0
Name: 60, dtype: object

>  <hbond:ALA:135>  (61) 
hbond:ALA:135    0
hbond:ALA:135    0
Name: 60, dtype: object

$$$$
PV_003585554678
     RDKit          3D

 31 33  0  0  0  0  0  0  0  0999 V2000
   13.3960   16.2820   20.4710 C   0  0  0  0  0  0  0  0  0  0  0  0
   12.3220   15.4300   21.0150 C   0  0  0  0  0  0  0  0  0  0  0  0
   10.8550   15.5790   20.6110 C   0  0  0  0  0  0  0  0  0  0  0  0
    9.8920   14.6020   21.2660 C   0  0  0  0  0  0  0  0  0  0  0  0
   10.4520   13.6290   22.2040 C   0  0  0  0  0  0  0  0  0  0  0  0
    9.7520   12.6010   22.9140 C   0  0  0  0  0  0  0  0  0  0  0  0
   10.1300   11.3250   22.6230 C   0  0  0  0  0  0  0  0  0  0  0  0
    9.4230   10.4750   23.3350 N   0  0  0  0  0  0  0  0  0  0  0  0
    9.6190    9.0710   23.2180 C   0  0  0  0  0  0  0  0  0  0  0  0
    8.5420   11.1480   24.1450 C   0  0  0  0  0  0  0  0  0  0  0  0
    7.6020   10.6810   25.0720 C   0  0  0  0  0  0  0  0  0  0  0  0
    6.8310   11.5440   25.7720 N   0  0  0  0  0  0  0  0  0  0  0  0
    6.9980   12.8630   25.5470 C   0  0  0  0  0  0  0  0  0  0  0  0
    7.9260   13.3940   24.6290 C   0  0  0  0  0  0  0  0  0  0  0  0
    8.7250   12.5150   23.9020 C   0  0  0  0  0  0  0  0  0  0  0  0
   11.8010   13.6070   22.4840 C   0  0  0  0  0  0  0  0  0  0  0  0
   12.7130   14.4770   21.9160 C   0  0  0  0  0  0  0  0  0  0  0  0
   13.0900   17.3270   20.4800 H   0  0  0  0  0  0  0  0  0  0  0  0
   14.2700   16.1620   21.0990 H   0  0  0  0  0  0  0  0  0  0  0  0
   13.6650   15.9300   19.4800 H   0  0  0  0  0  0  0  0  0  0  0  0
   10.6170   16.3660   19.8900 H   0  0  0  0  0  0  0  0  0  0  0  0
    8.8220   14.6150   21.0460 H   0  0  0  0  0  0  0  0  0  0  0  0
   10.8720   10.9650   21.9400 H   0  0  0  0  0  0  0  0  0  0  0  0
   10.6920    8.8650   23.2670 H   0  0  0  0  0  0  0  0  0  0  0  0
    9.0970    8.6170   24.0530 H   0  0  0  0  0  0  0  0  0  0  0  0
    9.2220    8.7060   22.2820 H   0  0  0  0  0  0  0  0  0  0  0  0
    7.4640    9.6300   25.2540 H   0  0  0  0  0  0  0  0  0  0  0  0
    6.3590   13.5210   26.1300 H   0  0  0  0  0  0  0  0  0  0  0  0
    8.0180   14.4680   24.4870 H   0  0  0  0  0  0  0  0  0  0  0  0
   12.1790   12.8690   23.1870 H   0  0  0  0  0  0  0  0  0  0  0  0
   13.7590   14.3890   22.1930 H   0  0  0  0  0  0  0  0  0  0  0  0
  1  2  1  0
  2  3  2  0
  3  4  1  0
  4  5  2  0
  5  6  1  0
  6  7  2  0
  7  8  1  0
  8  9  1  0
  8 10  1  0
 10 11  2  0
 11 12  1  0
 12 13  2  0
 13 14  1  0
 14 15  2  0
  5 16  1  0
 16 17  2  0
 17  2  1  0
 15  6  1  0
 15 10  1  0
  1 18  1  0
  1 19  1  0
  1 20  1  0
  3 21  1  0
  4 22  1  0
  7 23  1  0
  9 24  1  0
  9 25  1  0
  9 26  1  0
 11 27  1  0
 13 28  1  0
 14 29  1  0
 16 30  1  0
 17 31  1  0
A    1
 C1 
A    2
 C2 
A    3
 C3 
A    4
 C4 
A    5
 C5 
A    6
 C6 
A    7
 C7 
A    8
 N1 
A    9
 C8 
A   10
 C9 
A   11
 C10
A   12
 N2 
A   13
 C11
A   14
 C12
A   15
 C13
A   16
 C14
A   17
 C15
A   18
 H1 
A   19
 H2 
A   20
 H3 
A   21
 H4 
A   22
 H5 
A   23
 H6 
A   24
 H7 
A   25
 H8 
A   26
 H9 
A   27
 H10
A   28
 H11
A   29
 H12
A   30
 H13
A   31
 H14
M  END
>  <ref_pdb>  (62) 
x0310_0A

>  <ref_mols>  (62) 
x0451_0A,x0812_0A

>  <original SMILES>  (62) 
Cc1ccc(-c2cn(C)c3cnccc23)cc1

>  <rationale>  (62) 
info hydroph_interaction:Y89+Y90+H21; 

>  <intxn_cluster>  (62) 
206

>  <intxn_cluster_rank>  (62) 
17

>  <N_interactions>  (62) 
3

>  <∆∆G>  (62) 
-10.97634

>  <$/mg>  (62) 
163.0

>  <comRMSD>  (62) 
0.849253

>  <N_rotatable_bonds>  (62) 
3

>  <N_analogues_07>  (62) 
9

>  <deep_P1_sidechain>  (62) 
False

>  <farthest_distance_to_substrate>  (62) 
2.510167

>  <hbond:SER:7>  (62) 
hbond:SER:7    0
hbond:SER:7    0
Name: 61, dtype: object

>  <halogenbond:SER:7>  (62) 
halogenbond:SER:7    0
halogenbond:SER:7    0
Name: 61, dtype: object

>  <hbond:GLY:8>  (62) 
hbond:GLY:8    0
hbond:GLY:8    0
Name: 61, dtype: object

>  <hydroph_interaction:ASN:19>  (62) 
hydroph_interaction:ASN:19    0
hydroph_interaction:ASN:19    0
Name: 61, dtype: object

>  <hbond:ASN:19>  (62) 
hbond:ASN:19    0
hbond:ASN:19    0
Name: 61, dtype: object

>  <halogenbond:ASN:19>  (62) 
halogenbond:ASN:19    0
halogenbond:ASN:19    0
Name: 61, dtype: object

>  <hbond:ARG:20>  (62) 
hbond:ARG:20    0
hbond:ARG:20    0
Name: 61, dtype: object

>  <hydroph_interaction:ARG:20>  (62) 
hydroph_interaction:ARG:20    0
hydroph_interaction:ARG:20    0
Name: 61, dtype: object

>  <saltbridge:ARG:20>  (62) 
saltbridge:ARG:20    0
saltbridge:ARG:20    0
Name: 61, dtype: object

>  <halogenbond:ARG:20>  (62) 
halogenbond:ARG:20    0
halogenbond:ARG:20    0
Name: 61, dtype: object

>  <pication:ARG:20>  (62) 
pication:ARG:20    0
pication:ARG:20    0
Name: 61, dtype: object

>  <hbond:HIS:21>  (62) 
hbond:HIS:21    0
hbond:HIS:21    0
Name: 61, dtype: object

>  <hydroph_interaction:HIS:21>  (62) 
hydroph_interaction:HIS:21    1
hydroph_interaction:HIS:21    1
Name: 61, dtype: object

>  <saltbridge:HIS:21>  (62) 
saltbridge:HIS:21    0
saltbridge:HIS:21    0
Name: 61, dtype: object

>  <pistack:HIS:21>  (62) 
pistack:HIS:21    0
pistack:HIS:21    0
Name: 61, dtype: object

>  <pication:HIS:21>  (62) 
pication:HIS:21    0
pication:HIS:21    0
Name: 61, dtype: object

>  <halogenbond:HIS:21>  (62) 
halogenbond:HIS:21    0
halogenbond:HIS:21    0
Name: 61, dtype: object

>  <hydroph_interaction:LEU:22>  (62) 
hydroph_interaction:LEU:22    0
hydroph_interaction:LEU:22    0
Name: 61, dtype: object

>  <hbond:LEU:22>  (62) 
hbond:LEU:22    0
hbond:LEU:22    0
Name: 61, dtype: object

>  <hydroph_interaction:TRP:28>  (62) 
hydroph_interaction:TRP:28    0
hydroph_interaction:TRP:28    0
Name: 61, dtype: object

>  <hbond:SER:36>  (62) 
hbond:SER:36    0
hbond:SER:36    0
Name: 61, dtype: object

>  <halogenbond:SER:36>  (62) 
halogenbond:SER:36    0
halogenbond:SER:36    0
Name: 61, dtype: object

>  <hbond:ARG:38>  (62) 
hbond:ARG:38    0
hbond:ARG:38    0
Name: 61, dtype: object

>  <halogenbond:ARG:38>  (62) 
halogenbond:ARG:38    0
halogenbond:ARG:38    0
Name: 61, dtype: object

>  <hbond:ASP:39>  (62) 
hbond:ASP:39    0
hbond:ASP:39    0
Name: 61, dtype: object

>  <saltbridge:ASP:39>  (62) 
saltbridge:ASP:39    0
saltbridge:ASP:39    0
Name: 61, dtype: object

>  <hydroph_interaction:ASP:39>  (62) 
hydroph_interaction:ASP:39    0
hydroph_interaction:ASP:39    0
Name: 61, dtype: object

>  <halogenbond:ASP:39>  (62) 
halogenbond:ASP:39    0
halogenbond:ASP:39    0
Name: 61, dtype: object

>  <hydroph_interaction:LEU:40>  (62) 
hydroph_interaction:LEU:40    0
hydroph_interaction:LEU:40    0
Name: 61, dtype: object

>  <hydroph_interaction:TYR:63>  (62) 
hydroph_interaction:TYR:63    0
hydroph_interaction:TYR:63    0
Name: 61, dtype: object

>  <pistack:TYR:63>  (62) 
pistack:TYR:63    0
pistack:TYR:63    0
Name: 61, dtype: object

>  <hbond:TYR:63>  (62) 
hbond:TYR:63    0
hbond:TYR:63    0
Name: 61, dtype: object

>  <hbond:TYR:64>  (62) 
hbond:TYR:64    0
hbond:TYR:64    0
Name: 61, dtype: object

>  <halogenbond:TYR:64>  (62) 
halogenbond:TYR:64    0
halogenbond:TYR:64    0
Name: 61, dtype: object

>  <hydroph_interaction:TYR:64>  (62) 
hydroph_interaction:TYR:64    0
hydroph_interaction:TYR:64    0
Name: 61, dtype: object

>  <hbond:CYS:65>  (62) 
hbond:CYS:65    0
hbond:CYS:65    0
Name: 61, dtype: object

>  <halogenbond:CYS:65>  (62) 
halogenbond:CYS:65    0
halogenbond:CYS:65    0
Name: 61, dtype: object

>  <hbond:SER:66>  (62) 
hbond:SER:66    0
hbond:SER:66    0
Name: 61, dtype: object

>  <hbond:SER:67>  (62) 
hbond:SER:67    0
hbond:SER:67    0
Name: 61, dtype: object

>  <halogenbond:SER:67>  (62) 
halogenbond:SER:67    0
halogenbond:SER:67    0
Name: 61, dtype: object

>  <hydroph_interaction:ARG:68>  (62) 
hydroph_interaction:ARG:68    0
hydroph_interaction:ARG:68    0
Name: 61, dtype: object

>  <hbond:ARG:68>  (62) 
hbond:ARG:68    0
hbond:ARG:68    0
Name: 61, dtype: object

>  <saltbridge:ARG:68>  (62) 
saltbridge:ARG:68    0
saltbridge:ARG:68    0
Name: 61, dtype: object

>  <pication:ARG:68>  (62) 
pication:ARG:68    0
pication:ARG:68    0
Name: 61, dtype: object

>  <hydroph_interaction:TYR:72>  (62) 
hydroph_interaction:TYR:72    0
hydroph_interaction:TYR:72    0
Name: 61, dtype: object

>  <hydroph_interaction:VAL:74>  (62) 
hydroph_interaction:VAL:74    0
hydroph_interaction:VAL:74    0
Name: 61, dtype: object

>  <hydroph_interaction:PHE:76>  (62) 
hydroph_interaction:PHE:76    0
hydroph_interaction:PHE:76    0
Name: 61, dtype: object

>  <hbond:SER:77>  (62) 
hbond:SER:77    0
hbond:SER:77    0
Name: 61, dtype: object

>  <hbond:SER:80>  (62) 
hbond:SER:80    0
hbond:SER:80    0
Name: 61, dtype: object

>  <hbond:LEU:81>  (62) 
hbond:LEU:81    0
hbond:LEU:81    0
Name: 61, dtype: object

>  <halogenbond:LEU:81>  (62) 
halogenbond:LEU:81    0
halogenbond:LEU:81    0
Name: 61, dtype: object

>  <hydroph_interaction:LEU:81>  (62) 
hydroph_interaction:LEU:81    0
hydroph_interaction:LEU:81    0
Name: 61, dtype: object

>  <hydroph_interaction:ILE:82>  (62) 
hydroph_interaction:ILE:82    0
hydroph_interaction:ILE:82    0
Name: 61, dtype: object

>  <hbond:ILE:82>  (62) 
hbond:ILE:82    0
hbond:ILE:82    0
Name: 61, dtype: object

>  <hydroph_interaction:PHE:83>  (62) 
hydroph_interaction:PHE:83    0
hydroph_interaction:PHE:83    0
Name: 61, dtype: object

>  <hbond:PHE:83>  (62) 
hbond:PHE:83    0
hbond:PHE:83    0
Name: 61, dtype: object

>  <halogenbond:PHE:83>  (62) 
halogenbond:PHE:83    0
halogenbond:PHE:83    0
Name: 61, dtype: object

>  <pistack:PHE:83>  (62) 
pistack:PHE:83    0
pistack:PHE:83    0
Name: 61, dtype: object

>  <hydroph_interaction:VAL:84>  (62) 
hydroph_interaction:VAL:84    0
hydroph_interaction:VAL:84    0
Name: 61, dtype: object

>  <hbond:VAL:84>  (62) 
hbond:VAL:84    0
hbond:VAL:84    0
Name: 61, dtype: object

>  <halogenbond:VAL:84>  (62) 
halogenbond:VAL:84    0
halogenbond:VAL:84    0
Name: 61, dtype: object

>  <hydroph_interaction:GLU:85>  (62) 
hydroph_interaction:GLU:85    0
hydroph_interaction:GLU:85    0
Name: 61, dtype: object

>  <hbond:GLU:85>  (62) 
hbond:GLU:85    0
hbond:GLU:85    0
Name: 61, dtype: object

>  <saltbridge:GLU:85>  (62) 
saltbridge:GLU:85    0
saltbridge:GLU:85    0
Name: 61, dtype: object

>  <halogenbond:GLU:85>  (62) 
halogenbond:GLU:85    0
halogenbond:GLU:85    0
Name: 61, dtype: object

>  <hbond:ALA:86>  (62) 
hbond:ALA:86    0
hbond:ALA:86    0
Name: 61, dtype: object

>  <halogenbond:ALA:86>  (62) 
halogenbond:ALA:86    0
halogenbond:ALA:86    0
Name: 61, dtype: object

>  <hydroph_interaction:ALA:86>  (62) 
hydroph_interaction:ALA:86    0
hydroph_interaction:ALA:86    0
Name: 61, dtype: object

>  <hbond:SER:87>  (62) 
hbond:SER:87    0
hbond:SER:87    0
Name: 61, dtype: object

>  <halogenbond:SER:87>  (62) 
halogenbond:SER:87    0
halogenbond:SER:87    0
Name: 61, dtype: object

>  <hbond:GLU:88>  (62) 
hbond:GLU:88    0
hbond:GLU:88    0
Name: 61, dtype: object

>  <hydroph_interaction:GLU:88>  (62) 
hydroph_interaction:GLU:88    0
hydroph_interaction:GLU:88    0
Name: 61, dtype: object

>  <halogenbond:GLU:88>  (62) 
halogenbond:GLU:88    0
halogenbond:GLU:88    0
Name: 61, dtype: object

>  <saltbridge:GLU:88>  (62) 
saltbridge:GLU:88    0
saltbridge:GLU:88    0
Name: 61, dtype: object

>  <hydroph_interaction:TYR:89>  (62) 
hydroph_interaction:TYR:89    1
hydroph_interaction:TYR:89    1
Name: 61, dtype: object

>  <pistack:TYR:89>  (62) 
pistack:TYR:89    0
pistack:TYR:89    0
Name: 61, dtype: object

>  <hbond:TYR:89>  (62) 
hbond:TYR:89    0
hbond:TYR:89    0
Name: 61, dtype: object

>  <halogenbond:TYR:89>  (62) 
halogenbond:TYR:89    0
halogenbond:TYR:89    0
Name: 61, dtype: object

>  <hbond:TYR:90>  (62) 
hbond:TYR:90    0
hbond:TYR:90    0
Name: 61, dtype: object

>  <hydroph_interaction:TYR:90>  (62) 
hydroph_interaction:TYR:90    1
hydroph_interaction:TYR:90    1
Name: 61, dtype: object

>  <pistack:TYR:90>  (62) 
pistack:TYR:90    0
pistack:TYR:90    0
Name: 61, dtype: object

>  <halogenbond:TYR:90>  (62) 
halogenbond:TYR:90    0
halogenbond:TYR:90    0
Name: 61, dtype: object

>  <pication:TYR:90>  (62) 
pication:TYR:90    0
pication:TYR:90    0
Name: 61, dtype: object

>  <hydroph_interaction:PRO:91>  (62) 
hydroph_interaction:PRO:91    0
hydroph_interaction:PRO:91    0
Name: 61, dtype: object

>  <halogenbond:PRO:91>  (62) 
halogenbond:PRO:91    0
halogenbond:PRO:91    0
Name: 61, dtype: object

>  <hbond:PRO:91>  (62) 
hbond:PRO:91    0
hbond:PRO:91    0
Name: 61, dtype: object

>  <hydroph_interaction:ALA:92>  (62) 
hydroph_interaction:ALA:92    0
hydroph_interaction:ALA:92    0
Name: 61, dtype: object

>  <hbond:ARG:93>  (62) 
hbond:ARG:93    0
hbond:ARG:93    0
Name: 61, dtype: object

>  <pication:ARG:93>  (62) 
pication:ARG:93    0
pication:ARG:93    0
Name: 61, dtype: object

>  <saltbridge:ARG:93>  (62) 
saltbridge:ARG:93    0
saltbridge:ARG:93    0
Name: 61, dtype: object

>  <hydroph_interaction:ARG:93>  (62) 
hydroph_interaction:ARG:93    0
hydroph_interaction:ARG:93    0
Name: 61, dtype: object

>  <halogenbond:ARG:93>  (62) 
halogenbond:ARG:93    0
halogenbond:ARG:93    0
Name: 61, dtype: object

>  <hydroph_interaction:TYR:94>  (62) 
hydroph_interaction:TYR:94    0
hydroph_interaction:TYR:94    0
Name: 61, dtype: object

>  <hbond:TYR:94>  (62) 
hbond:TYR:94    0
hbond:TYR:94    0
Name: 61, dtype: object

>  <halogenbond:GLN:95>  (62) 
halogenbond:GLN:95    0
halogenbond:GLN:95    0
Name: 61, dtype: object

>  <hbond:GLN:95>  (62) 
hbond:GLN:95    0
hbond:GLN:95    0
Name: 61, dtype: object

>  <hydroph_interaction:GLN:95>  (62) 
hydroph_interaction:GLN:95    0
hydroph_interaction:GLN:95    0
Name: 61, dtype: object

>  <hbond:SER:96>  (62) 
hbond:SER:96    0
hbond:SER:96    0
Name: 61, dtype: object

>  <hydroph_interaction:LEU:98>  (62) 
hydroph_interaction:LEU:98    0
hydroph_interaction:LEU:98    0
Name: 61, dtype: object

>  <hbond:LEU:98>  (62) 
hbond:LEU:98    0
hbond:LEU:98    0
Name: 61, dtype: object

>  <hbond:MET:99>  (62) 
hbond:MET:99    0
hbond:MET:99    0
Name: 61, dtype: object

>  <hydroph_interaction:MET:99>  (62) 
hydroph_interaction:MET:99    0
hydroph_interaction:MET:99    0
Name: 61, dtype: object

>  <halogenbond:MET:99>  (62) 
halogenbond:MET:99    0
halogenbond:MET:99    0
Name: 61, dtype: object

>  <hydroph_interaction:LEU:100>  (62) 
hydroph_interaction:LEU:100    0
hydroph_interaction:LEU:100    0
Name: 61, dtype: object

>  <hbond:LEU:100>  (62) 
hbond:LEU:100    0
hbond:LEU:100    0
Name: 61, dtype: object

>  <hbond:ALA:101>  (62) 
hbond:ALA:101    0
hbond:ALA:101    0
Name: 61, dtype: object

>  <hydroph_interaction:ALA:101>  (62) 
hydroph_interaction:ALA:101    0
hydroph_interaction:ALA:101    0
Name: 61, dtype: object

>  <hydroph_interaction:VAL:102>  (62) 
hydroph_interaction:VAL:102    0
hydroph_interaction:VAL:102    0
Name: 61, dtype: object

>  <hbond:VAL:102>  (62) 
hbond:VAL:102    0
hbond:VAL:102    0
Name: 61, dtype: object

>  <hbond:GLY:103>  (62) 
hbond:GLY:103    0
hbond:GLY:103    0
Name: 61, dtype: object

>  <halogenbond:GLY:103>  (62) 
halogenbond:GLY:103    0
halogenbond:GLY:103    0
Name: 61, dtype: object

>  <hydroph_interaction:HIS:104>  (62) 
hydroph_interaction:HIS:104    0
hydroph_interaction:HIS:104    0
Name: 61, dtype: object

>  <hbond:HIS:104>  (62) 
hbond:HIS:104    0
hbond:HIS:104    0
Name: 61, dtype: object

>  <saltbridge:HIS:104>  (62) 
saltbridge:HIS:104    0
saltbridge:HIS:104    0
Name: 61, dtype: object

>  <pication:HIS:104>  (62) 
pication:HIS:104    0
pication:HIS:104    0
Name: 61, dtype: object

>  <pistack:HIS:104>  (62) 
pistack:HIS:104    0
pistack:HIS:104    0
Name: 61, dtype: object

>  <halogenbond:HIS:104>  (62) 
halogenbond:HIS:104    0
halogenbond:HIS:104    0
Name: 61, dtype: object

>  <hbond:SER:105>  (62) 
hbond:SER:105    0
hbond:SER:105    0
Name: 61, dtype: object

>  <halogenbond:SER:105>  (62) 
halogenbond:SER:105    0
halogenbond:SER:105    0
Name: 61, dtype: object

>  <hbond:GLU:106>  (62) 
hbond:GLU:106    0
hbond:GLU:106    0
Name: 61, dtype: object

>  <hydroph_interaction:GLU:106>  (62) 
hydroph_interaction:GLU:106    0
hydroph_interaction:GLU:106    0
Name: 61, dtype: object

>  <saltbridge:GLU:106>  (62) 
saltbridge:GLU:106    0
saltbridge:GLU:106    0
Name: 61, dtype: object

>  <halogenbond:GLU:106>  (62) 
halogenbond:GLU:106    0
halogenbond:GLU:106    0
Name: 61, dtype: object

>  <hydroph_interaction:PRO:107>  (62) 
hydroph_interaction:PRO:107    0
hydroph_interaction:PRO:107    0
Name: 61, dtype: object

>  <hbond:PRO:107>  (62) 
hbond:PRO:107    0
hbond:PRO:107    0
Name: 61, dtype: object

>  <halogenbond:PRO:107>  (62) 
halogenbond:PRO:107    0
halogenbond:PRO:107    0
Name: 61, dtype: object

>  <hbond:GLY:108>  (62) 
hbond:GLY:108    0
hbond:GLY:108    0
Name: 61, dtype: object

>  <halogenbond:GLY:108>  (62) 
halogenbond:GLY:108    0
halogenbond:GLY:108    0
Name: 61, dtype: object

>  <hbond:ASP:109>  (62) 
hbond:ASP:109    0
hbond:ASP:109    0
Name: 61, dtype: object

>  <hydroph_interaction:ASP:109>  (62) 
hydroph_interaction:ASP:109    0
hydroph_interaction:ASP:109    0
Name: 61, dtype: object

>  <saltbridge:ASP:109>  (62) 
saltbridge:ASP:109    0
saltbridge:ASP:109    0
Name: 61, dtype: object

>  <hbond:CYS:110>  (62) 
hbond:CYS:110    0
hbond:CYS:110    0
Name: 61, dtype: object

>  <halogenbond:CYS:110>  (62) 
halogenbond:CYS:110    0
halogenbond:CYS:110    0
Name: 61, dtype: object

>  <hbond:GLY:111>  (62) 
hbond:GLY:111    0
hbond:GLY:111    0
Name: 61, dtype: object

>  <hbond:GLY:112>  (62) 
hbond:GLY:112    0
hbond:GLY:112    0
Name: 61, dtype: object

>  <hbond:ILE:113>  (62) 
hbond:ILE:113    0
hbond:ILE:113    0
Name: 61, dtype: object

>  <hydroph_interaction:LEU:114>  (62) 
hydroph_interaction:LEU:114    0
hydroph_interaction:LEU:114    0
Name: 61, dtype: object

>  <hbond:LEU:114>  (62) 
hbond:LEU:114    0
hbond:LEU:114    0
Name: 61, dtype: object

>  <hydroph_interaction:ILE:123>  (62) 
hydroph_interaction:ILE:123    0
hydroph_interaction:ILE:123    0
Name: 61, dtype: object

>  <hbond:ILE:123>  (62) 
hbond:ILE:123    0
hbond:ILE:123    0
Name: 61, dtype: object

>  <hydroph_interaction:VAL:124>  (62) 
hydroph_interaction:VAL:124    0
hydroph_interaction:VAL:124    0
Name: 61, dtype: object

>  <hbond:VAL:124>  (62) 
hbond:VAL:124    0
hbond:VAL:124    0
Name: 61, dtype: object

>  <halogenbond:VAL:124>  (62) 
halogenbond:VAL:124    0
halogenbond:VAL:124    0
Name: 61, dtype: object

>  <hbond:SER:125>  (62) 
hbond:SER:125    0
hbond:SER:125    0
Name: 61, dtype: object

>  <halogenbond:SER:125>  (62) 
halogenbond:SER:125    0
halogenbond:SER:125    0
Name: 61, dtype: object

>  <hydroph_interaction:THR:126>  (62) 
hydroph_interaction:THR:126    0
hydroph_interaction:THR:126    0
Name: 61, dtype: object

>  <hbond:THR:126>  (62) 
hbond:THR:126    0
hbond:THR:126    0
Name: 61, dtype: object

>  <halogenbond:THR:126>  (62) 
halogenbond:THR:126    0
halogenbond:THR:126    0
Name: 61, dtype: object

>  <hbond:GLY:127>  (62) 
hbond:GLY:127    0
hbond:GLY:127    0
Name: 61, dtype: object

>  <halogenbond:GLY:127>  (62) 
halogenbond:GLY:127    0
halogenbond:GLY:127    0
Name: 61, dtype: object

>  <hydroph_interaction:GLY:127>  (62) 
hydroph_interaction:GLY:127    0
hydroph_interaction:GLY:127    0
Name: 61, dtype: object

>  <hbond:GLY:128>  (62) 
hbond:GLY:128    0
hbond:GLY:128    0
Name: 61, dtype: object

>  <halogenbond:GLY:128>  (62) 
halogenbond:GLY:128    0
halogenbond:GLY:128    0
Name: 61, dtype: object

>  <hydroph_interaction:GLY:128>  (62) 
hydroph_interaction:GLY:128    0
hydroph_interaction:GLY:128    0
Name: 61, dtype: object

>  <hbond:ASN:129>  (62) 
hbond:ASN:129    0
hbond:ASN:129    0
Name: 61, dtype: object

>  <hydroph_interaction:ASN:129>  (62) 
hydroph_interaction:ASN:129    0
hydroph_interaction:ASN:129    0
Name: 61, dtype: object

>  <halogenbond:ASN:129>  (62) 
halogenbond:ASN:129    0
halogenbond:ASN:129    0
Name: 61, dtype: object

>  <hbond:GLY:130>  (62) 
hbond:GLY:130    0
hbond:GLY:130    0
Name: 61, dtype: object

>  <hydroph_interaction:LEU:131>  (62) 
hydroph_interaction:LEU:131    0
hydroph_interaction:LEU:131    0
Name: 61, dtype: object

>  <hbond:LEU:131>  (62) 
hbond:LEU:131    0
hbond:LEU:131    0
Name: 61, dtype: object

>  <halogenbond:LEU:131>  (62) 
halogenbond:LEU:131    0
halogenbond:LEU:131    0
Name: 61, dtype: object

>  <hydroph_interaction:VAL:132>  (62) 
hydroph_interaction:VAL:132    0
hydroph_interaction:VAL:132    0
Name: 61, dtype: object

>  <hbond:VAL:132>  (62) 
hbond:VAL:132    0
hbond:VAL:132    0
Name: 61, dtype: object

>  <hbond:GLY:133>  (62) 
hbond:GLY:133    0
hbond:GLY:133    0
Name: 61, dtype: object

>  <halogenbond:GLY:133>  (62) 
halogenbond:GLY:133    0
halogenbond:GLY:133    0
Name: 61, dtype: object

>  <hydroph_interaction:PHE:134>  (62) 
hydroph_interaction:PHE:134    0
hydroph_interaction:PHE:134    0
Name: 61, dtype: object

>  <hbond:PHE:134>  (62) 
hbond:PHE:134    0
hbond:PHE:134    0
Name: 61, dtype: object

>  <pistack:PHE:134>  (62) 
pistack:PHE:134    0
pistack:PHE:134    0
Name: 61, dtype: object

>  <pication:PHE:134>  (62) 
pication:PHE:134    0
pication:PHE:134    0
Name: 61, dtype: object

>  <hydroph_interaction:ALA:135>  (62) 
hydroph_interaction:ALA:135    0
hydroph_interaction:ALA:135    0
Name: 61, dtype: object

>  <hbond:ALA:135>  (62) 
hbond:ALA:135    0
hbond:ALA:135    0
Name: 61, dtype: object

$$$$
Z3044107966
     RDKit          3D

 36 37  0  0  0  0  0  0  0  0999 V2000
   16.8620   14.1110   24.4220 C   0  0  0  0  0  0  0  0  0  0  0  0
   15.9560   15.3220   24.2220 C   0  0  0  0  0  0  0  0  0  0  0  0
   14.7310   15.0490   23.6130 C   0  0  0  0  0  0  0  0  0  0  0  0
   14.1490   15.9230   22.8660 N   0  0  0  0  0  0  0  0  0  0  0  0
   13.0240   15.4520   22.4360 N   0  0  0  0  0  0  0  0  0  0  0  0
   12.2470   16.3040   21.6010 C   0  0  0  0  0  0  0  0  0  0  0  0
   12.8150   14.2110   22.8740 C   0  0  0  0  0  0  0  0  0  0  0  0
   11.6770   13.5480   22.5120 C   0  0  0  0  0  0  0  0  0  0  0  0
   10.6410   13.3980   23.5870 C   0  0  0  0  0  0  0  0  0  0  0  0
   10.6830   14.0530   24.6210 O   0  0  0  0  0  0  0  0  0  0  0  0
    9.6340   12.4880   23.3540 N   0  0  0  0  0  0  0  0  0  0  0  0
    8.3130   12.6480   23.9750 C   0  0  0  0  0  0  0  0  0  0  0  0
    7.9180   11.5890   24.9000 C   0  0  0  0  0  0  0  0  0  0  0  0
    8.8000   10.4690   24.9500 O   0  0  0  0  0  0  0  0  0  0  0  0
    9.3400   10.0360   23.6920 C   0  0  0  0  0  0  0  0  0  0  0  0
   10.0520   11.1460   22.9650 C   0  0  0  0  0  0  0  0  0  0  0  0
   13.9580   13.9320   23.6620 C   0  0  0  0  0  0  0  0  0  0  0  0
   14.5220   12.6530   24.5610 Cl  0  0  0  0  0  0  0  0  0  0  0  0
   16.4920   13.2410   23.8750 H   0  0  0  0  0  0  0  0  0  0  0  0
   17.8570   14.3410   24.0310 H   0  0  0  0  0  0  0  0  0  0  0  0
   16.9770   13.8800   25.4850 H   0  0  0  0  0  0  0  0  0  0  0  0
   16.4960   16.0440   23.6240 H   0  0  0  0  0  0  0  0  0  0  0  0
   15.7800   15.8090   25.1890 H   0  0  0  0  0  0  0  0  0  0  0  0
   11.2950   15.8400   21.3430 H   0  0  0  0  0  0  0  0  0  0  0  0
   12.0740   17.2470   22.1260 H   0  0  0  0  0  0  0  0  0  0  0  0
   12.8500   16.4710   20.7220 H   0  0  0  0  0  0  0  0  0  0  0  0
   11.2090   14.0790   21.6760 H   0  0  0  0  0  0  0  0  0  0  0  0
   11.9250   12.5720   22.1500 H   0  0  0  0  0  0  0  0  0  0  0  0
    7.5940   12.7230   23.1560 H   0  0  0  0  0  0  0  0  0  0  0  0
    8.2780   13.5970   24.5170 H   0  0  0  0  0  0  0  0  0  0  0  0
    7.8760   12.0070   25.9080 H   0  0  0  0  0  0  0  0  0  0  0  0
    6.9160   11.2300   24.6760 H   0  0  0  0  0  0  0  0  0  0  0  0
    8.5460    9.6250   23.0940 H   0  0  0  0  0  0  0  0  0  0  0  0
   10.0380    9.2180   23.8600 H   0  0  0  0  0  0  0  0  0  0  0  0
    9.9710   10.9860   21.9060 H   0  0  0  0  0  0  0  0  0  0  0  0
   11.1100   11.1000   23.1860 H   0  0  0  0  0  0  0  0  0  0  0  0
  1  2  1  0
  2  3  1  0
  3  4  2  0
  4  5  1  0
  5  6  1  0
  5  7  1  0
  7  8  1  0
  8  9  1  0
  9 10  2  0
  9 11  1  0
 11 12  1  0
 12 13  1  0
 13 14  1  0
 14 15  1  0
 15 16  1  0
  7 17  2  0
 17 18  1  0
 17  3  1  0
 16 11  1  0
  1 19  1  0
  1 20  1  0
  1 21  1  0
  2 22  1  0
  2 23  1  0
  6 24  1  0
  6 25  1  0
  6 26  1  0
  8 27  1  0
  8 28  1  0
 12 29  1  0
 12 30  1  0
 13 31  1  0
 13 32  1  0
 15 33  1  0
 15 34  1  0
 16 35  1  0
 16 36  1  0
A    1
 C1 
A    2
 C2 
A    3
 C3 
A    4
 N1 
A    5
 N2 
A    6
 C4 
A    7
 C5 
A    8
 C6 
A    9
 C7 
A   10
 O1 
A   11
 N3 
A   12
 C8 
A   13
 C9 
A   14
 O2 
A   15
 C10
A   16
 C11
A   17
 C12
A   18
CL1 
A   19
 H1 
A   20
 H2 
A   21
 H3 
A   22
 H4 
A   23
 H5 
A   24
 H6 
A   25
 H7 
A   26
 H8 
A   27
 H9 
A   28
 H10
A   29
 H11
A   30
 H12
A   31
 H13
A   32
 H14
A   33
 H15
A   34
 H16
A   35
 H17
A   36
 H18
M  END
>  <ref_pdb>  (63) 
x0310_0A

>  <ref_mols>  (63) 
x0310_0A,x0351_0A

>  <original SMILES>  (63) 
CCc1nn(C)c(CC(=O)N2CCOCC2)c1Cl

>  <rationale>  (63) 
info halogenbond:P107; hydroph_interaction:Y89+H21+L22; pistack:H21; 

>  <intxn_cluster>  (63) 
207

>  <intxn_cluster_rank>  (63) 
18

>  <N_interactions>  (63) 
5

>  <∆∆G>  (63) 
-5.216861

>  <$/mg>  (63) 
nan

>  <comRMSD>  (63) 
0.9786

>  <N_rotatable_bonds>  (63) 
5

>  <N_analogues_07>  (63) 
0

>  <deep_P1_sidechain>  (63) 
False

>  <farthest_distance_to_substrate>  (63) 
2.420075

>  <hbond:SER:7>  (63) 
hbond:SER:7    0
hbond:SER:7    0
Name: 62, dtype: object

>  <halogenbond:SER:7>  (63) 
halogenbond:SER:7    0
halogenbond:SER:7    0
Name: 62, dtype: object

>  <hbond:GLY:8>  (63) 
hbond:GLY:8    0
hbond:GLY:8    0
Name: 62, dtype: object

>  <hydroph_interaction:ASN:19>  (63) 
hydroph_interaction:ASN:19    0
hydroph_interaction:ASN:19    0
Name: 62, dtype: object

>  <hbond:ASN:19>  (63) 
hbond:ASN:19    0
hbond:ASN:19    0
Name: 62, dtype: object

>  <halogenbond:ASN:19>  (63) 
halogenbond:ASN:19    0
halogenbond:ASN:19    0
Name: 62, dtype: object

>  <hbond:ARG:20>  (63) 
hbond:ARG:20    0
hbond:ARG:20    0
Name: 62, dtype: object

>  <hydroph_interaction:ARG:20>  (63) 
hydroph_interaction:ARG:20    0
hydroph_interaction:ARG:20    0
Name: 62, dtype: object

>  <saltbridge:ARG:20>  (63) 
saltbridge:ARG:20    0
saltbridge:ARG:20    0
Name: 62, dtype: object

>  <halogenbond:ARG:20>  (63) 
halogenbond:ARG:20    0
halogenbond:ARG:20    0
Name: 62, dtype: object

>  <pication:ARG:20>  (63) 
pication:ARG:20    0
pication:ARG:20    0
Name: 62, dtype: object

>  <hbond:HIS:21>  (63) 
hbond:HIS:21    0
hbond:HIS:21    0
Name: 62, dtype: object

>  <hydroph_interaction:HIS:21>  (63) 
hydroph_interaction:HIS:21    1
hydroph_interaction:HIS:21    1
Name: 62, dtype: object

>  <saltbridge:HIS:21>  (63) 
saltbridge:HIS:21    0
saltbridge:HIS:21    0
Name: 62, dtype: object

>  <pistack:HIS:21>  (63) 
pistack:HIS:21    1
pistack:HIS:21    1
Name: 62, dtype: object

>  <pication:HIS:21>  (63) 
pication:HIS:21    0
pication:HIS:21    0
Name: 62, dtype: object

>  <halogenbond:HIS:21>  (63) 
halogenbond:HIS:21    0
halogenbond:HIS:21    0
Name: 62, dtype: object

>  <hydroph_interaction:LEU:22>  (63) 
hydroph_interaction:LEU:22    1
hydroph_interaction:LEU:22    1
Name: 62, dtype: object

>  <hbond:LEU:22>  (63) 
hbond:LEU:22    0
hbond:LEU:22    0
Name: 62, dtype: object

>  <hydroph_interaction:TRP:28>  (63) 
hydroph_interaction:TRP:28    0
hydroph_interaction:TRP:28    0
Name: 62, dtype: object

>  <hbond:SER:36>  (63) 
hbond:SER:36    0
hbond:SER:36    0
Name: 62, dtype: object

>  <halogenbond:SER:36>  (63) 
halogenbond:SER:36    0
halogenbond:SER:36    0
Name: 62, dtype: object

>  <hbond:ARG:38>  (63) 
hbond:ARG:38    0
hbond:ARG:38    0
Name: 62, dtype: object

>  <halogenbond:ARG:38>  (63) 
halogenbond:ARG:38    0
halogenbond:ARG:38    0
Name: 62, dtype: object

>  <hbond:ASP:39>  (63) 
hbond:ASP:39    0
hbond:ASP:39    0
Name: 62, dtype: object

>  <saltbridge:ASP:39>  (63) 
saltbridge:ASP:39    0
saltbridge:ASP:39    0
Name: 62, dtype: object

>  <hydroph_interaction:ASP:39>  (63) 
hydroph_interaction:ASP:39    0
hydroph_interaction:ASP:39    0
Name: 62, dtype: object

>  <halogenbond:ASP:39>  (63) 
halogenbond:ASP:39    0
halogenbond:ASP:39    0
Name: 62, dtype: object

>  <hydroph_interaction:LEU:40>  (63) 
hydroph_interaction:LEU:40    0
hydroph_interaction:LEU:40    0
Name: 62, dtype: object

>  <hydroph_interaction:TYR:63>  (63) 
hydroph_interaction:TYR:63    0
hydroph_interaction:TYR:63    0
Name: 62, dtype: object

>  <pistack:TYR:63>  (63) 
pistack:TYR:63    0
pistack:TYR:63    0
Name: 62, dtype: object

>  <hbond:TYR:63>  (63) 
hbond:TYR:63    0
hbond:TYR:63    0
Name: 62, dtype: object

>  <hbond:TYR:64>  (63) 
hbond:TYR:64    0
hbond:TYR:64    0
Name: 62, dtype: object

>  <halogenbond:TYR:64>  (63) 
halogenbond:TYR:64    0
halogenbond:TYR:64    0
Name: 62, dtype: object

>  <hydroph_interaction:TYR:64>  (63) 
hydroph_interaction:TYR:64    0
hydroph_interaction:TYR:64    0
Name: 62, dtype: object

>  <hbond:CYS:65>  (63) 
hbond:CYS:65    0
hbond:CYS:65    0
Name: 62, dtype: object

>  <halogenbond:CYS:65>  (63) 
halogenbond:CYS:65    0
halogenbond:CYS:65    0
Name: 62, dtype: object

>  <hbond:SER:66>  (63) 
hbond:SER:66    0
hbond:SER:66    0
Name: 62, dtype: object

>  <hbond:SER:67>  (63) 
hbond:SER:67    0
hbond:SER:67    0
Name: 62, dtype: object

>  <halogenbond:SER:67>  (63) 
halogenbond:SER:67    0
halogenbond:SER:67    0
Name: 62, dtype: object

>  <hydroph_interaction:ARG:68>  (63) 
hydroph_interaction:ARG:68    0
hydroph_interaction:ARG:68    0
Name: 62, dtype: object

>  <hbond:ARG:68>  (63) 
hbond:ARG:68    0
hbond:ARG:68    0
Name: 62, dtype: object

>  <saltbridge:ARG:68>  (63) 
saltbridge:ARG:68    0
saltbridge:ARG:68    0
Name: 62, dtype: object

>  <pication:ARG:68>  (63) 
pication:ARG:68    0
pication:ARG:68    0
Name: 62, dtype: object

>  <hydroph_interaction:TYR:72>  (63) 
hydroph_interaction:TYR:72    0
hydroph_interaction:TYR:72    0
Name: 62, dtype: object

>  <hydroph_interaction:VAL:74>  (63) 
hydroph_interaction:VAL:74    0
hydroph_interaction:VAL:74    0
Name: 62, dtype: object

>  <hydroph_interaction:PHE:76>  (63) 
hydroph_interaction:PHE:76    0
hydroph_interaction:PHE:76    0
Name: 62, dtype: object

>  <hbond:SER:77>  (63) 
hbond:SER:77    0
hbond:SER:77    0
Name: 62, dtype: object

>  <hbond:SER:80>  (63) 
hbond:SER:80    0
hbond:SER:80    0
Name: 62, dtype: object

>  <hbond:LEU:81>  (63) 
hbond:LEU:81    0
hbond:LEU:81    0
Name: 62, dtype: object

>  <halogenbond:LEU:81>  (63) 
halogenbond:LEU:81    0
halogenbond:LEU:81    0
Name: 62, dtype: object

>  <hydroph_interaction:LEU:81>  (63) 
hydroph_interaction:LEU:81    0
hydroph_interaction:LEU:81    0
Name: 62, dtype: object

>  <hydroph_interaction:ILE:82>  (63) 
hydroph_interaction:ILE:82    0
hydroph_interaction:ILE:82    0
Name: 62, dtype: object

>  <hbond:ILE:82>  (63) 
hbond:ILE:82    0
hbond:ILE:82    0
Name: 62, dtype: object

>  <hydroph_interaction:PHE:83>  (63) 
hydroph_interaction:PHE:83    0
hydroph_interaction:PHE:83    0
Name: 62, dtype: object

>  <hbond:PHE:83>  (63) 
hbond:PHE:83    0
hbond:PHE:83    0
Name: 62, dtype: object

>  <halogenbond:PHE:83>  (63) 
halogenbond:PHE:83    0
halogenbond:PHE:83    0
Name: 62, dtype: object

>  <pistack:PHE:83>  (63) 
pistack:PHE:83    0
pistack:PHE:83    0
Name: 62, dtype: object

>  <hydroph_interaction:VAL:84>  (63) 
hydroph_interaction:VAL:84    0
hydroph_interaction:VAL:84    0
Name: 62, dtype: object

>  <hbond:VAL:84>  (63) 
hbond:VAL:84    0
hbond:VAL:84    0
Name: 62, dtype: object

>  <halogenbond:VAL:84>  (63) 
halogenbond:VAL:84    0
halogenbond:VAL:84    0
Name: 62, dtype: object

>  <hydroph_interaction:GLU:85>  (63) 
hydroph_interaction:GLU:85    0
hydroph_interaction:GLU:85    0
Name: 62, dtype: object

>  <hbond:GLU:85>  (63) 
hbond:GLU:85    0
hbond:GLU:85    0
Name: 62, dtype: object

>  <saltbridge:GLU:85>  (63) 
saltbridge:GLU:85    0
saltbridge:GLU:85    0
Name: 62, dtype: object

>  <halogenbond:GLU:85>  (63) 
halogenbond:GLU:85    0
halogenbond:GLU:85    0
Name: 62, dtype: object

>  <hbond:ALA:86>  (63) 
hbond:ALA:86    0
hbond:ALA:86    0
Name: 62, dtype: object

>  <halogenbond:ALA:86>  (63) 
halogenbond:ALA:86    0
halogenbond:ALA:86    0
Name: 62, dtype: object

>  <hydroph_interaction:ALA:86>  (63) 
hydroph_interaction:ALA:86    0
hydroph_interaction:ALA:86    0
Name: 62, dtype: object

>  <hbond:SER:87>  (63) 
hbond:SER:87    0
hbond:SER:87    0
Name: 62, dtype: object

>  <halogenbond:SER:87>  (63) 
halogenbond:SER:87    0
halogenbond:SER:87    0
Name: 62, dtype: object

>  <hbond:GLU:88>  (63) 
hbond:GLU:88    0
hbond:GLU:88    0
Name: 62, dtype: object

>  <hydroph_interaction:GLU:88>  (63) 
hydroph_interaction:GLU:88    0
hydroph_interaction:GLU:88    0
Name: 62, dtype: object

>  <halogenbond:GLU:88>  (63) 
halogenbond:GLU:88    0
halogenbond:GLU:88    0
Name: 62, dtype: object

>  <saltbridge:GLU:88>  (63) 
saltbridge:GLU:88    0
saltbridge:GLU:88    0
Name: 62, dtype: object

>  <hydroph_interaction:TYR:89>  (63) 
hydroph_interaction:TYR:89    1
hydroph_interaction:TYR:89    1
Name: 62, dtype: object

>  <pistack:TYR:89>  (63) 
pistack:TYR:89    0
pistack:TYR:89    0
Name: 62, dtype: object

>  <hbond:TYR:89>  (63) 
hbond:TYR:89    0
hbond:TYR:89    0
Name: 62, dtype: object

>  <halogenbond:TYR:89>  (63) 
halogenbond:TYR:89    0
halogenbond:TYR:89    0
Name: 62, dtype: object

>  <hbond:TYR:90>  (63) 
hbond:TYR:90    0
hbond:TYR:90    0
Name: 62, dtype: object

>  <hydroph_interaction:TYR:90>  (63) 
hydroph_interaction:TYR:90    0
hydroph_interaction:TYR:90    0
Name: 62, dtype: object

>  <pistack:TYR:90>  (63) 
pistack:TYR:90    0
pistack:TYR:90    0
Name: 62, dtype: object

>  <halogenbond:TYR:90>  (63) 
halogenbond:TYR:90    0
halogenbond:TYR:90    0
Name: 62, dtype: object

>  <pication:TYR:90>  (63) 
pication:TYR:90    0
pication:TYR:90    0
Name: 62, dtype: object

>  <hydroph_interaction:PRO:91>  (63) 
hydroph_interaction:PRO:91    0
hydroph_interaction:PRO:91    0
Name: 62, dtype: object

>  <halogenbond:PRO:91>  (63) 
halogenbond:PRO:91    0
halogenbond:PRO:91    0
Name: 62, dtype: object

>  <hbond:PRO:91>  (63) 
hbond:PRO:91    0
hbond:PRO:91    0
Name: 62, dtype: object

>  <hydroph_interaction:ALA:92>  (63) 
hydroph_interaction:ALA:92    0
hydroph_interaction:ALA:92    0
Name: 62, dtype: object

>  <hbond:ARG:93>  (63) 
hbond:ARG:93    0
hbond:ARG:93    0
Name: 62, dtype: object

>  <pication:ARG:93>  (63) 
pication:ARG:93    0
pication:ARG:93    0
Name: 62, dtype: object

>  <saltbridge:ARG:93>  (63) 
saltbridge:ARG:93    0
saltbridge:ARG:93    0
Name: 62, dtype: object

>  <hydroph_interaction:ARG:93>  (63) 
hydroph_interaction:ARG:93    0
hydroph_interaction:ARG:93    0
Name: 62, dtype: object

>  <halogenbond:ARG:93>  (63) 
halogenbond:ARG:93    0
halogenbond:ARG:93    0
Name: 62, dtype: object

>  <hydroph_interaction:TYR:94>  (63) 
hydroph_interaction:TYR:94    0
hydroph_interaction:TYR:94    0
Name: 62, dtype: object

>  <hbond:TYR:94>  (63) 
hbond:TYR:94    0
hbond:TYR:94    0
Name: 62, dtype: object

>  <halogenbond:GLN:95>  (63) 
halogenbond:GLN:95    0
halogenbond:GLN:95    0
Name: 62, dtype: object

>  <hbond:GLN:95>  (63) 
hbond:GLN:95    0
hbond:GLN:95    0
Name: 62, dtype: object

>  <hydroph_interaction:GLN:95>  (63) 
hydroph_interaction:GLN:95    0
hydroph_interaction:GLN:95    0
Name: 62, dtype: object

>  <hbond:SER:96>  (63) 
hbond:SER:96    0
hbond:SER:96    0
Name: 62, dtype: object

>  <hydroph_interaction:LEU:98>  (63) 
hydroph_interaction:LEU:98    0
hydroph_interaction:LEU:98    0
Name: 62, dtype: object

>  <hbond:LEU:98>  (63) 
hbond:LEU:98    0
hbond:LEU:98    0
Name: 62, dtype: object

>  <hbond:MET:99>  (63) 
hbond:MET:99    0
hbond:MET:99    0
Name: 62, dtype: object

>  <hydroph_interaction:MET:99>  (63) 
hydroph_interaction:MET:99    0
hydroph_interaction:MET:99    0
Name: 62, dtype: object

>  <halogenbond:MET:99>  (63) 
halogenbond:MET:99    0
halogenbond:MET:99    0
Name: 62, dtype: object

>  <hydroph_interaction:LEU:100>  (63) 
hydroph_interaction:LEU:100    0
hydroph_interaction:LEU:100    0
Name: 62, dtype: object

>  <hbond:LEU:100>  (63) 
hbond:LEU:100    0
hbond:LEU:100    0
Name: 62, dtype: object

>  <hbond:ALA:101>  (63) 
hbond:ALA:101    0
hbond:ALA:101    0
Name: 62, dtype: object

>  <hydroph_interaction:ALA:101>  (63) 
hydroph_interaction:ALA:101    0
hydroph_interaction:ALA:101    0
Name: 62, dtype: object

>  <hydroph_interaction:VAL:102>  (63) 
hydroph_interaction:VAL:102    0
hydroph_interaction:VAL:102    0
Name: 62, dtype: object

>  <hbond:VAL:102>  (63) 
hbond:VAL:102    0
hbond:VAL:102    0
Name: 62, dtype: object

>  <hbond:GLY:103>  (63) 
hbond:GLY:103    0
hbond:GLY:103    0
Name: 62, dtype: object

>  <halogenbond:GLY:103>  (63) 
halogenbond:GLY:103    0
halogenbond:GLY:103    0
Name: 62, dtype: object

>  <hydroph_interaction:HIS:104>  (63) 
hydroph_interaction:HIS:104    0
hydroph_interaction:HIS:104    0
Name: 62, dtype: object

>  <hbond:HIS:104>  (63) 
hbond:HIS:104    0
hbond:HIS:104    0
Name: 62, dtype: object

>  <saltbridge:HIS:104>  (63) 
saltbridge:HIS:104    0
saltbridge:HIS:104    0
Name: 62, dtype: object

>  <pication:HIS:104>  (63) 
pication:HIS:104    0
pication:HIS:104    0
Name: 62, dtype: object

>  <pistack:HIS:104>  (63) 
pistack:HIS:104    0
pistack:HIS:104    0
Name: 62, dtype: object

>  <halogenbond:HIS:104>  (63) 
halogenbond:HIS:104    0
halogenbond:HIS:104    0
Name: 62, dtype: object

>  <hbond:SER:105>  (63) 
hbond:SER:105    0
hbond:SER:105    0
Name: 62, dtype: object

>  <halogenbond:SER:105>  (63) 
halogenbond:SER:105    0
halogenbond:SER:105    0
Name: 62, dtype: object

>  <hbond:GLU:106>  (63) 
hbond:GLU:106    0
hbond:GLU:106    0
Name: 62, dtype: object

>  <hydroph_interaction:GLU:106>  (63) 
hydroph_interaction:GLU:106    0
hydroph_interaction:GLU:106    0
Name: 62, dtype: object

>  <saltbridge:GLU:106>  (63) 
saltbridge:GLU:106    0
saltbridge:GLU:106    0
Name: 62, dtype: object

>  <halogenbond:GLU:106>  (63) 
halogenbond:GLU:106    0
halogenbond:GLU:106    0
Name: 62, dtype: object

>  <hydroph_interaction:PRO:107>  (63) 
hydroph_interaction:PRO:107    0
hydroph_interaction:PRO:107    0
Name: 62, dtype: object

>  <hbond:PRO:107>  (63) 
hbond:PRO:107    0
hbond:PRO:107    0
Name: 62, dtype: object

>  <halogenbond:PRO:107>  (63) 
halogenbond:PRO:107    1
halogenbond:PRO:107    1
Name: 62, dtype: object

>  <hbond:GLY:108>  (63) 
hbond:GLY:108    0
hbond:GLY:108    0
Name: 62, dtype: object

>  <halogenbond:GLY:108>  (63) 
halogenbond:GLY:108    0
halogenbond:GLY:108    0
Name: 62, dtype: object

>  <hbond:ASP:109>  (63) 
hbond:ASP:109    0
hbond:ASP:109    0
Name: 62, dtype: object

>  <hydroph_interaction:ASP:109>  (63) 
hydroph_interaction:ASP:109    0
hydroph_interaction:ASP:109    0
Name: 62, dtype: object

>  <saltbridge:ASP:109>  (63) 
saltbridge:ASP:109    0
saltbridge:ASP:109    0
Name: 62, dtype: object

>  <hbond:CYS:110>  (63) 
hbond:CYS:110    0
hbond:CYS:110    0
Name: 62, dtype: object

>  <halogenbond:CYS:110>  (63) 
halogenbond:CYS:110    0
halogenbond:CYS:110    0
Name: 62, dtype: object

>  <hbond:GLY:111>  (63) 
hbond:GLY:111    0
hbond:GLY:111    0
Name: 62, dtype: object

>  <hbond:GLY:112>  (63) 
hbond:GLY:112    0
hbond:GLY:112    0
Name: 62, dtype: object

>  <hbond:ILE:113>  (63) 
hbond:ILE:113    0
hbond:ILE:113    0
Name: 62, dtype: object

>  <hydroph_interaction:LEU:114>  (63) 
hydroph_interaction:LEU:114    0
hydroph_interaction:LEU:114    0
Name: 62, dtype: object

>  <hbond:LEU:114>  (63) 
hbond:LEU:114    0
hbond:LEU:114    0
Name: 62, dtype: object

>  <hydroph_interaction:ILE:123>  (63) 
hydroph_interaction:ILE:123    0
hydroph_interaction:ILE:123    0
Name: 62, dtype: object

>  <hbond:ILE:123>  (63) 
hbond:ILE:123    0
hbond:ILE:123    0
Name: 62, dtype: object

>  <hydroph_interaction:VAL:124>  (63) 
hydroph_interaction:VAL:124    0
hydroph_interaction:VAL:124    0
Name: 62, dtype: object

>  <hbond:VAL:124>  (63) 
hbond:VAL:124    0
hbond:VAL:124    0
Name: 62, dtype: object

>  <halogenbond:VAL:124>  (63) 
halogenbond:VAL:124    0
halogenbond:VAL:124    0
Name: 62, dtype: object

>  <hbond:SER:125>  (63) 
hbond:SER:125    0
hbond:SER:125    0
Name: 62, dtype: object

>  <halogenbond:SER:125>  (63) 
halogenbond:SER:125    0
halogenbond:SER:125    0
Name: 62, dtype: object

>  <hydroph_interaction:THR:126>  (63) 
hydroph_interaction:THR:126    0
hydroph_interaction:THR:126    0
Name: 62, dtype: object

>  <hbond:THR:126>  (63) 
hbond:THR:126    0
hbond:THR:126    0
Name: 62, dtype: object

>  <halogenbond:THR:126>  (63) 
halogenbond:THR:126    0
halogenbond:THR:126    0
Name: 62, dtype: object

>  <hbond:GLY:127>  (63) 
hbond:GLY:127    0
hbond:GLY:127    0
Name: 62, dtype: object

>  <halogenbond:GLY:127>  (63) 
halogenbond:GLY:127    0
halogenbond:GLY:127    0
Name: 62, dtype: object

>  <hydroph_interaction:GLY:127>  (63) 
hydroph_interaction:GLY:127    0
hydroph_interaction:GLY:127    0
Name: 62, dtype: object

>  <hbond:GLY:128>  (63) 
hbond:GLY:128    0
hbond:GLY:128    0
Name: 62, dtype: object

>  <halogenbond:GLY:128>  (63) 
halogenbond:GLY:128    0
halogenbond:GLY:128    0
Name: 62, dtype: object

>  <hydroph_interaction:GLY:128>  (63) 
hydroph_interaction:GLY:128    0
hydroph_interaction:GLY:128    0
Name: 62, dtype: object

>  <hbond:ASN:129>  (63) 
hbond:ASN:129    0
hbond:ASN:129    0
Name: 62, dtype: object

>  <hydroph_interaction:ASN:129>  (63) 
hydroph_interaction:ASN:129    0
hydroph_interaction:ASN:129    0
Name: 62, dtype: object

>  <halogenbond:ASN:129>  (63) 
halogenbond:ASN:129    0
halogenbond:ASN:129    0
Name: 62, dtype: object

>  <hbond:GLY:130>  (63) 
hbond:GLY:130    0
hbond:GLY:130    0
Name: 62, dtype: object

>  <hydroph_interaction:LEU:131>  (63) 
hydroph_interaction:LEU:131    0
hydroph_interaction:LEU:131    0
Name: 62, dtype: object

>  <hbond:LEU:131>  (63) 
hbond:LEU:131    0
hbond:LEU:131    0
Name: 62, dtype: object

>  <halogenbond:LEU:131>  (63) 
halogenbond:LEU:131    0
halogenbond:LEU:131    0
Name: 62, dtype: object

>  <hydroph_interaction:VAL:132>  (63) 
hydroph_interaction:VAL:132    0
hydroph_interaction:VAL:132    0
Name: 62, dtype: object

>  <hbond:VAL:132>  (63) 
hbond:VAL:132    0
hbond:VAL:132    0
Name: 62, dtype: object

>  <hbond:GLY:133>  (63) 
hbond:GLY:133    0
hbond:GLY:133    0
Name: 62, dtype: object

>  <halogenbond:GLY:133>  (63) 
halogenbond:GLY:133    0
halogenbond:GLY:133    0
Name: 62, dtype: object

>  <hydroph_interaction:PHE:134>  (63) 
hydroph_interaction:PHE:134    0
hydroph_interaction:PHE:134    0
Name: 62, dtype: object

>  <hbond:PHE:134>  (63) 
hbond:PHE:134    0
hbond:PHE:134    0
Name: 62, dtype: object

>  <pistack:PHE:134>  (63) 
pistack:PHE:134    0
pistack:PHE:134    0
Name: 62, dtype: object

>  <pication:PHE:134>  (63) 
pication:PHE:134    0
pication:PHE:134    0
Name: 62, dtype: object

>  <hydroph_interaction:ALA:135>  (63) 
hydroph_interaction:ALA:135    0
hydroph_interaction:ALA:135    0
Name: 62, dtype: object

>  <hbond:ALA:135>  (63) 
hbond:ALA:135    0
hbond:ALA:135    0
Name: 62, dtype: object

$$$$
Z3804447231
     RDKit          3D

 33 33  0  0  0  0  0  0  0  0999 V2000
   10.2170    9.6400   22.8200 C   0  0  0  0  0  0  0  0  0  0  0  0
    9.3100   10.5040   23.6230 C   0  0  0  0  0  0  0  0  0  0  0  0
    8.4110    9.9590   24.4470 N   0  0  0  0  0  0  0  0  0  0  0  0
    7.7660   11.0090   24.9810 N   0  0  0  0  0  0  0  0  0  0  0  0
    6.6920   10.7900   25.9180 C   0  0  0  0  0  0  0  0  0  0  0  0
    8.2260   12.2080   24.5370 C   0  0  0  0  0  0  0  0  0  0  0  0
    7.6740   13.5100   24.9800 C   0  0  0  0  0  0  0  0  0  0  0  0
    9.2380   11.9250   23.6460 C   0  0  0  0  0  0  0  0  0  0  0  0
   10.0690   12.9130   22.8620 C   0  0  0  0  0  0  0  0  0  0  0  0
   11.0380   13.4320   23.7810 N   0  0  0  0  0  0  0  0  0  0  0  0
   12.4160   13.4740   23.3730 C   0  0  0  0  0  0  0  0  0  0  0  0
   13.0680   14.8340   23.5600 C   0  0  0  0  0  0  0  0  0  0  0  0
   12.2910   15.8630   22.8320 C   0  0  0  0  0  0  0  0  0  0  0  0
   12.0040   15.8580   21.5540 C   0  0  0  0  0  0  0  0  0  0  0  0
   12.5110   14.5730   20.3380 Br  0  0  0  0  0  0  0  0  0  0  0  0
   10.7160   10.2230   22.0500 H   0  0  0  0  0  0  0  0  0  0  0  0
    9.6400    8.8650   22.3150 H   0  0  0  0  0  0  0  0  0  0  0  0
   10.9650    9.1630   23.4540 H   0  0  0  0  0  0  0  0  0  0  0  0
    7.0860   10.6580   26.9200 H   0  0  0  0  0  0  0  0  0  0  0  0
    6.1440    9.9050   25.6050 H   0  0  0  0  0  0  0  0  0  0  0  0
    6.0250   11.6580   25.9060 H   0  0  0  0  0  0  0  0  0  0  0  0
    6.6590   13.6610   24.5970 H   0  0  0  0  0  0  0  0  0  0  0  0
    8.2900   14.3410   24.6180 H   0  0  0  0  0  0  0  0  0  0  0  0
    7.6330   13.5530   26.0740 H   0  0  0  0  0  0  0  0  0  0  0  0
    9.4340   13.7100   22.4590 H   0  0  0  0  0  0  0  0  0  0  0  0
   10.5740   12.4330   22.0310 H   0  0  0  0  0  0  0  0  0  0  0  0
   10.7470   14.3670   24.0540 H   0  0  0  0  0  0  0  0  0  0  0  0
   12.9870   12.7230   23.9240 H   0  0  0  0  0  0  0  0  0  0  0  0
   12.4630   13.2390   22.3080 H   0  0  0  0  0  0  0  0  0  0  0  0
   13.1630   15.0640   24.6260 H   0  0  0  0  0  0  0  0  0  0  0  0
   14.0770   14.8320   23.1440 H   0  0  0  0  0  0  0  0  0  0  0  0
   11.9380   16.6830   23.4290 H   0  0  0  0  0  0  0  0  0  0  0  0
   11.4230   16.6530   21.1190 H   0  0  0  0  0  0  0  0  0  0  0  0
  1  2  1  0
  2  3  2  0
  3  4  1  0
  4  5  1  0
  4  6  1  0
  6  7  1  0
  6  8  2  0
  8  9  1  0
  9 10  1  0
 10 11  1  0
 11 12  1  0
 12 13  1  0
 13 14  2  3
 14 15  1  0
  8  2  1  0
  1 16  1  0
  1 17  1  0
  1 18  1  0
  5 19  1  0
  5 20  1  0
  5 21  1  0
  7 22  1  0
  7 23  1  0
  7 24  1  0
  9 25  1  0
  9 26  1  0
 10 27  1  0
 11 28  1  0
 11 29  1  0
 12 30  1  0
 12 31  1  0
 13 32  1  0
 14 33  1  0
A    1
 C1 
A    2
 C2 
A    3
 N1 
A    4
 N2 
A    5
 C3 
A    6
 C4 
A    7
 C5 
A    8
 C6 
A    9
 C7 
A   10
 N3 
A   11
 C8 
A   12
 C9 
A   13
 C10
A   14
 C11
A   15
BR1 
A   16
 H1 
A   17
 H2 
A   18
 H3 
A   19
 H4 
A   20
 H5 
A   21
 H6 
A   22
 H7 
A   23
 H8 
A   24
 H9 
A   25
 H10
A   26
 H11
A   27
 H12
A   28
 H13
A   29
 H14
A   30
 H15
A   31
 H16
A   32
 H17
A   33
 H18
M  END
>  <ref_pdb>  (64) 
x0310_0A

>  <ref_mols>  (64) 
x0310_0A,x0451_0A,x0719_0A

>  <original SMILES>  (64) 
Cc1nn(C)c(C)c1CNCCC=CBr

>  <rationale>  (64) 
info halogenbond:D39; hydroph_interaction:V124+Y89; 

>  <intxn_cluster>  (64) 
105

>  <intxn_cluster_rank>  (64) 
18

>  <N_interactions>  (64) 
4

>  <∆∆G>  (64) 
-7.809603

>  <$/mg>  (64) 
163.0

>  <comRMSD>  (64) 
0.967068

>  <N_rotatable_bonds>  (64) 
8

>  <N_analogues_07>  (64) 
0

>  <deep_P1_sidechain>  (64) 
True

>  <farthest_distance_to_substrate>  (64) 
2.896525

>  <hbond:SER:7>  (64) 
hbond:SER:7    0
hbond:SER:7    0
Name: 63, dtype: object

>  <halogenbond:SER:7>  (64) 
halogenbond:SER:7    0
halogenbond:SER:7    0
Name: 63, dtype: object

>  <hbond:GLY:8>  (64) 
hbond:GLY:8    0
hbond:GLY:8    0
Name: 63, dtype: object

>  <hydroph_interaction:ASN:19>  (64) 
hydroph_interaction:ASN:19    0
hydroph_interaction:ASN:19    0
Name: 63, dtype: object

>  <hbond:ASN:19>  (64) 
hbond:ASN:19    0
hbond:ASN:19    0
Name: 63, dtype: object

>  <halogenbond:ASN:19>  (64) 
halogenbond:ASN:19    0
halogenbond:ASN:19    0
Name: 63, dtype: object

>  <hbond:ARG:20>  (64) 
hbond:ARG:20    0
hbond:ARG:20    0
Name: 63, dtype: object

>  <hydroph_interaction:ARG:20>  (64) 
hydroph_interaction:ARG:20    0
hydroph_interaction:ARG:20    0
Name: 63, dtype: object

>  <saltbridge:ARG:20>  (64) 
saltbridge:ARG:20    0
saltbridge:ARG:20    0
Name: 63, dtype: object

>  <halogenbond:ARG:20>  (64) 
halogenbond:ARG:20    0
halogenbond:ARG:20    0
Name: 63, dtype: object

>  <pication:ARG:20>  (64) 
pication:ARG:20    0
pication:ARG:20    0
Name: 63, dtype: object

>  <hbond:HIS:21>  (64) 
hbond:HIS:21    0
hbond:HIS:21    0
Name: 63, dtype: object

>  <hydroph_interaction:HIS:21>  (64) 
hydroph_interaction:HIS:21    0
hydroph_interaction:HIS:21    0
Name: 63, dtype: object

>  <saltbridge:HIS:21>  (64) 
saltbridge:HIS:21    0
saltbridge:HIS:21    0
Name: 63, dtype: object

>  <pistack:HIS:21>  (64) 
pistack:HIS:21    0
pistack:HIS:21    0
Name: 63, dtype: object

>  <pication:HIS:21>  (64) 
pication:HIS:21    0
pication:HIS:21    0
Name: 63, dtype: object

>  <halogenbond:HIS:21>  (64) 
halogenbond:HIS:21    0
halogenbond:HIS:21    0
Name: 63, dtype: object

>  <hydroph_interaction:LEU:22>  (64) 
hydroph_interaction:LEU:22    0
hydroph_interaction:LEU:22    0
Name: 63, dtype: object

>  <hbond:LEU:22>  (64) 
hbond:LEU:22    0
hbond:LEU:22    0
Name: 63, dtype: object

>  <hydroph_interaction:TRP:28>  (64) 
hydroph_interaction:TRP:28    0
hydroph_interaction:TRP:28    0
Name: 63, dtype: object

>  <hbond:SER:36>  (64) 
hbond:SER:36    0
hbond:SER:36    0
Name: 63, dtype: object

>  <halogenbond:SER:36>  (64) 
halogenbond:SER:36    0
halogenbond:SER:36    0
Name: 63, dtype: object

>  <hbond:ARG:38>  (64) 
hbond:ARG:38    0
hbond:ARG:38    0
Name: 63, dtype: object

>  <halogenbond:ARG:38>  (64) 
halogenbond:ARG:38    0
halogenbond:ARG:38    0
Name: 63, dtype: object

>  <hbond:ASP:39>  (64) 
hbond:ASP:39    0
hbond:ASP:39    0
Name: 63, dtype: object

>  <saltbridge:ASP:39>  (64) 
saltbridge:ASP:39    0
saltbridge:ASP:39    0
Name: 63, dtype: object

>  <hydroph_interaction:ASP:39>  (64) 
hydroph_interaction:ASP:39    0
hydroph_interaction:ASP:39    0
Name: 63, dtype: object

>  <halogenbond:ASP:39>  (64) 
halogenbond:ASP:39    1
halogenbond:ASP:39    1
Name: 63, dtype: object

>  <hydroph_interaction:LEU:40>  (64) 
hydroph_interaction:LEU:40    0
hydroph_interaction:LEU:40    0
Name: 63, dtype: object

>  <hydroph_interaction:TYR:63>  (64) 
hydroph_interaction:TYR:63    0
hydroph_interaction:TYR:63    0
Name: 63, dtype: object

>  <pistack:TYR:63>  (64) 
pistack:TYR:63    0
pistack:TYR:63    0
Name: 63, dtype: object

>  <hbond:TYR:63>  (64) 
hbond:TYR:63    0
hbond:TYR:63    0
Name: 63, dtype: object

>  <hbond:TYR:64>  (64) 
hbond:TYR:64    0
hbond:TYR:64    0
Name: 63, dtype: object

>  <halogenbond:TYR:64>  (64) 
halogenbond:TYR:64    0
halogenbond:TYR:64    0
Name: 63, dtype: object

>  <hydroph_interaction:TYR:64>  (64) 
hydroph_interaction:TYR:64    0
hydroph_interaction:TYR:64    0
Name: 63, dtype: object

>  <hbond:CYS:65>  (64) 
hbond:CYS:65    0
hbond:CYS:65    0
Name: 63, dtype: object

>  <halogenbond:CYS:65>  (64) 
halogenbond:CYS:65    0
halogenbond:CYS:65    0
Name: 63, dtype: object

>  <hbond:SER:66>  (64) 
hbond:SER:66    0
hbond:SER:66    0
Name: 63, dtype: object

>  <hbond:SER:67>  (64) 
hbond:SER:67    0
hbond:SER:67    0
Name: 63, dtype: object

>  <halogenbond:SER:67>  (64) 
halogenbond:SER:67    0
halogenbond:SER:67    0
Name: 63, dtype: object

>  <hydroph_interaction:ARG:68>  (64) 
hydroph_interaction:ARG:68    0
hydroph_interaction:ARG:68    0
Name: 63, dtype: object

>  <hbond:ARG:68>  (64) 
hbond:ARG:68    0
hbond:ARG:68    0
Name: 63, dtype: object

>  <saltbridge:ARG:68>  (64) 
saltbridge:ARG:68    0
saltbridge:ARG:68    0
Name: 63, dtype: object

>  <pication:ARG:68>  (64) 
pication:ARG:68    0
pication:ARG:68    0
Name: 63, dtype: object

>  <hydroph_interaction:TYR:72>  (64) 
hydroph_interaction:TYR:72    0
hydroph_interaction:TYR:72    0
Name: 63, dtype: object

>  <hydroph_interaction:VAL:74>  (64) 
hydroph_interaction:VAL:74    0
hydroph_interaction:VAL:74    0
Name: 63, dtype: object

>  <hydroph_interaction:PHE:76>  (64) 
hydroph_interaction:PHE:76    0
hydroph_interaction:PHE:76    0
Name: 63, dtype: object

>  <hbond:SER:77>  (64) 
hbond:SER:77    0
hbond:SER:77    0
Name: 63, dtype: object

>  <hbond:SER:80>  (64) 
hbond:SER:80    0
hbond:SER:80    0
Name: 63, dtype: object

>  <hbond:LEU:81>  (64) 
hbond:LEU:81    0
hbond:LEU:81    0
Name: 63, dtype: object

>  <halogenbond:LEU:81>  (64) 
halogenbond:LEU:81    0
halogenbond:LEU:81    0
Name: 63, dtype: object

>  <hydroph_interaction:LEU:81>  (64) 
hydroph_interaction:LEU:81    0
hydroph_interaction:LEU:81    0
Name: 63, dtype: object

>  <hydroph_interaction:ILE:82>  (64) 
hydroph_interaction:ILE:82    0
hydroph_interaction:ILE:82    0
Name: 63, dtype: object

>  <hbond:ILE:82>  (64) 
hbond:ILE:82    0
hbond:ILE:82    0
Name: 63, dtype: object

>  <hydroph_interaction:PHE:83>  (64) 
hydroph_interaction:PHE:83    0
hydroph_interaction:PHE:83    0
Name: 63, dtype: object

>  <hbond:PHE:83>  (64) 
hbond:PHE:83    0
hbond:PHE:83    0
Name: 63, dtype: object

>  <halogenbond:PHE:83>  (64) 
halogenbond:PHE:83    0
halogenbond:PHE:83    0
Name: 63, dtype: object

>  <pistack:PHE:83>  (64) 
pistack:PHE:83    0
pistack:PHE:83    0
Name: 63, dtype: object

>  <hydroph_interaction:VAL:84>  (64) 
hydroph_interaction:VAL:84    0
hydroph_interaction:VAL:84    0
Name: 63, dtype: object

>  <hbond:VAL:84>  (64) 
hbond:VAL:84    0
hbond:VAL:84    0
Name: 63, dtype: object

>  <halogenbond:VAL:84>  (64) 
halogenbond:VAL:84    0
halogenbond:VAL:84    0
Name: 63, dtype: object

>  <hydroph_interaction:GLU:85>  (64) 
hydroph_interaction:GLU:85    0
hydroph_interaction:GLU:85    0
Name: 63, dtype: object

>  <hbond:GLU:85>  (64) 
hbond:GLU:85    0
hbond:GLU:85    0
Name: 63, dtype: object

>  <saltbridge:GLU:85>  (64) 
saltbridge:GLU:85    0
saltbridge:GLU:85    0
Name: 63, dtype: object

>  <halogenbond:GLU:85>  (64) 
halogenbond:GLU:85    0
halogenbond:GLU:85    0
Name: 63, dtype: object

>  <hbond:ALA:86>  (64) 
hbond:ALA:86    0
hbond:ALA:86    0
Name: 63, dtype: object

>  <halogenbond:ALA:86>  (64) 
halogenbond:ALA:86    0
halogenbond:ALA:86    0
Name: 63, dtype: object

>  <hydroph_interaction:ALA:86>  (64) 
hydroph_interaction:ALA:86    0
hydroph_interaction:ALA:86    0
Name: 63, dtype: object

>  <hbond:SER:87>  (64) 
hbond:SER:87    0
hbond:SER:87    0
Name: 63, dtype: object

>  <halogenbond:SER:87>  (64) 
halogenbond:SER:87    0
halogenbond:SER:87    0
Name: 63, dtype: object

>  <hbond:GLU:88>  (64) 
hbond:GLU:88    0
hbond:GLU:88    0
Name: 63, dtype: object

>  <hydroph_interaction:GLU:88>  (64) 
hydroph_interaction:GLU:88    0
hydroph_interaction:GLU:88    0
Name: 63, dtype: object

>  <halogenbond:GLU:88>  (64) 
halogenbond:GLU:88    0
halogenbond:GLU:88    0
Name: 63, dtype: object

>  <saltbridge:GLU:88>  (64) 
saltbridge:GLU:88    0
saltbridge:GLU:88    0
Name: 63, dtype: object

>  <hydroph_interaction:TYR:89>  (64) 
hydroph_interaction:TYR:89    2
hydroph_interaction:TYR:89    2
Name: 63, dtype: object

>  <pistack:TYR:89>  (64) 
pistack:TYR:89    0
pistack:TYR:89    0
Name: 63, dtype: object

>  <hbond:TYR:89>  (64) 
hbond:TYR:89    0
hbond:TYR:89    0
Name: 63, dtype: object

>  <halogenbond:TYR:89>  (64) 
halogenbond:TYR:89    0
halogenbond:TYR:89    0
Name: 63, dtype: object

>  <hbond:TYR:90>  (64) 
hbond:TYR:90    0
hbond:TYR:90    0
Name: 63, dtype: object

>  <hydroph_interaction:TYR:90>  (64) 
hydroph_interaction:TYR:90    0
hydroph_interaction:TYR:90    0
Name: 63, dtype: object

>  <pistack:TYR:90>  (64) 
pistack:TYR:90    0
pistack:TYR:90    0
Name: 63, dtype: object

>  <halogenbond:TYR:90>  (64) 
halogenbond:TYR:90    0
halogenbond:TYR:90    0
Name: 63, dtype: object

>  <pication:TYR:90>  (64) 
pication:TYR:90    0
pication:TYR:90    0
Name: 63, dtype: object

>  <hydroph_interaction:PRO:91>  (64) 
hydroph_interaction:PRO:91    0
hydroph_interaction:PRO:91    0
Name: 63, dtype: object

>  <halogenbond:PRO:91>  (64) 
halogenbond:PRO:91    0
halogenbond:PRO:91    0
Name: 63, dtype: object

>  <hbond:PRO:91>  (64) 
hbond:PRO:91    0
hbond:PRO:91    0
Name: 63, dtype: object

>  <hydroph_interaction:ALA:92>  (64) 
hydroph_interaction:ALA:92    0
hydroph_interaction:ALA:92    0
Name: 63, dtype: object

>  <hbond:ARG:93>  (64) 
hbond:ARG:93    0
hbond:ARG:93    0
Name: 63, dtype: object

>  <pication:ARG:93>  (64) 
pication:ARG:93    0
pication:ARG:93    0
Name: 63, dtype: object

>  <saltbridge:ARG:93>  (64) 
saltbridge:ARG:93    0
saltbridge:ARG:93    0
Name: 63, dtype: object

>  <hydroph_interaction:ARG:93>  (64) 
hydroph_interaction:ARG:93    0
hydroph_interaction:ARG:93    0
Name: 63, dtype: object

>  <halogenbond:ARG:93>  (64) 
halogenbond:ARG:93    0
halogenbond:ARG:93    0
Name: 63, dtype: object

>  <hydroph_interaction:TYR:94>  (64) 
hydroph_interaction:TYR:94    0
hydroph_interaction:TYR:94    0
Name: 63, dtype: object

>  <hbond:TYR:94>  (64) 
hbond:TYR:94    0
hbond:TYR:94    0
Name: 63, dtype: object

>  <halogenbond:GLN:95>  (64) 
halogenbond:GLN:95    0
halogenbond:GLN:95    0
Name: 63, dtype: object

>  <hbond:GLN:95>  (64) 
hbond:GLN:95    0
hbond:GLN:95    0
Name: 63, dtype: object

>  <hydroph_interaction:GLN:95>  (64) 
hydroph_interaction:GLN:95    0
hydroph_interaction:GLN:95    0
Name: 63, dtype: object

>  <hbond:SER:96>  (64) 
hbond:SER:96    0
hbond:SER:96    0
Name: 63, dtype: object

>  <hydroph_interaction:LEU:98>  (64) 
hydroph_interaction:LEU:98    0
hydroph_interaction:LEU:98    0
Name: 63, dtype: object

>  <hbond:LEU:98>  (64) 
hbond:LEU:98    0
hbond:LEU:98    0
Name: 63, dtype: object

>  <hbond:MET:99>  (64) 
hbond:MET:99    0
hbond:MET:99    0
Name: 63, dtype: object

>  <hydroph_interaction:MET:99>  (64) 
hydroph_interaction:MET:99    0
hydroph_interaction:MET:99    0
Name: 63, dtype: object

>  <halogenbond:MET:99>  (64) 
halogenbond:MET:99    0
halogenbond:MET:99    0
Name: 63, dtype: object

>  <hydroph_interaction:LEU:100>  (64) 
hydroph_interaction:LEU:100    0
hydroph_interaction:LEU:100    0
Name: 63, dtype: object

>  <hbond:LEU:100>  (64) 
hbond:LEU:100    0
hbond:LEU:100    0
Name: 63, dtype: object

>  <hbond:ALA:101>  (64) 
hbond:ALA:101    0
hbond:ALA:101    0
Name: 63, dtype: object

>  <hydroph_interaction:ALA:101>  (64) 
hydroph_interaction:ALA:101    0
hydroph_interaction:ALA:101    0
Name: 63, dtype: object

>  <hydroph_interaction:VAL:102>  (64) 
hydroph_interaction:VAL:102    0
hydroph_interaction:VAL:102    0
Name: 63, dtype: object

>  <hbond:VAL:102>  (64) 
hbond:VAL:102    0
hbond:VAL:102    0
Name: 63, dtype: object

>  <hbond:GLY:103>  (64) 
hbond:GLY:103    0
hbond:GLY:103    0
Name: 63, dtype: object

>  <halogenbond:GLY:103>  (64) 
halogenbond:GLY:103    0
halogenbond:GLY:103    0
Name: 63, dtype: object

>  <hydroph_interaction:HIS:104>  (64) 
hydroph_interaction:HIS:104    0
hydroph_interaction:HIS:104    0
Name: 63, dtype: object

>  <hbond:HIS:104>  (64) 
hbond:HIS:104    0
hbond:HIS:104    0
Name: 63, dtype: object

>  <saltbridge:HIS:104>  (64) 
saltbridge:HIS:104    0
saltbridge:HIS:104    0
Name: 63, dtype: object

>  <pication:HIS:104>  (64) 
pication:HIS:104    0
pication:HIS:104    0
Name: 63, dtype: object

>  <pistack:HIS:104>  (64) 
pistack:HIS:104    0
pistack:HIS:104    0
Name: 63, dtype: object

>  <halogenbond:HIS:104>  (64) 
halogenbond:HIS:104    0
halogenbond:HIS:104    0
Name: 63, dtype: object

>  <hbond:SER:105>  (64) 
hbond:SER:105    0
hbond:SER:105    0
Name: 63, dtype: object

>  <halogenbond:SER:105>  (64) 
halogenbond:SER:105    0
halogenbond:SER:105    0
Name: 63, dtype: object

>  <hbond:GLU:106>  (64) 
hbond:GLU:106    0
hbond:GLU:106    0
Name: 63, dtype: object

>  <hydroph_interaction:GLU:106>  (64) 
hydroph_interaction:GLU:106    0
hydroph_interaction:GLU:106    0
Name: 63, dtype: object

>  <saltbridge:GLU:106>  (64) 
saltbridge:GLU:106    0
saltbridge:GLU:106    0
Name: 63, dtype: object

>  <halogenbond:GLU:106>  (64) 
halogenbond:GLU:106    0
halogenbond:GLU:106    0
Name: 63, dtype: object

>  <hydroph_interaction:PRO:107>  (64) 
hydroph_interaction:PRO:107    0
hydroph_interaction:PRO:107    0
Name: 63, dtype: object

>  <hbond:PRO:107>  (64) 
hbond:PRO:107    0
hbond:PRO:107    0
Name: 63, dtype: object

>  <halogenbond:PRO:107>  (64) 
halogenbond:PRO:107    0
halogenbond:PRO:107    0
Name: 63, dtype: object

>  <hbond:GLY:108>  (64) 
hbond:GLY:108    0
hbond:GLY:108    0
Name: 63, dtype: object

>  <halogenbond:GLY:108>  (64) 
halogenbond:GLY:108    0
halogenbond:GLY:108    0
Name: 63, dtype: object

>  <hbond:ASP:109>  (64) 
hbond:ASP:109    0
hbond:ASP:109    0
Name: 63, dtype: object

>  <hydroph_interaction:ASP:109>  (64) 
hydroph_interaction:ASP:109    0
hydroph_interaction:ASP:109    0
Name: 63, dtype: object

>  <saltbridge:ASP:109>  (64) 
saltbridge:ASP:109    0
saltbridge:ASP:109    0
Name: 63, dtype: object

>  <hbond:CYS:110>  (64) 
hbond:CYS:110    0
hbond:CYS:110    0
Name: 63, dtype: object

>  <halogenbond:CYS:110>  (64) 
halogenbond:CYS:110    0
halogenbond:CYS:110    0
Name: 63, dtype: object

>  <hbond:GLY:111>  (64) 
hbond:GLY:111    0
hbond:GLY:111    0
Name: 63, dtype: object

>  <hbond:GLY:112>  (64) 
hbond:GLY:112    0
hbond:GLY:112    0
Name: 63, dtype: object

>  <hbond:ILE:113>  (64) 
hbond:ILE:113    0
hbond:ILE:113    0
Name: 63, dtype: object

>  <hydroph_interaction:LEU:114>  (64) 
hydroph_interaction:LEU:114    0
hydroph_interaction:LEU:114    0
Name: 63, dtype: object

>  <hbond:LEU:114>  (64) 
hbond:LEU:114    0
hbond:LEU:114    0
Name: 63, dtype: object

>  <hydroph_interaction:ILE:123>  (64) 
hydroph_interaction:ILE:123    0
hydroph_interaction:ILE:123    0
Name: 63, dtype: object

>  <hbond:ILE:123>  (64) 
hbond:ILE:123    0
hbond:ILE:123    0
Name: 63, dtype: object

>  <hydroph_interaction:VAL:124>  (64) 
hydroph_interaction:VAL:124    1
hydroph_interaction:VAL:124    1
Name: 63, dtype: object

>  <hbond:VAL:124>  (64) 
hbond:VAL:124    0
hbond:VAL:124    0
Name: 63, dtype: object

>  <halogenbond:VAL:124>  (64) 
halogenbond:VAL:124    0
halogenbond:VAL:124    0
Name: 63, dtype: object

>  <hbond:SER:125>  (64) 
hbond:SER:125    0
hbond:SER:125    0
Name: 63, dtype: object

>  <halogenbond:SER:125>  (64) 
halogenbond:SER:125    0
halogenbond:SER:125    0
Name: 63, dtype: object

>  <hydroph_interaction:THR:126>  (64) 
hydroph_interaction:THR:126    0
hydroph_interaction:THR:126    0
Name: 63, dtype: object

>  <hbond:THR:126>  (64) 
hbond:THR:126    0
hbond:THR:126    0
Name: 63, dtype: object

>  <halogenbond:THR:126>  (64) 
halogenbond:THR:126    0
halogenbond:THR:126    0
Name: 63, dtype: object

>  <hbond:GLY:127>  (64) 
hbond:GLY:127    0
hbond:GLY:127    0
Name: 63, dtype: object

>  <halogenbond:GLY:127>  (64) 
halogenbond:GLY:127    0
halogenbond:GLY:127    0
Name: 63, dtype: object

>  <hydroph_interaction:GLY:127>  (64) 
hydroph_interaction:GLY:127    0
hydroph_interaction:GLY:127    0
Name: 63, dtype: object

>  <hbond:GLY:128>  (64) 
hbond:GLY:128    0
hbond:GLY:128    0
Name: 63, dtype: object

>  <halogenbond:GLY:128>  (64) 
halogenbond:GLY:128    0
halogenbond:GLY:128    0
Name: 63, dtype: object

>  <hydroph_interaction:GLY:128>  (64) 
hydroph_interaction:GLY:128    0
hydroph_interaction:GLY:128    0
Name: 63, dtype: object

>  <hbond:ASN:129>  (64) 
hbond:ASN:129    0
hbond:ASN:129    0
Name: 63, dtype: object

>  <hydroph_interaction:ASN:129>  (64) 
hydroph_interaction:ASN:129    0
hydroph_interaction:ASN:129    0
Name: 63, dtype: object

>  <halogenbond:ASN:129>  (64) 
halogenbond:ASN:129    0
halogenbond:ASN:129    0
Name: 63, dtype: object

>  <hbond:GLY:130>  (64) 
hbond:GLY:130    0
hbond:GLY:130    0
Name: 63, dtype: object

>  <hydroph_interaction:LEU:131>  (64) 
hydroph_interaction:LEU:131    0
hydroph_interaction:LEU:131    0
Name: 63, dtype: object

>  <hbond:LEU:131>  (64) 
hbond:LEU:131    0
hbond:LEU:131    0
Name: 63, dtype: object

>  <halogenbond:LEU:131>  (64) 
halogenbond:LEU:131    0
halogenbond:LEU:131    0
Name: 63, dtype: object

>  <hydroph_interaction:VAL:132>  (64) 
hydroph_interaction:VAL:132    0
hydroph_interaction:VAL:132    0
Name: 63, dtype: object

>  <hbond:VAL:132>  (64) 
hbond:VAL:132    0
hbond:VAL:132    0
Name: 63, dtype: object

>  <hbond:GLY:133>  (64) 
hbond:GLY:133    0
hbond:GLY:133    0
Name: 63, dtype: object

>  <halogenbond:GLY:133>  (64) 
halogenbond:GLY:133    0
halogenbond:GLY:133    0
Name: 63, dtype: object

>  <hydroph_interaction:PHE:134>  (64) 
hydroph_interaction:PHE:134    0
hydroph_interaction:PHE:134    0
Name: 63, dtype: object

>  <hbond:PHE:134>  (64) 
hbond:PHE:134    0
hbond:PHE:134    0
Name: 63, dtype: object

>  <pistack:PHE:134>  (64) 
pistack:PHE:134    0
pistack:PHE:134    0
Name: 63, dtype: object

>  <pication:PHE:134>  (64) 
pication:PHE:134    0
pication:PHE:134    0
Name: 63, dtype: object

>  <hydroph_interaction:ALA:135>  (64) 
hydroph_interaction:ALA:135    0
hydroph_interaction:ALA:135    0
Name: 63, dtype: object

>  <hbond:ALA:135>  (64) 
hbond:ALA:135    0
hbond:ALA:135    0
Name: 63, dtype: object

$$$$
PV_002881139093
     RDKit          3D

 23 24  0  0  0  0  0  0  0  0999 V2000
   12.4190   15.7600   21.8020 C   0  0  0  0  0  0  0  0  0  0  0  0
   12.5020   14.3290   22.2920 C   0  0  0  0  0  0  0  0  0  0  0  0
   11.3630   14.0190   23.0970 O   0  0  0  0  0  0  0  0  0  0  0  0
   10.3260   13.5020   22.3920 C   0  0  0  0  0  0  0  0  0  0  0  0
    9.8800   14.0470   21.3880 O   0  0  0  0  0  0  0  0  0  0  0  0
    9.7870   12.2420   22.9990 C   0  0  0  0  0  0  0  0  0  0  0  0
   10.1670   10.9510   22.7020 C   0  0  0  0  0  0  0  0  0  0  0  0
    9.3270    9.7730   23.5870 S   0  0  0  0  0  0  0  0  0  0  0  0
    8.4190   10.9640   24.3940 C   0  0  0  0  0  0  0  0  0  0  0  0
    7.4360   10.7730   25.3450 C   0  0  0  0  0  0  0  0  0  0  0  0
    6.8290   11.9050   25.8650 C   0  0  0  0  0  0  0  0  0  0  0  0
    7.2280   13.1450   25.4170 C   0  0  0  0  0  0  0  0  0  0  0  0
    8.1750   13.3560   24.4980 N   0  0  0  0  0  0  0  0  0  0  0  0
    8.7680   12.2450   23.9880 C   0  0  0  0  0  0  0  0  0  0  0  0
   11.5540   15.8900   21.1500 H   0  0  0  0  0  0  0  0  0  0  0  0
   13.3180   16.0090   21.2300 H   0  0  0  0  0  0  0  0  0  0  0  0
   12.3160   16.4470   22.6500 H   0  0  0  0  0  0  0  0  0  0  0  0
   13.4060   14.2020   22.8940 H   0  0  0  0  0  0  0  0  0  0  0  0
   12.5450   13.6430   21.4400 H   0  0  0  0  0  0  0  0  0  0  0  0
   10.9050   10.6270   21.9940 H   0  0  0  0  0  0  0  0  0  0  0  0
    7.1400    9.7980   25.6770 H   0  0  0  0  0  0  0  0  0  0  0  0
    6.0520   11.8160   26.6130 H   0  0  0  0  0  0  0  0  0  0  0  0
    6.7680   14.0460   25.8110 H   0  0  0  0  0  0  0  0  0  0  0  0
  1  2  1  0
  2  3  1  0
  3  4  1  0
  4  5  2  0
  4  6  1  0
  6  7  2  0
  7  8  1  0
  8  9  1  0
  9 10  2  0
 10 11  1  0
 11 12  2  0
 12 13  1  0
 13 14  2  0
 14  6  1  0
 14  9  1  0
  1 15  1  0
  1 16  1  0
  1 17  1  0
  2 18  1  0
  2 19  1  0
  7 20  1  0
 10 21  1  0
 11 22  1  0
 12 23  1  0
A    1
 C1 
A    2
 C2 
A    3
 O1 
A    4
 C3 
A    5
 O2 
A    6
 C4 
A    7
 C5 
A    8
 S1 
A    9
 C6 
A   10
 C7 
A   11
 C8 
A   12
 C9 
A   13
 N1 
A   14
 C10
A   15
 H1 
A   16
 H2 
A   17
 H3 
A   18
 H4 
A   19
 H5 
A   20
 H6 
A   21
 H7 
A   22
 H8 
A   23
 H9 
M  END
>  <ref_pdb>  (65) 
x0310_0A

>  <ref_mols>  (65) 
x0554_0A,x0310_0A

>  <original SMILES>  (65) 
CCOC(=O)c1csc2cccnc12

>  <rationale>  (65) 
info hbond:S87; hydroph_interaction:Y89+Y90; saltbridge:H21; 

>  <intxn_cluster>  (65) 
206

>  <intxn_cluster_rank>  (65) 
18

>  <N_interactions>  (65) 
4

>  <∆∆G>  (65) 
-8.374749

>  <$/mg>  (65) 
163.0

>  <comRMSD>  (65) 
0.908756

>  <N_rotatable_bonds>  (65) 
3

>  <N_analogues_07>  (65) 
0

>  <deep_P1_sidechain>  (65) 
False

>  <farthest_distance_to_substrate>  (65) 
2.520814

>  <hbond:SER:7>  (65) 
hbond:SER:7    0
hbond:SER:7    0
Name: 64, dtype: object

>  <halogenbond:SER:7>  (65) 
halogenbond:SER:7    0
halogenbond:SER:7    0
Name: 64, dtype: object

>  <hbond:GLY:8>  (65) 
hbond:GLY:8    0
hbond:GLY:8    0
Name: 64, dtype: object

>  <hydroph_interaction:ASN:19>  (65) 
hydroph_interaction:ASN:19    0
hydroph_interaction:ASN:19    0
Name: 64, dtype: object

>  <hbond:ASN:19>  (65) 
hbond:ASN:19    0
hbond:ASN:19    0
Name: 64, dtype: object

>  <halogenbond:ASN:19>  (65) 
halogenbond:ASN:19    0
halogenbond:ASN:19    0
Name: 64, dtype: object

>  <hbond:ARG:20>  (65) 
hbond:ARG:20    0
hbond:ARG:20    0
Name: 64, dtype: object

>  <hydroph_interaction:ARG:20>  (65) 
hydroph_interaction:ARG:20    0
hydroph_interaction:ARG:20    0
Name: 64, dtype: object

>  <saltbridge:ARG:20>  (65) 
saltbridge:ARG:20    0
saltbridge:ARG:20    0
Name: 64, dtype: object

>  <halogenbond:ARG:20>  (65) 
halogenbond:ARG:20    0
halogenbond:ARG:20    0
Name: 64, dtype: object

>  <pication:ARG:20>  (65) 
pication:ARG:20    0
pication:ARG:20    0
Name: 64, dtype: object

>  <hbond:HIS:21>  (65) 
hbond:HIS:21    0
hbond:HIS:21    0
Name: 64, dtype: object

>  <hydroph_interaction:HIS:21>  (65) 
hydroph_interaction:HIS:21    0
hydroph_interaction:HIS:21    0
Name: 64, dtype: object

>  <saltbridge:HIS:21>  (65) 
saltbridge:HIS:21    1
saltbridge:HIS:21    1
Name: 64, dtype: object

>  <pistack:HIS:21>  (65) 
pistack:HIS:21    0
pistack:HIS:21    0
Name: 64, dtype: object

>  <pication:HIS:21>  (65) 
pication:HIS:21    0
pication:HIS:21    0
Name: 64, dtype: object

>  <halogenbond:HIS:21>  (65) 
halogenbond:HIS:21    0
halogenbond:HIS:21    0
Name: 64, dtype: object

>  <hydroph_interaction:LEU:22>  (65) 
hydroph_interaction:LEU:22    0
hydroph_interaction:LEU:22    0
Name: 64, dtype: object

>  <hbond:LEU:22>  (65) 
hbond:LEU:22    0
hbond:LEU:22    0
Name: 64, dtype: object

>  <hydroph_interaction:TRP:28>  (65) 
hydroph_interaction:TRP:28    0
hydroph_interaction:TRP:28    0
Name: 64, dtype: object

>  <hbond:SER:36>  (65) 
hbond:SER:36    0
hbond:SER:36    0
Name: 64, dtype: object

>  <halogenbond:SER:36>  (65) 
halogenbond:SER:36    0
halogenbond:SER:36    0
Name: 64, dtype: object

>  <hbond:ARG:38>  (65) 
hbond:ARG:38    0
hbond:ARG:38    0
Name: 64, dtype: object

>  <halogenbond:ARG:38>  (65) 
halogenbond:ARG:38    0
halogenbond:ARG:38    0
Name: 64, dtype: object

>  <hbond:ASP:39>  (65) 
hbond:ASP:39    0
hbond:ASP:39    0
Name: 64, dtype: object

>  <saltbridge:ASP:39>  (65) 
saltbridge:ASP:39    0
saltbridge:ASP:39    0
Name: 64, dtype: object

>  <hydroph_interaction:ASP:39>  (65) 
hydroph_interaction:ASP:39    0
hydroph_interaction:ASP:39    0
Name: 64, dtype: object

>  <halogenbond:ASP:39>  (65) 
halogenbond:ASP:39    0
halogenbond:ASP:39    0
Name: 64, dtype: object

>  <hydroph_interaction:LEU:40>  (65) 
hydroph_interaction:LEU:40    0
hydroph_interaction:LEU:40    0
Name: 64, dtype: object

>  <hydroph_interaction:TYR:63>  (65) 
hydroph_interaction:TYR:63    0
hydroph_interaction:TYR:63    0
Name: 64, dtype: object

>  <pistack:TYR:63>  (65) 
pistack:TYR:63    0
pistack:TYR:63    0
Name: 64, dtype: object

>  <hbond:TYR:63>  (65) 
hbond:TYR:63    0
hbond:TYR:63    0
Name: 64, dtype: object

>  <hbond:TYR:64>  (65) 
hbond:TYR:64    0
hbond:TYR:64    0
Name: 64, dtype: object

>  <halogenbond:TYR:64>  (65) 
halogenbond:TYR:64    0
halogenbond:TYR:64    0
Name: 64, dtype: object

>  <hydroph_interaction:TYR:64>  (65) 
hydroph_interaction:TYR:64    0
hydroph_interaction:TYR:64    0
Name: 64, dtype: object

>  <hbond:CYS:65>  (65) 
hbond:CYS:65    0
hbond:CYS:65    0
Name: 64, dtype: object

>  <halogenbond:CYS:65>  (65) 
halogenbond:CYS:65    0
halogenbond:CYS:65    0
Name: 64, dtype: object

>  <hbond:SER:66>  (65) 
hbond:SER:66    0
hbond:SER:66    0
Name: 64, dtype: object

>  <hbond:SER:67>  (65) 
hbond:SER:67    0
hbond:SER:67    0
Name: 64, dtype: object

>  <halogenbond:SER:67>  (65) 
halogenbond:SER:67    0
halogenbond:SER:67    0
Name: 64, dtype: object

>  <hydroph_interaction:ARG:68>  (65) 
hydroph_interaction:ARG:68    0
hydroph_interaction:ARG:68    0
Name: 64, dtype: object

>  <hbond:ARG:68>  (65) 
hbond:ARG:68    0
hbond:ARG:68    0
Name: 64, dtype: object

>  <saltbridge:ARG:68>  (65) 
saltbridge:ARG:68    0
saltbridge:ARG:68    0
Name: 64, dtype: object

>  <pication:ARG:68>  (65) 
pication:ARG:68    0
pication:ARG:68    0
Name: 64, dtype: object

>  <hydroph_interaction:TYR:72>  (65) 
hydroph_interaction:TYR:72    0
hydroph_interaction:TYR:72    0
Name: 64, dtype: object

>  <hydroph_interaction:VAL:74>  (65) 
hydroph_interaction:VAL:74    0
hydroph_interaction:VAL:74    0
Name: 64, dtype: object

>  <hydroph_interaction:PHE:76>  (65) 
hydroph_interaction:PHE:76    0
hydroph_interaction:PHE:76    0
Name: 64, dtype: object

>  <hbond:SER:77>  (65) 
hbond:SER:77    0
hbond:SER:77    0
Name: 64, dtype: object

>  <hbond:SER:80>  (65) 
hbond:SER:80    0
hbond:SER:80    0
Name: 64, dtype: object

>  <hbond:LEU:81>  (65) 
hbond:LEU:81    0
hbond:LEU:81    0
Name: 64, dtype: object

>  <halogenbond:LEU:81>  (65) 
halogenbond:LEU:81    0
halogenbond:LEU:81    0
Name: 64, dtype: object

>  <hydroph_interaction:LEU:81>  (65) 
hydroph_interaction:LEU:81    0
hydroph_interaction:LEU:81    0
Name: 64, dtype: object

>  <hydroph_interaction:ILE:82>  (65) 
hydroph_interaction:ILE:82    0
hydroph_interaction:ILE:82    0
Name: 64, dtype: object

>  <hbond:ILE:82>  (65) 
hbond:ILE:82    0
hbond:ILE:82    0
Name: 64, dtype: object

>  <hydroph_interaction:PHE:83>  (65) 
hydroph_interaction:PHE:83    0
hydroph_interaction:PHE:83    0
Name: 64, dtype: object

>  <hbond:PHE:83>  (65) 
hbond:PHE:83    0
hbond:PHE:83    0
Name: 64, dtype: object

>  <halogenbond:PHE:83>  (65) 
halogenbond:PHE:83    0
halogenbond:PHE:83    0
Name: 64, dtype: object

>  <pistack:PHE:83>  (65) 
pistack:PHE:83    0
pistack:PHE:83    0
Name: 64, dtype: object

>  <hydroph_interaction:VAL:84>  (65) 
hydroph_interaction:VAL:84    0
hydroph_interaction:VAL:84    0
Name: 64, dtype: object

>  <hbond:VAL:84>  (65) 
hbond:VAL:84    0
hbond:VAL:84    0
Name: 64, dtype: object

>  <halogenbond:VAL:84>  (65) 
halogenbond:VAL:84    0
halogenbond:VAL:84    0
Name: 64, dtype: object

>  <hydroph_interaction:GLU:85>  (65) 
hydroph_interaction:GLU:85    0
hydroph_interaction:GLU:85    0
Name: 64, dtype: object

>  <hbond:GLU:85>  (65) 
hbond:GLU:85    0
hbond:GLU:85    0
Name: 64, dtype: object

>  <saltbridge:GLU:85>  (65) 
saltbridge:GLU:85    0
saltbridge:GLU:85    0
Name: 64, dtype: object

>  <halogenbond:GLU:85>  (65) 
halogenbond:GLU:85    0
halogenbond:GLU:85    0
Name: 64, dtype: object

>  <hbond:ALA:86>  (65) 
hbond:ALA:86    0
hbond:ALA:86    0
Name: 64, dtype: object

>  <halogenbond:ALA:86>  (65) 
halogenbond:ALA:86    0
halogenbond:ALA:86    0
Name: 64, dtype: object

>  <hydroph_interaction:ALA:86>  (65) 
hydroph_interaction:ALA:86    0
hydroph_interaction:ALA:86    0
Name: 64, dtype: object

>  <hbond:SER:87>  (65) 
hbond:SER:87    1
hbond:SER:87    1
Name: 64, dtype: object

>  <halogenbond:SER:87>  (65) 
halogenbond:SER:87    0
halogenbond:SER:87    0
Name: 64, dtype: object

>  <hbond:GLU:88>  (65) 
hbond:GLU:88    0
hbond:GLU:88    0
Name: 64, dtype: object

>  <hydroph_interaction:GLU:88>  (65) 
hydroph_interaction:GLU:88    0
hydroph_interaction:GLU:88    0
Name: 64, dtype: object

>  <halogenbond:GLU:88>  (65) 
halogenbond:GLU:88    0
halogenbond:GLU:88    0
Name: 64, dtype: object

>  <saltbridge:GLU:88>  (65) 
saltbridge:GLU:88    0
saltbridge:GLU:88    0
Name: 64, dtype: object

>  <hydroph_interaction:TYR:89>  (65) 
hydroph_interaction:TYR:89    1
hydroph_interaction:TYR:89    1
Name: 64, dtype: object

>  <pistack:TYR:89>  (65) 
pistack:TYR:89    0
pistack:TYR:89    0
Name: 64, dtype: object

>  <hbond:TYR:89>  (65) 
hbond:TYR:89    0
hbond:TYR:89    0
Name: 64, dtype: object

>  <halogenbond:TYR:89>  (65) 
halogenbond:TYR:89    0
halogenbond:TYR:89    0
Name: 64, dtype: object

>  <hbond:TYR:90>  (65) 
hbond:TYR:90    0
hbond:TYR:90    0
Name: 64, dtype: object

>  <hydroph_interaction:TYR:90>  (65) 
hydroph_interaction:TYR:90    1
hydroph_interaction:TYR:90    1
Name: 64, dtype: object

>  <pistack:TYR:90>  (65) 
pistack:TYR:90    0
pistack:TYR:90    0
Name: 64, dtype: object

>  <halogenbond:TYR:90>  (65) 
halogenbond:TYR:90    0
halogenbond:TYR:90    0
Name: 64, dtype: object

>  <pication:TYR:90>  (65) 
pication:TYR:90    0
pication:TYR:90    0
Name: 64, dtype: object

>  <hydroph_interaction:PRO:91>  (65) 
hydroph_interaction:PRO:91    0
hydroph_interaction:PRO:91    0
Name: 64, dtype: object

>  <halogenbond:PRO:91>  (65) 
halogenbond:PRO:91    0
halogenbond:PRO:91    0
Name: 64, dtype: object

>  <hbond:PRO:91>  (65) 
hbond:PRO:91    0
hbond:PRO:91    0
Name: 64, dtype: object

>  <hydroph_interaction:ALA:92>  (65) 
hydroph_interaction:ALA:92    0
hydroph_interaction:ALA:92    0
Name: 64, dtype: object

>  <hbond:ARG:93>  (65) 
hbond:ARG:93    0
hbond:ARG:93    0
Name: 64, dtype: object

>  <pication:ARG:93>  (65) 
pication:ARG:93    0
pication:ARG:93    0
Name: 64, dtype: object

>  <saltbridge:ARG:93>  (65) 
saltbridge:ARG:93    0
saltbridge:ARG:93    0
Name: 64, dtype: object

>  <hydroph_interaction:ARG:93>  (65) 
hydroph_interaction:ARG:93    0
hydroph_interaction:ARG:93    0
Name: 64, dtype: object

>  <halogenbond:ARG:93>  (65) 
halogenbond:ARG:93    0
halogenbond:ARG:93    0
Name: 64, dtype: object

>  <hydroph_interaction:TYR:94>  (65) 
hydroph_interaction:TYR:94    0
hydroph_interaction:TYR:94    0
Name: 64, dtype: object

>  <hbond:TYR:94>  (65) 
hbond:TYR:94    0
hbond:TYR:94    0
Name: 64, dtype: object

>  <halogenbond:GLN:95>  (65) 
halogenbond:GLN:95    0
halogenbond:GLN:95    0
Name: 64, dtype: object

>  <hbond:GLN:95>  (65) 
hbond:GLN:95    0
hbond:GLN:95    0
Name: 64, dtype: object

>  <hydroph_interaction:GLN:95>  (65) 
hydroph_interaction:GLN:95    0
hydroph_interaction:GLN:95    0
Name: 64, dtype: object

>  <hbond:SER:96>  (65) 
hbond:SER:96    0
hbond:SER:96    0
Name: 64, dtype: object

>  <hydroph_interaction:LEU:98>  (65) 
hydroph_interaction:LEU:98    0
hydroph_interaction:LEU:98    0
Name: 64, dtype: object

>  <hbond:LEU:98>  (65) 
hbond:LEU:98    0
hbond:LEU:98    0
Name: 64, dtype: object

>  <hbond:MET:99>  (65) 
hbond:MET:99    0
hbond:MET:99    0
Name: 64, dtype: object

>  <hydroph_interaction:MET:99>  (65) 
hydroph_interaction:MET:99    0
hydroph_interaction:MET:99    0
Name: 64, dtype: object

>  <halogenbond:MET:99>  (65) 
halogenbond:MET:99    0
halogenbond:MET:99    0
Name: 64, dtype: object

>  <hydroph_interaction:LEU:100>  (65) 
hydroph_interaction:LEU:100    0
hydroph_interaction:LEU:100    0
Name: 64, dtype: object

>  <hbond:LEU:100>  (65) 
hbond:LEU:100    0
hbond:LEU:100    0
Name: 64, dtype: object

>  <hbond:ALA:101>  (65) 
hbond:ALA:101    0
hbond:ALA:101    0
Name: 64, dtype: object

>  <hydroph_interaction:ALA:101>  (65) 
hydroph_interaction:ALA:101    0
hydroph_interaction:ALA:101    0
Name: 64, dtype: object

>  <hydroph_interaction:VAL:102>  (65) 
hydroph_interaction:VAL:102    0
hydroph_interaction:VAL:102    0
Name: 64, dtype: object

>  <hbond:VAL:102>  (65) 
hbond:VAL:102    0
hbond:VAL:102    0
Name: 64, dtype: object

>  <hbond:GLY:103>  (65) 
hbond:GLY:103    0
hbond:GLY:103    0
Name: 64, dtype: object

>  <halogenbond:GLY:103>  (65) 
halogenbond:GLY:103    0
halogenbond:GLY:103    0
Name: 64, dtype: object

>  <hydroph_interaction:HIS:104>  (65) 
hydroph_interaction:HIS:104    0
hydroph_interaction:HIS:104    0
Name: 64, dtype: object

>  <hbond:HIS:104>  (65) 
hbond:HIS:104    0
hbond:HIS:104    0
Name: 64, dtype: object

>  <saltbridge:HIS:104>  (65) 
saltbridge:HIS:104    0
saltbridge:HIS:104    0
Name: 64, dtype: object

>  <pication:HIS:104>  (65) 
pication:HIS:104    0
pication:HIS:104    0
Name: 64, dtype: object

>  <pistack:HIS:104>  (65) 
pistack:HIS:104    0
pistack:HIS:104    0
Name: 64, dtype: object

>  <halogenbond:HIS:104>  (65) 
halogenbond:HIS:104    0
halogenbond:HIS:104    0
Name: 64, dtype: object

>  <hbond:SER:105>  (65) 
hbond:SER:105    0
hbond:SER:105    0
Name: 64, dtype: object

>  <halogenbond:SER:105>  (65) 
halogenbond:SER:105    0
halogenbond:SER:105    0
Name: 64, dtype: object

>  <hbond:GLU:106>  (65) 
hbond:GLU:106    0
hbond:GLU:106    0
Name: 64, dtype: object

>  <hydroph_interaction:GLU:106>  (65) 
hydroph_interaction:GLU:106    0
hydroph_interaction:GLU:106    0
Name: 64, dtype: object

>  <saltbridge:GLU:106>  (65) 
saltbridge:GLU:106    0
saltbridge:GLU:106    0
Name: 64, dtype: object

>  <halogenbond:GLU:106>  (65) 
halogenbond:GLU:106    0
halogenbond:GLU:106    0
Name: 64, dtype: object

>  <hydroph_interaction:PRO:107>  (65) 
hydroph_interaction:PRO:107    0
hydroph_interaction:PRO:107    0
Name: 64, dtype: object

>  <hbond:PRO:107>  (65) 
hbond:PRO:107    0
hbond:PRO:107    0
Name: 64, dtype: object

>  <halogenbond:PRO:107>  (65) 
halogenbond:PRO:107    0
halogenbond:PRO:107    0
Name: 64, dtype: object

>  <hbond:GLY:108>  (65) 
hbond:GLY:108    0
hbond:GLY:108    0
Name: 64, dtype: object

>  <halogenbond:GLY:108>  (65) 
halogenbond:GLY:108    0
halogenbond:GLY:108    0
Name: 64, dtype: object

>  <hbond:ASP:109>  (65) 
hbond:ASP:109    0
hbond:ASP:109    0
Name: 64, dtype: object

>  <hydroph_interaction:ASP:109>  (65) 
hydroph_interaction:ASP:109    0
hydroph_interaction:ASP:109    0
Name: 64, dtype: object

>  <saltbridge:ASP:109>  (65) 
saltbridge:ASP:109    0
saltbridge:ASP:109    0
Name: 64, dtype: object

>  <hbond:CYS:110>  (65) 
hbond:CYS:110    0
hbond:CYS:110    0
Name: 64, dtype: object

>  <halogenbond:CYS:110>  (65) 
halogenbond:CYS:110    0
halogenbond:CYS:110    0
Name: 64, dtype: object

>  <hbond:GLY:111>  (65) 
hbond:GLY:111    0
hbond:GLY:111    0
Name: 64, dtype: object

>  <hbond:GLY:112>  (65) 
hbond:GLY:112    0
hbond:GLY:112    0
Name: 64, dtype: object

>  <hbond:ILE:113>  (65) 
hbond:ILE:113    0
hbond:ILE:113    0
Name: 64, dtype: object

>  <hydroph_interaction:LEU:114>  (65) 
hydroph_interaction:LEU:114    0
hydroph_interaction:LEU:114    0
Name: 64, dtype: object

>  <hbond:LEU:114>  (65) 
hbond:LEU:114    0
hbond:LEU:114    0
Name: 64, dtype: object

>  <hydroph_interaction:ILE:123>  (65) 
hydroph_interaction:ILE:123    0
hydroph_interaction:ILE:123    0
Name: 64, dtype: object

>  <hbond:ILE:123>  (65) 
hbond:ILE:123    0
hbond:ILE:123    0
Name: 64, dtype: object

>  <hydroph_interaction:VAL:124>  (65) 
hydroph_interaction:VAL:124    0
hydroph_interaction:VAL:124    0
Name: 64, dtype: object

>  <hbond:VAL:124>  (65) 
hbond:VAL:124    0
hbond:VAL:124    0
Name: 64, dtype: object

>  <halogenbond:VAL:124>  (65) 
halogenbond:VAL:124    0
halogenbond:VAL:124    0
Name: 64, dtype: object

>  <hbond:SER:125>  (65) 
hbond:SER:125    0
hbond:SER:125    0
Name: 64, dtype: object

>  <halogenbond:SER:125>  (65) 
halogenbond:SER:125    0
halogenbond:SER:125    0
Name: 64, dtype: object

>  <hydroph_interaction:THR:126>  (65) 
hydroph_interaction:THR:126    0
hydroph_interaction:THR:126    0
Name: 64, dtype: object

>  <hbond:THR:126>  (65) 
hbond:THR:126    0
hbond:THR:126    0
Name: 64, dtype: object

>  <halogenbond:THR:126>  (65) 
halogenbond:THR:126    0
halogenbond:THR:126    0
Name: 64, dtype: object

>  <hbond:GLY:127>  (65) 
hbond:GLY:127    0
hbond:GLY:127    0
Name: 64, dtype: object

>  <halogenbond:GLY:127>  (65) 
halogenbond:GLY:127    0
halogenbond:GLY:127    0
Name: 64, dtype: object

>  <hydroph_interaction:GLY:127>  (65) 
hydroph_interaction:GLY:127    0
hydroph_interaction:GLY:127    0
Name: 64, dtype: object

>  <hbond:GLY:128>  (65) 
hbond:GLY:128    0
hbond:GLY:128    0
Name: 64, dtype: object

>  <halogenbond:GLY:128>  (65) 
halogenbond:GLY:128    0
halogenbond:GLY:128    0
Name: 64, dtype: object

>  <hydroph_interaction:GLY:128>  (65) 
hydroph_interaction:GLY:128    0
hydroph_interaction:GLY:128    0
Name: 64, dtype: object

>  <hbond:ASN:129>  (65) 
hbond:ASN:129    0
hbond:ASN:129    0
Name: 64, dtype: object

>  <hydroph_interaction:ASN:129>  (65) 
hydroph_interaction:ASN:129    0
hydroph_interaction:ASN:129    0
Name: 64, dtype: object

>  <halogenbond:ASN:129>  (65) 
halogenbond:ASN:129    0
halogenbond:ASN:129    0
Name: 64, dtype: object

>  <hbond:GLY:130>  (65) 
hbond:GLY:130    0
hbond:GLY:130    0
Name: 64, dtype: object

>  <hydroph_interaction:LEU:131>  (65) 
hydroph_interaction:LEU:131    0
hydroph_interaction:LEU:131    0
Name: 64, dtype: object

>  <hbond:LEU:131>  (65) 
hbond:LEU:131    0
hbond:LEU:131    0
Name: 64, dtype: object

>  <halogenbond:LEU:131>  (65) 
halogenbond:LEU:131    0
halogenbond:LEU:131    0
Name: 64, dtype: object

>  <hydroph_interaction:VAL:132>  (65) 
hydroph_interaction:VAL:132    0
hydroph_interaction:VAL:132    0
Name: 64, dtype: object

>  <hbond:VAL:132>  (65) 
hbond:VAL:132    0
hbond:VAL:132    0
Name: 64, dtype: object

>  <hbond:GLY:133>  (65) 
hbond:GLY:133    0
hbond:GLY:133    0
Name: 64, dtype: object

>  <halogenbond:GLY:133>  (65) 
halogenbond:GLY:133    0
halogenbond:GLY:133    0
Name: 64, dtype: object

>  <hydroph_interaction:PHE:134>  (65) 
hydroph_interaction:PHE:134    0
hydroph_interaction:PHE:134    0
Name: 64, dtype: object

>  <hbond:PHE:134>  (65) 
hbond:PHE:134    0
hbond:PHE:134    0
Name: 64, dtype: object

>  <pistack:PHE:134>  (65) 
pistack:PHE:134    0
pistack:PHE:134    0
Name: 64, dtype: object

>  <pication:PHE:134>  (65) 
pication:PHE:134    0
pication:PHE:134    0
Name: 64, dtype: object

>  <hydroph_interaction:ALA:135>  (65) 
hydroph_interaction:ALA:135    0
hydroph_interaction:ALA:135    0
Name: 64, dtype: object

>  <hbond:ALA:135>  (65) 
hbond:ALA:135    0
hbond:ALA:135    0
Name: 64, dtype: object

$$$$
PV_002404879736
     RDKit          3D

 30 31  0  0  0  0  0  0  0  0999 V2000
   12.3900   15.8610   21.7250 C   0  0  0  0  0  0  0  0  0  0  0  0
   12.5560   14.4530   22.2480 C   0  0  0  0  0  0  0  0  0  0  0  0
   11.4430   14.0180   23.0410 N   0  0  0  0  0  0  0  0  0  0  0  0
   10.3100   13.5530   22.4400 C   0  0  0  0  0  0  0  0  0  0  0  0
    9.8090   14.0860   21.4560 O   0  0  0  0  0  0  0  0  0  0  0  0
    9.7340   12.3850   23.0680 C   0  0  0  0  0  0  0  0  0  0  0  0
    8.7590   12.5170   24.0110 C   0  0  0  0  0  0  0  0  0  0  0  0
    8.3250   13.7750   24.3700 C   0  0  0  0  0  0  0  0  0  0  0  0
    7.3750   14.0220   25.2850 N   0  0  0  0  0  0  0  0  0  0  0  0
    6.8450   12.8940   25.8540 C   0  0  0  0  0  0  0  0  0  0  0  0
    7.2030   11.5990   25.5670 C   0  0  0  0  0  0  0  0  0  0  0  0
    8.1880   11.3860   24.6200 C   0  0  0  0  0  0  0  0  0  0  0  0
    8.6370   10.1140   24.2440 C   0  0  0  0  0  0  0  0  0  0  0  0
    9.6370    9.9940   23.2830 C   0  0  0  0  0  0  0  0  0  0  0  0
   10.1930    8.7200   22.8050 C   0  0  0  0  0  0  0  0  0  0  0  0
   10.1640   11.1120   22.7180 C   0  0  0  0  0  0  0  0  0  0  0  0
   13.2650   16.1470   21.1340 H   0  0  0  0  0  0  0  0  0  0  0  0
   12.2740   16.5830   22.5380 H   0  0  0  0  0  0  0  0  0  0  0  0
   11.5080   15.9340   21.0870 H   0  0  0  0  0  0  0  0  0  0  0  0
   12.6550   13.7500   21.4150 H   0  0  0  0  0  0  0  0  0  0  0  0
   13.4550   14.3910   22.8640 H   0  0  0  0  0  0  0  0  0  0  0  0
   11.6440   13.7000   23.9780 H   0  0  0  0  0  0  0  0  0  0  0  0
    8.7390   14.6690   23.9190 H   0  0  0  0  0  0  0  0  0  0  0  0
    6.0750   13.0920   26.5940 H   0  0  0  0  0  0  0  0  0  0  0  0
    6.6620   10.8250   26.1270 H   0  0  0  0  0  0  0  0  0  0  0  0
    8.2110    9.2250   24.6910 H   0  0  0  0  0  0  0  0  0  0  0  0
   10.2730    7.9970   23.5970 H   0  0  0  0  0  0  0  0  0  0  0  0
    9.5730    8.3190   22.0030 H   0  0  0  0  0  0  0  0  0  0  0  0
   11.2010    8.8850   22.4360 H   0  0  0  0  0  0  0  0  0  0  0  0
   10.9320   11.0100   21.9750 H   0  0  0  0  0  0  0  0  0  0  0  0
  1  2  1  0
  2  3  1  0
  3  4  1  0
  4  5  2  0
  4  6  1  0
  6  7  2  0
  7  8  1  0
  8  9  2  0
  9 10  1  0
 10 11  2  0
 11 12  1  0
 12 13  2  0
 13 14  1  0
 14 15  1  0
 14 16  2  0
 16  6  1  0
 12  7  1  0
  1 17  1  0
  1 18  1  0
  1 19  1  0
  2 20  1  0
  2 21  1  0
  3 22  1  0
  8 23  1  0
 10 24  1  0
 11 25  1  0
 13 26  1  0
 15 27  1  0
 15 28  1  0
 15 29  1  0
 16 30  1  0
A    1
 C1 
A    2
 C2 
A    3
 N1 
A    4
 C3 
A    5
 O1 
A    6
 C4 
A    7
 C5 
A    8
 C6 
A    9
 N2 
A   10
 C7 
A   11
 C8 
A   12
 C9 
A   13
 C10
A   14
 C11
A   15
 C12
A   16
 C13
A   17
 H1 
A   18
 H2 
A   19
 H3 
A   20
 H4 
A   21
 H5 
A   22
 H6 
A   23
 H7 
A   24
 H8 
A   25
 H9 
A   26
 H10
A   27
 H11
A   28
 H12
A   29
 H13
A   30
 H14
M  END
>  <ref_pdb>  (66) 
x0310_0A

>  <ref_mols>  (66) 
x0554_0A,x0310_0A

>  <original SMILES>  (66) 
CCNC(=O)c1cc(C)cc2ccncc12

>  <rationale>  (66) 
info hbond:S87; hydroph_interaction:V124+Y89+Y90; 

>  <intxn_cluster>  (66) 
107

>  <intxn_cluster_rank>  (66) 
18

>  <N_interactions>  (66) 
4

>  <∆∆G>  (66) 
-10.993214

>  <$/mg>  (66) 
163.0

>  <comRMSD>  (66) 
0.874323

>  <N_rotatable_bonds>  (66) 
4

>  <N_analogues_07>  (66) 
6

>  <deep_P1_sidechain>  (66) 
True

>  <farthest_distance_to_substrate>  (66) 
2.378627

>  <hbond:SER:7>  (66) 
hbond:SER:7    0
hbond:SER:7    0
Name: 65, dtype: object

>  <halogenbond:SER:7>  (66) 
halogenbond:SER:7    0
halogenbond:SER:7    0
Name: 65, dtype: object

>  <hbond:GLY:8>  (66) 
hbond:GLY:8    0
hbond:GLY:8    0
Name: 65, dtype: object

>  <hydroph_interaction:ASN:19>  (66) 
hydroph_interaction:ASN:19    0
hydroph_interaction:ASN:19    0
Name: 65, dtype: object

>  <hbond:ASN:19>  (66) 
hbond:ASN:19    0
hbond:ASN:19    0
Name: 65, dtype: object

>  <halogenbond:ASN:19>  (66) 
halogenbond:ASN:19    0
halogenbond:ASN:19    0
Name: 65, dtype: object

>  <hbond:ARG:20>  (66) 
hbond:ARG:20    0
hbond:ARG:20    0
Name: 65, dtype: object

>  <hydroph_interaction:ARG:20>  (66) 
hydroph_interaction:ARG:20    0
hydroph_interaction:ARG:20    0
Name: 65, dtype: object

>  <saltbridge:ARG:20>  (66) 
saltbridge:ARG:20    0
saltbridge:ARG:20    0
Name: 65, dtype: object

>  <halogenbond:ARG:20>  (66) 
halogenbond:ARG:20    0
halogenbond:ARG:20    0
Name: 65, dtype: object

>  <pication:ARG:20>  (66) 
pication:ARG:20    0
pication:ARG:20    0
Name: 65, dtype: object

>  <hbond:HIS:21>  (66) 
hbond:HIS:21    0
hbond:HIS:21    0
Name: 65, dtype: object

>  <hydroph_interaction:HIS:21>  (66) 
hydroph_interaction:HIS:21    0
hydroph_interaction:HIS:21    0
Name: 65, dtype: object

>  <saltbridge:HIS:21>  (66) 
saltbridge:HIS:21    0
saltbridge:HIS:21    0
Name: 65, dtype: object

>  <pistack:HIS:21>  (66) 
pistack:HIS:21    0
pistack:HIS:21    0
Name: 65, dtype: object

>  <pication:HIS:21>  (66) 
pication:HIS:21    0
pication:HIS:21    0
Name: 65, dtype: object

>  <halogenbond:HIS:21>  (66) 
halogenbond:HIS:21    0
halogenbond:HIS:21    0
Name: 65, dtype: object

>  <hydroph_interaction:LEU:22>  (66) 
hydroph_interaction:LEU:22    0
hydroph_interaction:LEU:22    0
Name: 65, dtype: object

>  <hbond:LEU:22>  (66) 
hbond:LEU:22    0
hbond:LEU:22    0
Name: 65, dtype: object

>  <hydroph_interaction:TRP:28>  (66) 
hydroph_interaction:TRP:28    0
hydroph_interaction:TRP:28    0
Name: 65, dtype: object

>  <hbond:SER:36>  (66) 
hbond:SER:36    0
hbond:SER:36    0
Name: 65, dtype: object

>  <halogenbond:SER:36>  (66) 
halogenbond:SER:36    0
halogenbond:SER:36    0
Name: 65, dtype: object

>  <hbond:ARG:38>  (66) 
hbond:ARG:38    0
hbond:ARG:38    0
Name: 65, dtype: object

>  <halogenbond:ARG:38>  (66) 
halogenbond:ARG:38    0
halogenbond:ARG:38    0
Name: 65, dtype: object

>  <hbond:ASP:39>  (66) 
hbond:ASP:39    0
hbond:ASP:39    0
Name: 65, dtype: object

>  <saltbridge:ASP:39>  (66) 
saltbridge:ASP:39    0
saltbridge:ASP:39    0
Name: 65, dtype: object

>  <hydroph_interaction:ASP:39>  (66) 
hydroph_interaction:ASP:39    0
hydroph_interaction:ASP:39    0
Name: 65, dtype: object

>  <halogenbond:ASP:39>  (66) 
halogenbond:ASP:39    0
halogenbond:ASP:39    0
Name: 65, dtype: object

>  <hydroph_interaction:LEU:40>  (66) 
hydroph_interaction:LEU:40    0
hydroph_interaction:LEU:40    0
Name: 65, dtype: object

>  <hydroph_interaction:TYR:63>  (66) 
hydroph_interaction:TYR:63    0
hydroph_interaction:TYR:63    0
Name: 65, dtype: object

>  <pistack:TYR:63>  (66) 
pistack:TYR:63    0
pistack:TYR:63    0
Name: 65, dtype: object

>  <hbond:TYR:63>  (66) 
hbond:TYR:63    0
hbond:TYR:63    0
Name: 65, dtype: object

>  <hbond:TYR:64>  (66) 
hbond:TYR:64    0
hbond:TYR:64    0
Name: 65, dtype: object

>  <halogenbond:TYR:64>  (66) 
halogenbond:TYR:64    0
halogenbond:TYR:64    0
Name: 65, dtype: object

>  <hydroph_interaction:TYR:64>  (66) 
hydroph_interaction:TYR:64    0
hydroph_interaction:TYR:64    0
Name: 65, dtype: object

>  <hbond:CYS:65>  (66) 
hbond:CYS:65    0
hbond:CYS:65    0
Name: 65, dtype: object

>  <halogenbond:CYS:65>  (66) 
halogenbond:CYS:65    0
halogenbond:CYS:65    0
Name: 65, dtype: object

>  <hbond:SER:66>  (66) 
hbond:SER:66    0
hbond:SER:66    0
Name: 65, dtype: object

>  <hbond:SER:67>  (66) 
hbond:SER:67    0
hbond:SER:67    0
Name: 65, dtype: object

>  <halogenbond:SER:67>  (66) 
halogenbond:SER:67    0
halogenbond:SER:67    0
Name: 65, dtype: object

>  <hydroph_interaction:ARG:68>  (66) 
hydroph_interaction:ARG:68    0
hydroph_interaction:ARG:68    0
Name: 65, dtype: object

>  <hbond:ARG:68>  (66) 
hbond:ARG:68    0
hbond:ARG:68    0
Name: 65, dtype: object

>  <saltbridge:ARG:68>  (66) 
saltbridge:ARG:68    0
saltbridge:ARG:68    0
Name: 65, dtype: object

>  <pication:ARG:68>  (66) 
pication:ARG:68    0
pication:ARG:68    0
Name: 65, dtype: object

>  <hydroph_interaction:TYR:72>  (66) 
hydroph_interaction:TYR:72    0
hydroph_interaction:TYR:72    0
Name: 65, dtype: object

>  <hydroph_interaction:VAL:74>  (66) 
hydroph_interaction:VAL:74    0
hydroph_interaction:VAL:74    0
Name: 65, dtype: object

>  <hydroph_interaction:PHE:76>  (66) 
hydroph_interaction:PHE:76    0
hydroph_interaction:PHE:76    0
Name: 65, dtype: object

>  <hbond:SER:77>  (66) 
hbond:SER:77    0
hbond:SER:77    0
Name: 65, dtype: object

>  <hbond:SER:80>  (66) 
hbond:SER:80    0
hbond:SER:80    0
Name: 65, dtype: object

>  <hbond:LEU:81>  (66) 
hbond:LEU:81    0
hbond:LEU:81    0
Name: 65, dtype: object

>  <halogenbond:LEU:81>  (66) 
halogenbond:LEU:81    0
halogenbond:LEU:81    0
Name: 65, dtype: object

>  <hydroph_interaction:LEU:81>  (66) 
hydroph_interaction:LEU:81    0
hydroph_interaction:LEU:81    0
Name: 65, dtype: object

>  <hydroph_interaction:ILE:82>  (66) 
hydroph_interaction:ILE:82    0
hydroph_interaction:ILE:82    0
Name: 65, dtype: object

>  <hbond:ILE:82>  (66) 
hbond:ILE:82    0
hbond:ILE:82    0
Name: 65, dtype: object

>  <hydroph_interaction:PHE:83>  (66) 
hydroph_interaction:PHE:83    0
hydroph_interaction:PHE:83    0
Name: 65, dtype: object

>  <hbond:PHE:83>  (66) 
hbond:PHE:83    0
hbond:PHE:83    0
Name: 65, dtype: object

>  <halogenbond:PHE:83>  (66) 
halogenbond:PHE:83    0
halogenbond:PHE:83    0
Name: 65, dtype: object

>  <pistack:PHE:83>  (66) 
pistack:PHE:83    0
pistack:PHE:83    0
Name: 65, dtype: object

>  <hydroph_interaction:VAL:84>  (66) 
hydroph_interaction:VAL:84    0
hydroph_interaction:VAL:84    0
Name: 65, dtype: object

>  <hbond:VAL:84>  (66) 
hbond:VAL:84    0
hbond:VAL:84    0
Name: 65, dtype: object

>  <halogenbond:VAL:84>  (66) 
halogenbond:VAL:84    0
halogenbond:VAL:84    0
Name: 65, dtype: object

>  <hydroph_interaction:GLU:85>  (66) 
hydroph_interaction:GLU:85    0
hydroph_interaction:GLU:85    0
Name: 65, dtype: object

>  <hbond:GLU:85>  (66) 
hbond:GLU:85    0
hbond:GLU:85    0
Name: 65, dtype: object

>  <saltbridge:GLU:85>  (66) 
saltbridge:GLU:85    0
saltbridge:GLU:85    0
Name: 65, dtype: object

>  <halogenbond:GLU:85>  (66) 
halogenbond:GLU:85    0
halogenbond:GLU:85    0
Name: 65, dtype: object

>  <hbond:ALA:86>  (66) 
hbond:ALA:86    0
hbond:ALA:86    0
Name: 65, dtype: object

>  <halogenbond:ALA:86>  (66) 
halogenbond:ALA:86    0
halogenbond:ALA:86    0
Name: 65, dtype: object

>  <hydroph_interaction:ALA:86>  (66) 
hydroph_interaction:ALA:86    0
hydroph_interaction:ALA:86    0
Name: 65, dtype: object

>  <hbond:SER:87>  (66) 
hbond:SER:87    1
hbond:SER:87    1
Name: 65, dtype: object

>  <halogenbond:SER:87>  (66) 
halogenbond:SER:87    0
halogenbond:SER:87    0
Name: 65, dtype: object

>  <hbond:GLU:88>  (66) 
hbond:GLU:88    0
hbond:GLU:88    0
Name: 65, dtype: object

>  <hydroph_interaction:GLU:88>  (66) 
hydroph_interaction:GLU:88    0
hydroph_interaction:GLU:88    0
Name: 65, dtype: object

>  <halogenbond:GLU:88>  (66) 
halogenbond:GLU:88    0
halogenbond:GLU:88    0
Name: 65, dtype: object

>  <saltbridge:GLU:88>  (66) 
saltbridge:GLU:88    0
saltbridge:GLU:88    0
Name: 65, dtype: object

>  <hydroph_interaction:TYR:89>  (66) 
hydroph_interaction:TYR:89    1
hydroph_interaction:TYR:89    1
Name: 65, dtype: object

>  <pistack:TYR:89>  (66) 
pistack:TYR:89    0
pistack:TYR:89    0
Name: 65, dtype: object

>  <hbond:TYR:89>  (66) 
hbond:TYR:89    0
hbond:TYR:89    0
Name: 65, dtype: object

>  <halogenbond:TYR:89>  (66) 
halogenbond:TYR:89    0
halogenbond:TYR:89    0
Name: 65, dtype: object

>  <hbond:TYR:90>  (66) 
hbond:TYR:90    0
hbond:TYR:90    0
Name: 65, dtype: object

>  <hydroph_interaction:TYR:90>  (66) 
hydroph_interaction:TYR:90    1
hydroph_interaction:TYR:90    1
Name: 65, dtype: object

>  <pistack:TYR:90>  (66) 
pistack:TYR:90    0
pistack:TYR:90    0
Name: 65, dtype: object

>  <halogenbond:TYR:90>  (66) 
halogenbond:TYR:90    0
halogenbond:TYR:90    0
Name: 65, dtype: object

>  <pication:TYR:90>  (66) 
pication:TYR:90    0
pication:TYR:90    0
Name: 65, dtype: object

>  <hydroph_interaction:PRO:91>  (66) 
hydroph_interaction:PRO:91    0
hydroph_interaction:PRO:91    0
Name: 65, dtype: object

>  <halogenbond:PRO:91>  (66) 
halogenbond:PRO:91    0
halogenbond:PRO:91    0
Name: 65, dtype: object

>  <hbond:PRO:91>  (66) 
hbond:PRO:91    0
hbond:PRO:91    0
Name: 65, dtype: object

>  <hydroph_interaction:ALA:92>  (66) 
hydroph_interaction:ALA:92    0
hydroph_interaction:ALA:92    0
Name: 65, dtype: object

>  <hbond:ARG:93>  (66) 
hbond:ARG:93    0
hbond:ARG:93    0
Name: 65, dtype: object

>  <pication:ARG:93>  (66) 
pication:ARG:93    0
pication:ARG:93    0
Name: 65, dtype: object

>  <saltbridge:ARG:93>  (66) 
saltbridge:ARG:93    0
saltbridge:ARG:93    0
Name: 65, dtype: object

>  <hydroph_interaction:ARG:93>  (66) 
hydroph_interaction:ARG:93    0
hydroph_interaction:ARG:93    0
Name: 65, dtype: object

>  <halogenbond:ARG:93>  (66) 
halogenbond:ARG:93    0
halogenbond:ARG:93    0
Name: 65, dtype: object

>  <hydroph_interaction:TYR:94>  (66) 
hydroph_interaction:TYR:94    0
hydroph_interaction:TYR:94    0
Name: 65, dtype: object

>  <hbond:TYR:94>  (66) 
hbond:TYR:94    0
hbond:TYR:94    0
Name: 65, dtype: object

>  <halogenbond:GLN:95>  (66) 
halogenbond:GLN:95    0
halogenbond:GLN:95    0
Name: 65, dtype: object

>  <hbond:GLN:95>  (66) 
hbond:GLN:95    0
hbond:GLN:95    0
Name: 65, dtype: object

>  <hydroph_interaction:GLN:95>  (66) 
hydroph_interaction:GLN:95    0
hydroph_interaction:GLN:95    0
Name: 65, dtype: object

>  <hbond:SER:96>  (66) 
hbond:SER:96    0
hbond:SER:96    0
Name: 65, dtype: object

>  <hydroph_interaction:LEU:98>  (66) 
hydroph_interaction:LEU:98    0
hydroph_interaction:LEU:98    0
Name: 65, dtype: object

>  <hbond:LEU:98>  (66) 
hbond:LEU:98    0
hbond:LEU:98    0
Name: 65, dtype: object

>  <hbond:MET:99>  (66) 
hbond:MET:99    0
hbond:MET:99    0
Name: 65, dtype: object

>  <hydroph_interaction:MET:99>  (66) 
hydroph_interaction:MET:99    0
hydroph_interaction:MET:99    0
Name: 65, dtype: object

>  <halogenbond:MET:99>  (66) 
halogenbond:MET:99    0
halogenbond:MET:99    0
Name: 65, dtype: object

>  <hydroph_interaction:LEU:100>  (66) 
hydroph_interaction:LEU:100    0
hydroph_interaction:LEU:100    0
Name: 65, dtype: object

>  <hbond:LEU:100>  (66) 
hbond:LEU:100    0
hbond:LEU:100    0
Name: 65, dtype: object

>  <hbond:ALA:101>  (66) 
hbond:ALA:101    0
hbond:ALA:101    0
Name: 65, dtype: object

>  <hydroph_interaction:ALA:101>  (66) 
hydroph_interaction:ALA:101    0
hydroph_interaction:ALA:101    0
Name: 65, dtype: object

>  <hydroph_interaction:VAL:102>  (66) 
hydroph_interaction:VAL:102    0
hydroph_interaction:VAL:102    0
Name: 65, dtype: object

>  <hbond:VAL:102>  (66) 
hbond:VAL:102    0
hbond:VAL:102    0
Name: 65, dtype: object

>  <hbond:GLY:103>  (66) 
hbond:GLY:103    0
hbond:GLY:103    0
Name: 65, dtype: object

>  <halogenbond:GLY:103>  (66) 
halogenbond:GLY:103    0
halogenbond:GLY:103    0
Name: 65, dtype: object

>  <hydroph_interaction:HIS:104>  (66) 
hydroph_interaction:HIS:104    0
hydroph_interaction:HIS:104    0
Name: 65, dtype: object

>  <hbond:HIS:104>  (66) 
hbond:HIS:104    0
hbond:HIS:104    0
Name: 65, dtype: object

>  <saltbridge:HIS:104>  (66) 
saltbridge:HIS:104    0
saltbridge:HIS:104    0
Name: 65, dtype: object

>  <pication:HIS:104>  (66) 
pication:HIS:104    0
pication:HIS:104    0
Name: 65, dtype: object

>  <pistack:HIS:104>  (66) 
pistack:HIS:104    0
pistack:HIS:104    0
Name: 65, dtype: object

>  <halogenbond:HIS:104>  (66) 
halogenbond:HIS:104    0
halogenbond:HIS:104    0
Name: 65, dtype: object

>  <hbond:SER:105>  (66) 
hbond:SER:105    0
hbond:SER:105    0
Name: 65, dtype: object

>  <halogenbond:SER:105>  (66) 
halogenbond:SER:105    0
halogenbond:SER:105    0
Name: 65, dtype: object

>  <hbond:GLU:106>  (66) 
hbond:GLU:106    0
hbond:GLU:106    0
Name: 65, dtype: object

>  <hydroph_interaction:GLU:106>  (66) 
hydroph_interaction:GLU:106    0
hydroph_interaction:GLU:106    0
Name: 65, dtype: object

>  <saltbridge:GLU:106>  (66) 
saltbridge:GLU:106    0
saltbridge:GLU:106    0
Name: 65, dtype: object

>  <halogenbond:GLU:106>  (66) 
halogenbond:GLU:106    0
halogenbond:GLU:106    0
Name: 65, dtype: object

>  <hydroph_interaction:PRO:107>  (66) 
hydroph_interaction:PRO:107    0
hydroph_interaction:PRO:107    0
Name: 65, dtype: object

>  <hbond:PRO:107>  (66) 
hbond:PRO:107    0
hbond:PRO:107    0
Name: 65, dtype: object

>  <halogenbond:PRO:107>  (66) 
halogenbond:PRO:107    0
halogenbond:PRO:107    0
Name: 65, dtype: object

>  <hbond:GLY:108>  (66) 
hbond:GLY:108    0
hbond:GLY:108    0
Name: 65, dtype: object

>  <halogenbond:GLY:108>  (66) 
halogenbond:GLY:108    0
halogenbond:GLY:108    0
Name: 65, dtype: object

>  <hbond:ASP:109>  (66) 
hbond:ASP:109    0
hbond:ASP:109    0
Name: 65, dtype: object

>  <hydroph_interaction:ASP:109>  (66) 
hydroph_interaction:ASP:109    0
hydroph_interaction:ASP:109    0
Name: 65, dtype: object

>  <saltbridge:ASP:109>  (66) 
saltbridge:ASP:109    0
saltbridge:ASP:109    0
Name: 65, dtype: object

>  <hbond:CYS:110>  (66) 
hbond:CYS:110    0
hbond:CYS:110    0
Name: 65, dtype: object

>  <halogenbond:CYS:110>  (66) 
halogenbond:CYS:110    0
halogenbond:CYS:110    0
Name: 65, dtype: object

>  <hbond:GLY:111>  (66) 
hbond:GLY:111    0
hbond:GLY:111    0
Name: 65, dtype: object

>  <hbond:GLY:112>  (66) 
hbond:GLY:112    0
hbond:GLY:112    0
Name: 65, dtype: object

>  <hbond:ILE:113>  (66) 
hbond:ILE:113    0
hbond:ILE:113    0
Name: 65, dtype: object

>  <hydroph_interaction:LEU:114>  (66) 
hydroph_interaction:LEU:114    0
hydroph_interaction:LEU:114    0
Name: 65, dtype: object

>  <hbond:LEU:114>  (66) 
hbond:LEU:114    0
hbond:LEU:114    0
Name: 65, dtype: object

>  <hydroph_interaction:ILE:123>  (66) 
hydroph_interaction:ILE:123    0
hydroph_interaction:ILE:123    0
Name: 65, dtype: object

>  <hbond:ILE:123>  (66) 
hbond:ILE:123    0
hbond:ILE:123    0
Name: 65, dtype: object

>  <hydroph_interaction:VAL:124>  (66) 
hydroph_interaction:VAL:124    1
hydroph_interaction:VAL:124    1
Name: 65, dtype: object

>  <hbond:VAL:124>  (66) 
hbond:VAL:124    0
hbond:VAL:124    0
Name: 65, dtype: object

>  <halogenbond:VAL:124>  (66) 
halogenbond:VAL:124    0
halogenbond:VAL:124    0
Name: 65, dtype: object

>  <hbond:SER:125>  (66) 
hbond:SER:125    0
hbond:SER:125    0
Name: 65, dtype: object

>  <halogenbond:SER:125>  (66) 
halogenbond:SER:125    0
halogenbond:SER:125    0
Name: 65, dtype: object

>  <hydroph_interaction:THR:126>  (66) 
hydroph_interaction:THR:126    0
hydroph_interaction:THR:126    0
Name: 65, dtype: object

>  <hbond:THR:126>  (66) 
hbond:THR:126    0
hbond:THR:126    0
Name: 65, dtype: object

>  <halogenbond:THR:126>  (66) 
halogenbond:THR:126    0
halogenbond:THR:126    0
Name: 65, dtype: object

>  <hbond:GLY:127>  (66) 
hbond:GLY:127    0
hbond:GLY:127    0
Name: 65, dtype: object

>  <halogenbond:GLY:127>  (66) 
halogenbond:GLY:127    0
halogenbond:GLY:127    0
Name: 65, dtype: object

>  <hydroph_interaction:GLY:127>  (66) 
hydroph_interaction:GLY:127    0
hydroph_interaction:GLY:127    0
Name: 65, dtype: object

>  <hbond:GLY:128>  (66) 
hbond:GLY:128    0
hbond:GLY:128    0
Name: 65, dtype: object

>  <halogenbond:GLY:128>  (66) 
halogenbond:GLY:128    0
halogenbond:GLY:128    0
Name: 65, dtype: object

>  <hydroph_interaction:GLY:128>  (66) 
hydroph_interaction:GLY:128    0
hydroph_interaction:GLY:128    0
Name: 65, dtype: object

>  <hbond:ASN:129>  (66) 
hbond:ASN:129    0
hbond:ASN:129    0
Name: 65, dtype: object

>  <hydroph_interaction:ASN:129>  (66) 
hydroph_interaction:ASN:129    0
hydroph_interaction:ASN:129    0
Name: 65, dtype: object

>  <halogenbond:ASN:129>  (66) 
halogenbond:ASN:129    0
halogenbond:ASN:129    0
Name: 65, dtype: object

>  <hbond:GLY:130>  (66) 
hbond:GLY:130    0
hbond:GLY:130    0
Name: 65, dtype: object

>  <hydroph_interaction:LEU:131>  (66) 
hydroph_interaction:LEU:131    0
hydroph_interaction:LEU:131    0
Name: 65, dtype: object

>  <hbond:LEU:131>  (66) 
hbond:LEU:131    0
hbond:LEU:131    0
Name: 65, dtype: object

>  <halogenbond:LEU:131>  (66) 
halogenbond:LEU:131    0
halogenbond:LEU:131    0
Name: 65, dtype: object

>  <hydroph_interaction:VAL:132>  (66) 
hydroph_interaction:VAL:132    0
hydroph_interaction:VAL:132    0
Name: 65, dtype: object

>  <hbond:VAL:132>  (66) 
hbond:VAL:132    0
hbond:VAL:132    0
Name: 65, dtype: object

>  <hbond:GLY:133>  (66) 
hbond:GLY:133    0
hbond:GLY:133    0
Name: 65, dtype: object

>  <halogenbond:GLY:133>  (66) 
halogenbond:GLY:133    0
halogenbond:GLY:133    0
Name: 65, dtype: object

>  <hydroph_interaction:PHE:134>  (66) 
hydroph_interaction:PHE:134    0
hydroph_interaction:PHE:134    0
Name: 65, dtype: object

>  <hbond:PHE:134>  (66) 
hbond:PHE:134    0
hbond:PHE:134    0
Name: 65, dtype: object

>  <pistack:PHE:134>  (66) 
pistack:PHE:134    0
pistack:PHE:134    0
Name: 65, dtype: object

>  <pication:PHE:134>  (66) 
pication:PHE:134    0
pication:PHE:134    0
Name: 65, dtype: object

>  <hydroph_interaction:ALA:135>  (66) 
hydroph_interaction:ALA:135    0
hydroph_interaction:ALA:135    0
Name: 65, dtype: object

>  <hbond:ALA:135>  (66) 
hbond:ALA:135    0
hbond:ALA:135    0
Name: 65, dtype: object

$$$$
PV_004194732920
     RDKit          3D

 28 28  0  0  0  0  0  0  0  0999 V2000
   14.0390   16.3410   18.8520 C   0  0  0  0  0  0  0  0  0  0  0  0
   13.7090   15.6900   20.1580 C   0  0  0  0  0  0  0  0  0  0  0  0
   13.0600   14.5460   20.4410 C   0  0  0  0  0  0  0  0  0  0  0  0
   12.7730   14.0470   21.8260 C   0  0  0  0  0  0  0  0  0  0  0  0
   11.4130   13.5770   21.9170 O   0  0  0  0  0  0  0  0  0  0  0  0
   10.9480   13.6660   23.1810 C   0  0  0  0  0  0  0  0  0  0  0  0
   11.2720   14.5380   23.9680 O   0  0  0  0  0  0  0  0  0  0  0  0
   10.0090   12.5800   23.5820 C   0  0  0  0  0  0  0  0  0  0  0  0
    8.9690   12.9070   24.4610 C   0  0  0  0  0  0  0  0  0  0  0  0
    8.0770   11.9290   24.9130 C   0  0  0  0  0  0  0  0  0  0  0  0
    6.9680   12.2670   25.8570 C   0  0  0  0  0  0  0  0  0  0  0  0
    8.2350   10.6190   24.4760 C   0  0  0  0  0  0  0  0  0  0  0  0
    9.2500   10.2860   23.5920 C   0  0  0  0  0  0  0  0  0  0  0  0
   10.1320   11.2580   23.1390 C   0  0  0  0  0  0  0  0  0  0  0  0
   13.3070   16.0480   18.0960 H   0  0  0  0  0  0  0  0  0  0  0  0
   14.0590   17.4320   18.8960 H   0  0  0  0  0  0  0  0  0  0  0  0
   15.0180   16.0370   18.5250 H   0  0  0  0  0  0  0  0  0  0  0  0
   14.0450   16.2520   21.0140 H   0  0  0  0  0  0  0  0  0  0  0  0
   12.6950   13.9300   19.6210 H   0  0  0  0  0  0  0  0  0  0  0  0
   13.4490   13.2650   22.1350 H   0  0  0  0  0  0  0  0  0  0  0  0
   12.9020   14.8920   22.5160 H   0  0  0  0  0  0  0  0  0  0  0  0
    8.8610   13.9370   24.8050 H   0  0  0  0  0  0  0  0  0  0  0  0
    6.5010   11.3580   26.2490 H   0  0  0  0  0  0  0  0  0  0  0  0
    7.3430   12.8380   26.7140 H   0  0  0  0  0  0  0  0  0  0  0  0
    6.2070   12.8620   25.3400 H   0  0  0  0  0  0  0  0  0  0  0  0
    7.5560    9.8440   24.8250 H   0  0  0  0  0  0  0  0  0  0  0  0
    9.3610    9.2590   23.2510 H   0  0  0  0  0  0  0  0  0  0  0  0
   10.9120   10.9680   22.4540 H   0  0  0  0  0  0  0  0  0  0  0  0
  1  2  1  0
  2  3  2  3
  3  4  1  0
  4  5  1  0
  5  6  1  0
  6  7  2  0
  6  8  1  0
  8  9  2  0
  9 10  1  0
 10 11  1  0
 10 12  2  0
 12 13  1  0
 13 14  2  0
 14  8  1  0
  1 15  1  0
  1 16  1  0
  1 17  1  0
  2 18  1  0
  3 19  1  0
  4 20  1  0
  4 21  1  0
  9 22  1  0
 11 23  1  0
 11 24  1  0
 11 25  1  0
 12 26  1  0
 13 27  1  0
 14 28  1  0
A    1
 C1 
A    2
 C2 
A    3
 C3 
A    4
 C4 
A    5
 O1 
A    6
 C5 
A    7
 O2 
A    8
 C6 
A    9
 C7 
A   10
 C8 
A   11
 C9 
A   12
 C10
A   13
 C11
A   14
 C12
A   15
 H1 
A   16
 H2 
A   17
 H3 
A   18
 H4 
A   19
 H5 
A   20
 H6 
A   21
 H7 
A   22
 H8 
A   23
 H9 
A   24
 H10
A   25
 H11
A   26
 H12
A   27
 H13
A   28
 H14
M  END
>  <ref_pdb>  (67) 
x0310_0A

>  <ref_mols>  (67) 
x0554_0A,x0719_0A

>  <original SMILES>  (67) 
CC=CCOC(=O)c1cccc(C)c1

>  <rationale>  (67) 
info hbond:S87; hydroph_interaction:P107+Y89+Y90+H21+D39; saltbridge:H21; 

>  <intxn_cluster>  (67) 
206

>  <intxn_cluster_rank>  (67) 
19

>  <N_interactions>  (67) 
8

>  <∆∆G>  (67) 
-5.484396

>  <$/mg>  (67) 
163.0

>  <comRMSD>  (67) 
0.58777

>  <N_rotatable_bonds>  (67) 
5

>  <N_analogues_07>  (67) 
6

>  <deep_P1_sidechain>  (67) 
False

>  <farthest_distance_to_substrate>  (67) 
2.539282

>  <hbond:SER:7>  (67) 
hbond:SER:7    0
hbond:SER:7    0
Name: 66, dtype: object

>  <halogenbond:SER:7>  (67) 
halogenbond:SER:7    0
halogenbond:SER:7    0
Name: 66, dtype: object

>  <hbond:GLY:8>  (67) 
hbond:GLY:8    0
hbond:GLY:8    0
Name: 66, dtype: object

>  <hydroph_interaction:ASN:19>  (67) 
hydroph_interaction:ASN:19    0
hydroph_interaction:ASN:19    0
Name: 66, dtype: object

>  <hbond:ASN:19>  (67) 
hbond:ASN:19    0
hbond:ASN:19    0
Name: 66, dtype: object

>  <halogenbond:ASN:19>  (67) 
halogenbond:ASN:19    0
halogenbond:ASN:19    0
Name: 66, dtype: object

>  <hbond:ARG:20>  (67) 
hbond:ARG:20    0
hbond:ARG:20    0
Name: 66, dtype: object

>  <hydroph_interaction:ARG:20>  (67) 
hydroph_interaction:ARG:20    0
hydroph_interaction:ARG:20    0
Name: 66, dtype: object

>  <saltbridge:ARG:20>  (67) 
saltbridge:ARG:20    0
saltbridge:ARG:20    0
Name: 66, dtype: object

>  <halogenbond:ARG:20>  (67) 
halogenbond:ARG:20    0
halogenbond:ARG:20    0
Name: 66, dtype: object

>  <pication:ARG:20>  (67) 
pication:ARG:20    0
pication:ARG:20    0
Name: 66, dtype: object

>  <hbond:HIS:21>  (67) 
hbond:HIS:21    0
hbond:HIS:21    0
Name: 66, dtype: object

>  <hydroph_interaction:HIS:21>  (67) 
hydroph_interaction:HIS:21    1
hydroph_interaction:HIS:21    1
Name: 66, dtype: object

>  <saltbridge:HIS:21>  (67) 
saltbridge:HIS:21    1
saltbridge:HIS:21    1
Name: 66, dtype: object

>  <pistack:HIS:21>  (67) 
pistack:HIS:21    0
pistack:HIS:21    0
Name: 66, dtype: object

>  <pication:HIS:21>  (67) 
pication:HIS:21    0
pication:HIS:21    0
Name: 66, dtype: object

>  <halogenbond:HIS:21>  (67) 
halogenbond:HIS:21    0
halogenbond:HIS:21    0
Name: 66, dtype: object

>  <hydroph_interaction:LEU:22>  (67) 
hydroph_interaction:LEU:22    0
hydroph_interaction:LEU:22    0
Name: 66, dtype: object

>  <hbond:LEU:22>  (67) 
hbond:LEU:22    0
hbond:LEU:22    0
Name: 66, dtype: object

>  <hydroph_interaction:TRP:28>  (67) 
hydroph_interaction:TRP:28    0
hydroph_interaction:TRP:28    0
Name: 66, dtype: object

>  <hbond:SER:36>  (67) 
hbond:SER:36    0
hbond:SER:36    0
Name: 66, dtype: object

>  <halogenbond:SER:36>  (67) 
halogenbond:SER:36    0
halogenbond:SER:36    0
Name: 66, dtype: object

>  <hbond:ARG:38>  (67) 
hbond:ARG:38    0
hbond:ARG:38    0
Name: 66, dtype: object

>  <halogenbond:ARG:38>  (67) 
halogenbond:ARG:38    0
halogenbond:ARG:38    0
Name: 66, dtype: object

>  <hbond:ASP:39>  (67) 
hbond:ASP:39    0
hbond:ASP:39    0
Name: 66, dtype: object

>  <saltbridge:ASP:39>  (67) 
saltbridge:ASP:39    0
saltbridge:ASP:39    0
Name: 66, dtype: object

>  <hydroph_interaction:ASP:39>  (67) 
hydroph_interaction:ASP:39    1
hydroph_interaction:ASP:39    1
Name: 66, dtype: object

>  <halogenbond:ASP:39>  (67) 
halogenbond:ASP:39    0
halogenbond:ASP:39    0
Name: 66, dtype: object

>  <hydroph_interaction:LEU:40>  (67) 
hydroph_interaction:LEU:40    0
hydroph_interaction:LEU:40    0
Name: 66, dtype: object

>  <hydroph_interaction:TYR:63>  (67) 
hydroph_interaction:TYR:63    0
hydroph_interaction:TYR:63    0
Name: 66, dtype: object

>  <pistack:TYR:63>  (67) 
pistack:TYR:63    0
pistack:TYR:63    0
Name: 66, dtype: object

>  <hbond:TYR:63>  (67) 
hbond:TYR:63    0
hbond:TYR:63    0
Name: 66, dtype: object

>  <hbond:TYR:64>  (67) 
hbond:TYR:64    0
hbond:TYR:64    0
Name: 66, dtype: object

>  <halogenbond:TYR:64>  (67) 
halogenbond:TYR:64    0
halogenbond:TYR:64    0
Name: 66, dtype: object

>  <hydroph_interaction:TYR:64>  (67) 
hydroph_interaction:TYR:64    0
hydroph_interaction:TYR:64    0
Name: 66, dtype: object

>  <hbond:CYS:65>  (67) 
hbond:CYS:65    0
hbond:CYS:65    0
Name: 66, dtype: object

>  <halogenbond:CYS:65>  (67) 
halogenbond:CYS:65    0
halogenbond:CYS:65    0
Name: 66, dtype: object

>  <hbond:SER:66>  (67) 
hbond:SER:66    0
hbond:SER:66    0
Name: 66, dtype: object

>  <hbond:SER:67>  (67) 
hbond:SER:67    0
hbond:SER:67    0
Name: 66, dtype: object

>  <halogenbond:SER:67>  (67) 
halogenbond:SER:67    0
halogenbond:SER:67    0
Name: 66, dtype: object

>  <hydroph_interaction:ARG:68>  (67) 
hydroph_interaction:ARG:68    0
hydroph_interaction:ARG:68    0
Name: 66, dtype: object

>  <hbond:ARG:68>  (67) 
hbond:ARG:68    0
hbond:ARG:68    0
Name: 66, dtype: object

>  <saltbridge:ARG:68>  (67) 
saltbridge:ARG:68    0
saltbridge:ARG:68    0
Name: 66, dtype: object

>  <pication:ARG:68>  (67) 
pication:ARG:68    0
pication:ARG:68    0
Name: 66, dtype: object

>  <hydroph_interaction:TYR:72>  (67) 
hydroph_interaction:TYR:72    0
hydroph_interaction:TYR:72    0
Name: 66, dtype: object

>  <hydroph_interaction:VAL:74>  (67) 
hydroph_interaction:VAL:74    0
hydroph_interaction:VAL:74    0
Name: 66, dtype: object

>  <hydroph_interaction:PHE:76>  (67) 
hydroph_interaction:PHE:76    0
hydroph_interaction:PHE:76    0
Name: 66, dtype: object

>  <hbond:SER:77>  (67) 
hbond:SER:77    0
hbond:SER:77    0
Name: 66, dtype: object

>  <hbond:SER:80>  (67) 
hbond:SER:80    0
hbond:SER:80    0
Name: 66, dtype: object

>  <hbond:LEU:81>  (67) 
hbond:LEU:81    0
hbond:LEU:81    0
Name: 66, dtype: object

>  <halogenbond:LEU:81>  (67) 
halogenbond:LEU:81    0
halogenbond:LEU:81    0
Name: 66, dtype: object

>  <hydroph_interaction:LEU:81>  (67) 
hydroph_interaction:LEU:81    0
hydroph_interaction:LEU:81    0
Name: 66, dtype: object

>  <hydroph_interaction:ILE:82>  (67) 
hydroph_interaction:ILE:82    0
hydroph_interaction:ILE:82    0
Name: 66, dtype: object

>  <hbond:ILE:82>  (67) 
hbond:ILE:82    0
hbond:ILE:82    0
Name: 66, dtype: object

>  <hydroph_interaction:PHE:83>  (67) 
hydroph_interaction:PHE:83    0
hydroph_interaction:PHE:83    0
Name: 66, dtype: object

>  <hbond:PHE:83>  (67) 
hbond:PHE:83    0
hbond:PHE:83    0
Name: 66, dtype: object

>  <halogenbond:PHE:83>  (67) 
halogenbond:PHE:83    0
halogenbond:PHE:83    0
Name: 66, dtype: object

>  <pistack:PHE:83>  (67) 
pistack:PHE:83    0
pistack:PHE:83    0
Name: 66, dtype: object

>  <hydroph_interaction:VAL:84>  (67) 
hydroph_interaction:VAL:84    0
hydroph_interaction:VAL:84    0
Name: 66, dtype: object

>  <hbond:VAL:84>  (67) 
hbond:VAL:84    0
hbond:VAL:84    0
Name: 66, dtype: object

>  <halogenbond:VAL:84>  (67) 
halogenbond:VAL:84    0
halogenbond:VAL:84    0
Name: 66, dtype: object

>  <hydroph_interaction:GLU:85>  (67) 
hydroph_interaction:GLU:85    0
hydroph_interaction:GLU:85    0
Name: 66, dtype: object

>  <hbond:GLU:85>  (67) 
hbond:GLU:85    0
hbond:GLU:85    0
Name: 66, dtype: object

>  <saltbridge:GLU:85>  (67) 
saltbridge:GLU:85    0
saltbridge:GLU:85    0
Name: 66, dtype: object

>  <halogenbond:GLU:85>  (67) 
halogenbond:GLU:85    0
halogenbond:GLU:85    0
Name: 66, dtype: object

>  <hbond:ALA:86>  (67) 
hbond:ALA:86    0
hbond:ALA:86    0
Name: 66, dtype: object

>  <halogenbond:ALA:86>  (67) 
halogenbond:ALA:86    0
halogenbond:ALA:86    0
Name: 66, dtype: object

>  <hydroph_interaction:ALA:86>  (67) 
hydroph_interaction:ALA:86    0
hydroph_interaction:ALA:86    0
Name: 66, dtype: object

>  <hbond:SER:87>  (67) 
hbond:SER:87    1
hbond:SER:87    1
Name: 66, dtype: object

>  <halogenbond:SER:87>  (67) 
halogenbond:SER:87    0
halogenbond:SER:87    0
Name: 66, dtype: object

>  <hbond:GLU:88>  (67) 
hbond:GLU:88    0
hbond:GLU:88    0
Name: 66, dtype: object

>  <hydroph_interaction:GLU:88>  (67) 
hydroph_interaction:GLU:88    0
hydroph_interaction:GLU:88    0
Name: 66, dtype: object

>  <halogenbond:GLU:88>  (67) 
halogenbond:GLU:88    0
halogenbond:GLU:88    0
Name: 66, dtype: object

>  <saltbridge:GLU:88>  (67) 
saltbridge:GLU:88    0
saltbridge:GLU:88    0
Name: 66, dtype: object

>  <hydroph_interaction:TYR:89>  (67) 
hydroph_interaction:TYR:89    1
hydroph_interaction:TYR:89    1
Name: 66, dtype: object

>  <pistack:TYR:89>  (67) 
pistack:TYR:89    0
pistack:TYR:89    0
Name: 66, dtype: object

>  <hbond:TYR:89>  (67) 
hbond:TYR:89    0
hbond:TYR:89    0
Name: 66, dtype: object

>  <halogenbond:TYR:89>  (67) 
halogenbond:TYR:89    0
halogenbond:TYR:89    0
Name: 66, dtype: object

>  <hbond:TYR:90>  (67) 
hbond:TYR:90    0
hbond:TYR:90    0
Name: 66, dtype: object

>  <hydroph_interaction:TYR:90>  (67) 
hydroph_interaction:TYR:90    2
hydroph_interaction:TYR:90    2
Name: 66, dtype: object

>  <pistack:TYR:90>  (67) 
pistack:TYR:90    0
pistack:TYR:90    0
Name: 66, dtype: object

>  <halogenbond:TYR:90>  (67) 
halogenbond:TYR:90    0
halogenbond:TYR:90    0
Name: 66, dtype: object

>  <pication:TYR:90>  (67) 
pication:TYR:90    0
pication:TYR:90    0
Name: 66, dtype: object

>  <hydroph_interaction:PRO:91>  (67) 
hydroph_interaction:PRO:91    0
hydroph_interaction:PRO:91    0
Name: 66, dtype: object

>  <halogenbond:PRO:91>  (67) 
halogenbond:PRO:91    0
halogenbond:PRO:91    0
Name: 66, dtype: object

>  <hbond:PRO:91>  (67) 
hbond:PRO:91    0
hbond:PRO:91    0
Name: 66, dtype: object

>  <hydroph_interaction:ALA:92>  (67) 
hydroph_interaction:ALA:92    0
hydroph_interaction:ALA:92    0
Name: 66, dtype: object

>  <hbond:ARG:93>  (67) 
hbond:ARG:93    0
hbond:ARG:93    0
Name: 66, dtype: object

>  <pication:ARG:93>  (67) 
pication:ARG:93    0
pication:ARG:93    0
Name: 66, dtype: object

>  <saltbridge:ARG:93>  (67) 
saltbridge:ARG:93    0
saltbridge:ARG:93    0
Name: 66, dtype: object

>  <hydroph_interaction:ARG:93>  (67) 
hydroph_interaction:ARG:93    0
hydroph_interaction:ARG:93    0
Name: 66, dtype: object

>  <halogenbond:ARG:93>  (67) 
halogenbond:ARG:93    0
halogenbond:ARG:93    0
Name: 66, dtype: object

>  <hydroph_interaction:TYR:94>  (67) 
hydroph_interaction:TYR:94    0
hydroph_interaction:TYR:94    0
Name: 66, dtype: object

>  <hbond:TYR:94>  (67) 
hbond:TYR:94    0
hbond:TYR:94    0
Name: 66, dtype: object

>  <halogenbond:GLN:95>  (67) 
halogenbond:GLN:95    0
halogenbond:GLN:95    0
Name: 66, dtype: object

>  <hbond:GLN:95>  (67) 
hbond:GLN:95    0
hbond:GLN:95    0
Name: 66, dtype: object

>  <hydroph_interaction:GLN:95>  (67) 
hydroph_interaction:GLN:95    0
hydroph_interaction:GLN:95    0
Name: 66, dtype: object

>  <hbond:SER:96>  (67) 
hbond:SER:96    0
hbond:SER:96    0
Name: 66, dtype: object

>  <hydroph_interaction:LEU:98>  (67) 
hydroph_interaction:LEU:98    0
hydroph_interaction:LEU:98    0
Name: 66, dtype: object

>  <hbond:LEU:98>  (67) 
hbond:LEU:98    0
hbond:LEU:98    0
Name: 66, dtype: object

>  <hbond:MET:99>  (67) 
hbond:MET:99    0
hbond:MET:99    0
Name: 66, dtype: object

>  <hydroph_interaction:MET:99>  (67) 
hydroph_interaction:MET:99    0
hydroph_interaction:MET:99    0
Name: 66, dtype: object

>  <halogenbond:MET:99>  (67) 
halogenbond:MET:99    0
halogenbond:MET:99    0
Name: 66, dtype: object

>  <hydroph_interaction:LEU:100>  (67) 
hydroph_interaction:LEU:100    0
hydroph_interaction:LEU:100    0
Name: 66, dtype: object

>  <hbond:LEU:100>  (67) 
hbond:LEU:100    0
hbond:LEU:100    0
Name: 66, dtype: object

>  <hbond:ALA:101>  (67) 
hbond:ALA:101    0
hbond:ALA:101    0
Name: 66, dtype: object

>  <hydroph_interaction:ALA:101>  (67) 
hydroph_interaction:ALA:101    0
hydroph_interaction:ALA:101    0
Name: 66, dtype: object

>  <hydroph_interaction:VAL:102>  (67) 
hydroph_interaction:VAL:102    0
hydroph_interaction:VAL:102    0
Name: 66, dtype: object

>  <hbond:VAL:102>  (67) 
hbond:VAL:102    0
hbond:VAL:102    0
Name: 66, dtype: object

>  <hbond:GLY:103>  (67) 
hbond:GLY:103    0
hbond:GLY:103    0
Name: 66, dtype: object

>  <halogenbond:GLY:103>  (67) 
halogenbond:GLY:103    0
halogenbond:GLY:103    0
Name: 66, dtype: object

>  <hydroph_interaction:HIS:104>  (67) 
hydroph_interaction:HIS:104    0
hydroph_interaction:HIS:104    0
Name: 66, dtype: object

>  <hbond:HIS:104>  (67) 
hbond:HIS:104    0
hbond:HIS:104    0
Name: 66, dtype: object

>  <saltbridge:HIS:104>  (67) 
saltbridge:HIS:104    0
saltbridge:HIS:104    0
Name: 66, dtype: object

>  <pication:HIS:104>  (67) 
pication:HIS:104    0
pication:HIS:104    0
Name: 66, dtype: object

>  <pistack:HIS:104>  (67) 
pistack:HIS:104    0
pistack:HIS:104    0
Name: 66, dtype: object

>  <halogenbond:HIS:104>  (67) 
halogenbond:HIS:104    0
halogenbond:HIS:104    0
Name: 66, dtype: object

>  <hbond:SER:105>  (67) 
hbond:SER:105    0
hbond:SER:105    0
Name: 66, dtype: object

>  <halogenbond:SER:105>  (67) 
halogenbond:SER:105    0
halogenbond:SER:105    0
Name: 66, dtype: object

>  <hbond:GLU:106>  (67) 
hbond:GLU:106    0
hbond:GLU:106    0
Name: 66, dtype: object

>  <hydroph_interaction:GLU:106>  (67) 
hydroph_interaction:GLU:106    0
hydroph_interaction:GLU:106    0
Name: 66, dtype: object

>  <saltbridge:GLU:106>  (67) 
saltbridge:GLU:106    0
saltbridge:GLU:106    0
Name: 66, dtype: object

>  <halogenbond:GLU:106>  (67) 
halogenbond:GLU:106    0
halogenbond:GLU:106    0
Name: 66, dtype: object

>  <hydroph_interaction:PRO:107>  (67) 
hydroph_interaction:PRO:107    1
hydroph_interaction:PRO:107    1
Name: 66, dtype: object

>  <hbond:PRO:107>  (67) 
hbond:PRO:107    0
hbond:PRO:107    0
Name: 66, dtype: object

>  <halogenbond:PRO:107>  (67) 
halogenbond:PRO:107    0
halogenbond:PRO:107    0
Name: 66, dtype: object

>  <hbond:GLY:108>  (67) 
hbond:GLY:108    0
hbond:GLY:108    0
Name: 66, dtype: object

>  <halogenbond:GLY:108>  (67) 
halogenbond:GLY:108    0
halogenbond:GLY:108    0
Name: 66, dtype: object

>  <hbond:ASP:109>  (67) 
hbond:ASP:109    0
hbond:ASP:109    0
Name: 66, dtype: object

>  <hydroph_interaction:ASP:109>  (67) 
hydroph_interaction:ASP:109    0
hydroph_interaction:ASP:109    0
Name: 66, dtype: object

>  <saltbridge:ASP:109>  (67) 
saltbridge:ASP:109    0
saltbridge:ASP:109    0
Name: 66, dtype: object

>  <hbond:CYS:110>  (67) 
hbond:CYS:110    0
hbond:CYS:110    0
Name: 66, dtype: object

>  <halogenbond:CYS:110>  (67) 
halogenbond:CYS:110    0
halogenbond:CYS:110    0
Name: 66, dtype: object

>  <hbond:GLY:111>  (67) 
hbond:GLY:111    0
hbond:GLY:111    0
Name: 66, dtype: object

>  <hbond:GLY:112>  (67) 
hbond:GLY:112    0
hbond:GLY:112    0
Name: 66, dtype: object

>  <hbond:ILE:113>  (67) 
hbond:ILE:113    0
hbond:ILE:113    0
Name: 66, dtype: object

>  <hydroph_interaction:LEU:114>  (67) 
hydroph_interaction:LEU:114    0
hydroph_interaction:LEU:114    0
Name: 66, dtype: object

>  <hbond:LEU:114>  (67) 
hbond:LEU:114    0
hbond:LEU:114    0
Name: 66, dtype: object

>  <hydroph_interaction:ILE:123>  (67) 
hydroph_interaction:ILE:123    0
hydroph_interaction:ILE:123    0
Name: 66, dtype: object

>  <hbond:ILE:123>  (67) 
hbond:ILE:123    0
hbond:ILE:123    0
Name: 66, dtype: object

>  <hydroph_interaction:VAL:124>  (67) 
hydroph_interaction:VAL:124    0
hydroph_interaction:VAL:124    0
Name: 66, dtype: object

>  <hbond:VAL:124>  (67) 
hbond:VAL:124    0
hbond:VAL:124    0
Name: 66, dtype: object

>  <halogenbond:VAL:124>  (67) 
halogenbond:VAL:124    0
halogenbond:VAL:124    0
Name: 66, dtype: object

>  <hbond:SER:125>  (67) 
hbond:SER:125    0
hbond:SER:125    0
Name: 66, dtype: object

>  <halogenbond:SER:125>  (67) 
halogenbond:SER:125    0
halogenbond:SER:125    0
Name: 66, dtype: object

>  <hydroph_interaction:THR:126>  (67) 
hydroph_interaction:THR:126    0
hydroph_interaction:THR:126    0
Name: 66, dtype: object

>  <hbond:THR:126>  (67) 
hbond:THR:126    0
hbond:THR:126    0
Name: 66, dtype: object

>  <halogenbond:THR:126>  (67) 
halogenbond:THR:126    0
halogenbond:THR:126    0
Name: 66, dtype: object

>  <hbond:GLY:127>  (67) 
hbond:GLY:127    0
hbond:GLY:127    0
Name: 66, dtype: object

>  <halogenbond:GLY:127>  (67) 
halogenbond:GLY:127    0
halogenbond:GLY:127    0
Name: 66, dtype: object

>  <hydroph_interaction:GLY:127>  (67) 
hydroph_interaction:GLY:127    0
hydroph_interaction:GLY:127    0
Name: 66, dtype: object

>  <hbond:GLY:128>  (67) 
hbond:GLY:128    0
hbond:GLY:128    0
Name: 66, dtype: object

>  <halogenbond:GLY:128>  (67) 
halogenbond:GLY:128    0
halogenbond:GLY:128    0
Name: 66, dtype: object

>  <hydroph_interaction:GLY:128>  (67) 
hydroph_interaction:GLY:128    0
hydroph_interaction:GLY:128    0
Name: 66, dtype: object

>  <hbond:ASN:129>  (67) 
hbond:ASN:129    0
hbond:ASN:129    0
Name: 66, dtype: object

>  <hydroph_interaction:ASN:129>  (67) 
hydroph_interaction:ASN:129    0
hydroph_interaction:ASN:129    0
Name: 66, dtype: object

>  <halogenbond:ASN:129>  (67) 
halogenbond:ASN:129    0
halogenbond:ASN:129    0
Name: 66, dtype: object

>  <hbond:GLY:130>  (67) 
hbond:GLY:130    0
hbond:GLY:130    0
Name: 66, dtype: object

>  <hydroph_interaction:LEU:131>  (67) 
hydroph_interaction:LEU:131    0
hydroph_interaction:LEU:131    0
Name: 66, dtype: object

>  <hbond:LEU:131>  (67) 
hbond:LEU:131    0
hbond:LEU:131    0
Name: 66, dtype: object

>  <halogenbond:LEU:131>  (67) 
halogenbond:LEU:131    0
halogenbond:LEU:131    0
Name: 66, dtype: object

>  <hydroph_interaction:VAL:132>  (67) 
hydroph_interaction:VAL:132    0
hydroph_interaction:VAL:132    0
Name: 66, dtype: object

>  <hbond:VAL:132>  (67) 
hbond:VAL:132    0
hbond:VAL:132    0
Name: 66, dtype: object

>  <hbond:GLY:133>  (67) 
hbond:GLY:133    0
hbond:GLY:133    0
Name: 66, dtype: object

>  <halogenbond:GLY:133>  (67) 
halogenbond:GLY:133    0
halogenbond:GLY:133    0
Name: 66, dtype: object

>  <hydroph_interaction:PHE:134>  (67) 
hydroph_interaction:PHE:134    0
hydroph_interaction:PHE:134    0
Name: 66, dtype: object

>  <hbond:PHE:134>  (67) 
hbond:PHE:134    0
hbond:PHE:134    0
Name: 66, dtype: object

>  <pistack:PHE:134>  (67) 
pistack:PHE:134    0
pistack:PHE:134    0
Name: 66, dtype: object

>  <pication:PHE:134>  (67) 
pication:PHE:134    0
pication:PHE:134    0
Name: 66, dtype: object

>  <hydroph_interaction:ALA:135>  (67) 
hydroph_interaction:ALA:135    0
hydroph_interaction:ALA:135    0
Name: 66, dtype: object

>  <hbond:ALA:135>  (67) 
hbond:ALA:135    0
hbond:ALA:135    0
Name: 66, dtype: object

$$$$
Z1098453709
     RDKit          3D

 40 41  0  0  0  0  0  0  0  0999 V2000
   10.8650    8.8550   22.9000 C   0  0  0  0  0  0  0  0  0  0  0  0
   10.3580    9.8940   23.0140 C   0  0  0  0  0  0  0  0  0  0  0  0
    9.8940   11.1640   23.3460 C   0  0  0  0  0  0  0  0  0  0  0  0
   10.6760   12.2490   23.0100 C   0  0  0  0  0  0  0  0  0  0  0  0
   10.3020   13.5200   23.3480 C   0  0  0  0  0  0  0  0  0  0  0  0
   11.1830   14.5840   23.0090 N   0  0  0  0  0  0  0  0  0  0  0  0
   12.2720   14.5930   23.8940 C   0  0  0  0  0  0  0  0  0  0  0  0
   12.3000   15.3210   24.8880 O   0  0  0  0  0  0  0  0  0  0  0  0
   13.4220   13.6150   23.6310 C   0  0  0  0  0  0  0  0  0  0  0  0
   14.1490   13.9240   22.3120 C   0  0  0  0  0  0  0  0  0  0  0  0
   15.5910   13.4350   22.5040 C   0  0  0  0  0  0  0  0  0  0  0  0
   15.7340   13.0570   23.9600 C   0  0  0  0  0  0  0  0  0  0  0  0
   14.5470   13.6620   24.6570 C   0  0  0  0  0  0  0  0  0  0  0  0
   11.3040   14.9440   21.5800 C   0  0  0  0  0  0  0  0  0  0  0  0
   12.0930   16.2380   21.4820 C   0  0  0  0  0  0  0  0  0  0  0  0
   10.0320   14.9140   20.7300 C   0  0  0  0  0  0  0  0  0  0  0  0
    9.0960   13.6930   24.0250 C   0  0  0  0  0  0  0  0  0  0  0  0
    8.2970   12.5970   24.3570 C   0  0  0  0  0  0  0  0  0  0  0  0
    8.7030   11.3210   24.0180 C   0  0  0  0  0  0  0  0  0  0  0  0
   11.3500    7.9230   22.8820 H   0  0  0  0  0  0  0  0  0  0  0  0
   11.5990   12.0970   22.4890 H   0  0  0  0  0  0  0  0  0  0  0  0
   13.0290   12.6040   23.6650 H   0  0  0  0  0  0  0  0  0  0  0  0
   14.1470   14.9900   22.0830 H   0  0  0  0  0  0  0  0  0  0  0  0
   13.6900   13.4220   21.4570 H   0  0  0  0  0  0  0  0  0  0  0  0
   15.7790   12.5660   21.8690 H   0  0  0  0  0  0  0  0  0  0  0  0
   16.3230   14.1840   22.2470 H   0  0  0  0  0  0  0  0  0  0  0  0
   15.7420   11.9670   24.0780 H   0  0  0  0  0  0  0  0  0  0  0  0
   16.6450   13.4520   24.3830 H   0  0  0  0  0  0  0  0  0  0  0  0
   14.3340   13.0100   25.4960 H   0  0  0  0  0  0  0  0  0  0  0  0
   14.7430   14.6560   25.0650 H   0  0  0  0  0  0  0  0  0  0  0  0
   11.9150   14.1710   21.0980 H   0  0  0  0  0  0  0  0  0  0  0  0
   13.1360   16.0100   21.6790 H   0  0  0  0  0  0  0  0  0  0  0  0
   11.9990   16.6970   20.4920 H   0  0  0  0  0  0  0  0  0  0  0  0
   11.8110   16.9870   22.2200 H   0  0  0  0  0  0  0  0  0  0  0  0
    9.7040   15.9020   20.4050 H   0  0  0  0  0  0  0  0  0  0  0  0
    9.2110   14.4150   21.2540 H   0  0  0  0  0  0  0  0  0  0  0  0
   10.2280   14.3520   19.8110 H   0  0  0  0  0  0  0  0  0  0  0  0
    8.7400   14.6750   24.3200 H   0  0  0  0  0  0  0  0  0  0  0  0
    7.3590   12.7450   24.8850 H   0  0  0  0  0  0  0  0  0  0  0  0
    8.0980   10.4600   24.2790 H   0  0  0  0  0  0  0  0  0  0  0  0
  1  2  3  0
  2  3  1  0
  3  4  2  0
  4  5  1  0
  5  6  1  0
  6  7  1  0
  7  8  2  0
  7  9  1  0
  9 10  1  0
 10 11  1  0
 11 12  1  0
 12 13  1  0
  6 14  1  0
 14 15  1  0
 14 16  1  0
  5 17  2  0
 17 18  1  0
 18 19  2  0
 19  3  1  0
 13  9  1  0
  1 20  1  0
  4 21  1  0
  9 22  1  0
 10 23  1  0
 10 24  1  0
 11 25  1  0
 11 26  1  0
 12 27  1  0
 12 28  1  0
 13 29  1  0
 13 30  1  0
 14 31  1  0
 15 32  1  0
 15 33  1  0
 15 34  1  0
 16 35  1  0
 16 36  1  0
 16 37  1  0
 17 38  1  0
 18 39  1  0
 19 40  1  0
A    1
 C1 
A    2
 C2 
A    3
 C3 
A    4
 C4 
A    5
 C5 
A    6
 N1 
A    7
 C6 
A    8
 O1 
A    9
 C7 
A   10
 C8 
A   11
 C9 
A   12
 C10
A   13
 C11
A   14
 C12
A   15
 C13
A   16
 C14
A   17
 C15
A   18
 C16
A   19
 C17
A   20
 H1 
A   21
 H2 
A   22
 H3 
A   23
 H4 
A   24
 H5 
A   25
 H6 
A   26
 H7 
A   27
 H8 
A   28
 H9 
A   29
 H10
A   30
 H11
A   31
 H12
A   32
 H13
A   33
 H14
A   34
 H15
A   35
 H16
A   36
 H17
A   37
 H18
A   38
 H19
A   39
 H20
A   40
 H21
M  END
>  <ref_pdb>  (68) 
x0310_0A

>  <ref_mols>  (68) 
x0554_0A,x0922_0A

>  <original SMILES>  (68) 
C#Cc1cccc(N(C(=O)C2CCCC2)C(C)C)c1

>  <rationale>  (68) 
info hbond:E88; hydroph_interaction:P107+V124+Y89+H21+L22; 

>  <intxn_cluster>  (68) 
107

>  <intxn_cluster_rank>  (68) 
20

>  <N_interactions>  (68) 
9

>  <∆∆G>  (68) 
-9.322422

>  <$/mg>  (68) 
163.0

>  <comRMSD>  (68) 
0.917123

>  <N_rotatable_bonds>  (68) 
5

>  <N_analogues_07>  (68) 
0

>  <deep_P1_sidechain>  (68) 
True

>  <farthest_distance_to_substrate>  (68) 
2.16157

>  <hbond:SER:7>  (68) 
hbond:SER:7    0
hbond:SER:7    0
Name: 67, dtype: object

>  <halogenbond:SER:7>  (68) 
halogenbond:SER:7    0
halogenbond:SER:7    0
Name: 67, dtype: object

>  <hbond:GLY:8>  (68) 
hbond:GLY:8    0
hbond:GLY:8    0
Name: 67, dtype: object

>  <hydroph_interaction:ASN:19>  (68) 
hydroph_interaction:ASN:19    0
hydroph_interaction:ASN:19    0
Name: 67, dtype: object

>  <hbond:ASN:19>  (68) 
hbond:ASN:19    0
hbond:ASN:19    0
Name: 67, dtype: object

>  <halogenbond:ASN:19>  (68) 
halogenbond:ASN:19    0
halogenbond:ASN:19    0
Name: 67, dtype: object

>  <hbond:ARG:20>  (68) 
hbond:ARG:20    0
hbond:ARG:20    0
Name: 67, dtype: object

>  <hydroph_interaction:ARG:20>  (68) 
hydroph_interaction:ARG:20    0
hydroph_interaction:ARG:20    0
Name: 67, dtype: object

>  <saltbridge:ARG:20>  (68) 
saltbridge:ARG:20    0
saltbridge:ARG:20    0
Name: 67, dtype: object

>  <halogenbond:ARG:20>  (68) 
halogenbond:ARG:20    0
halogenbond:ARG:20    0
Name: 67, dtype: object

>  <pication:ARG:20>  (68) 
pication:ARG:20    0
pication:ARG:20    0
Name: 67, dtype: object

>  <hbond:HIS:21>  (68) 
hbond:HIS:21    0
hbond:HIS:21    0
Name: 67, dtype: object

>  <hydroph_interaction:HIS:21>  (68) 
hydroph_interaction:HIS:21    1
hydroph_interaction:HIS:21    1
Name: 67, dtype: object

>  <saltbridge:HIS:21>  (68) 
saltbridge:HIS:21    0
saltbridge:HIS:21    0
Name: 67, dtype: object

>  <pistack:HIS:21>  (68) 
pistack:HIS:21    0
pistack:HIS:21    0
Name: 67, dtype: object

>  <pication:HIS:21>  (68) 
pication:HIS:21    0
pication:HIS:21    0
Name: 67, dtype: object

>  <halogenbond:HIS:21>  (68) 
halogenbond:HIS:21    0
halogenbond:HIS:21    0
Name: 67, dtype: object

>  <hydroph_interaction:LEU:22>  (68) 
hydroph_interaction:LEU:22    2
hydroph_interaction:LEU:22    2
Name: 67, dtype: object

>  <hbond:LEU:22>  (68) 
hbond:LEU:22    0
hbond:LEU:22    0
Name: 67, dtype: object

>  <hydroph_interaction:TRP:28>  (68) 
hydroph_interaction:TRP:28    0
hydroph_interaction:TRP:28    0
Name: 67, dtype: object

>  <hbond:SER:36>  (68) 
hbond:SER:36    0
hbond:SER:36    0
Name: 67, dtype: object

>  <halogenbond:SER:36>  (68) 
halogenbond:SER:36    0
halogenbond:SER:36    0
Name: 67, dtype: object

>  <hbond:ARG:38>  (68) 
hbond:ARG:38    0
hbond:ARG:38    0
Name: 67, dtype: object

>  <halogenbond:ARG:38>  (68) 
halogenbond:ARG:38    0
halogenbond:ARG:38    0
Name: 67, dtype: object

>  <hbond:ASP:39>  (68) 
hbond:ASP:39    0
hbond:ASP:39    0
Name: 67, dtype: object

>  <saltbridge:ASP:39>  (68) 
saltbridge:ASP:39    0
saltbridge:ASP:39    0
Name: 67, dtype: object

>  <hydroph_interaction:ASP:39>  (68) 
hydroph_interaction:ASP:39    0
hydroph_interaction:ASP:39    0
Name: 67, dtype: object

>  <halogenbond:ASP:39>  (68) 
halogenbond:ASP:39    0
halogenbond:ASP:39    0
Name: 67, dtype: object

>  <hydroph_interaction:LEU:40>  (68) 
hydroph_interaction:LEU:40    0
hydroph_interaction:LEU:40    0
Name: 67, dtype: object

>  <hydroph_interaction:TYR:63>  (68) 
hydroph_interaction:TYR:63    0
hydroph_interaction:TYR:63    0
Name: 67, dtype: object

>  <pistack:TYR:63>  (68) 
pistack:TYR:63    0
pistack:TYR:63    0
Name: 67, dtype: object

>  <hbond:TYR:63>  (68) 
hbond:TYR:63    0
hbond:TYR:63    0
Name: 67, dtype: object

>  <hbond:TYR:64>  (68) 
hbond:TYR:64    0
hbond:TYR:64    0
Name: 67, dtype: object

>  <halogenbond:TYR:64>  (68) 
halogenbond:TYR:64    0
halogenbond:TYR:64    0
Name: 67, dtype: object

>  <hydroph_interaction:TYR:64>  (68) 
hydroph_interaction:TYR:64    0
hydroph_interaction:TYR:64    0
Name: 67, dtype: object

>  <hbond:CYS:65>  (68) 
hbond:CYS:65    0
hbond:CYS:65    0
Name: 67, dtype: object

>  <halogenbond:CYS:65>  (68) 
halogenbond:CYS:65    0
halogenbond:CYS:65    0
Name: 67, dtype: object

>  <hbond:SER:66>  (68) 
hbond:SER:66    0
hbond:SER:66    0
Name: 67, dtype: object

>  <hbond:SER:67>  (68) 
hbond:SER:67    0
hbond:SER:67    0
Name: 67, dtype: object

>  <halogenbond:SER:67>  (68) 
halogenbond:SER:67    0
halogenbond:SER:67    0
Name: 67, dtype: object

>  <hydroph_interaction:ARG:68>  (68) 
hydroph_interaction:ARG:68    0
hydroph_interaction:ARG:68    0
Name: 67, dtype: object

>  <hbond:ARG:68>  (68) 
hbond:ARG:68    0
hbond:ARG:68    0
Name: 67, dtype: object

>  <saltbridge:ARG:68>  (68) 
saltbridge:ARG:68    0
saltbridge:ARG:68    0
Name: 67, dtype: object

>  <pication:ARG:68>  (68) 
pication:ARG:68    0
pication:ARG:68    0
Name: 67, dtype: object

>  <hydroph_interaction:TYR:72>  (68) 
hydroph_interaction:TYR:72    0
hydroph_interaction:TYR:72    0
Name: 67, dtype: object

>  <hydroph_interaction:VAL:74>  (68) 
hydroph_interaction:VAL:74    0
hydroph_interaction:VAL:74    0
Name: 67, dtype: object

>  <hydroph_interaction:PHE:76>  (68) 
hydroph_interaction:PHE:76    0
hydroph_interaction:PHE:76    0
Name: 67, dtype: object

>  <hbond:SER:77>  (68) 
hbond:SER:77    0
hbond:SER:77    0
Name: 67, dtype: object

>  <hbond:SER:80>  (68) 
hbond:SER:80    0
hbond:SER:80    0
Name: 67, dtype: object

>  <hbond:LEU:81>  (68) 
hbond:LEU:81    0
hbond:LEU:81    0
Name: 67, dtype: object

>  <halogenbond:LEU:81>  (68) 
halogenbond:LEU:81    0
halogenbond:LEU:81    0
Name: 67, dtype: object

>  <hydroph_interaction:LEU:81>  (68) 
hydroph_interaction:LEU:81    0
hydroph_interaction:LEU:81    0
Name: 67, dtype: object

>  <hydroph_interaction:ILE:82>  (68) 
hydroph_interaction:ILE:82    0
hydroph_interaction:ILE:82    0
Name: 67, dtype: object

>  <hbond:ILE:82>  (68) 
hbond:ILE:82    0
hbond:ILE:82    0
Name: 67, dtype: object

>  <hydroph_interaction:PHE:83>  (68) 
hydroph_interaction:PHE:83    0
hydroph_interaction:PHE:83    0
Name: 67, dtype: object

>  <hbond:PHE:83>  (68) 
hbond:PHE:83    0
hbond:PHE:83    0
Name: 67, dtype: object

>  <halogenbond:PHE:83>  (68) 
halogenbond:PHE:83    0
halogenbond:PHE:83    0
Name: 67, dtype: object

>  <pistack:PHE:83>  (68) 
pistack:PHE:83    0
pistack:PHE:83    0
Name: 67, dtype: object

>  <hydroph_interaction:VAL:84>  (68) 
hydroph_interaction:VAL:84    0
hydroph_interaction:VAL:84    0
Name: 67, dtype: object

>  <hbond:VAL:84>  (68) 
hbond:VAL:84    0
hbond:VAL:84    0
Name: 67, dtype: object

>  <halogenbond:VAL:84>  (68) 
halogenbond:VAL:84    0
halogenbond:VAL:84    0
Name: 67, dtype: object

>  <hydroph_interaction:GLU:85>  (68) 
hydroph_interaction:GLU:85    0
hydroph_interaction:GLU:85    0
Name: 67, dtype: object

>  <hbond:GLU:85>  (68) 
hbond:GLU:85    0
hbond:GLU:85    0
Name: 67, dtype: object

>  <saltbridge:GLU:85>  (68) 
saltbridge:GLU:85    0
saltbridge:GLU:85    0
Name: 67, dtype: object

>  <halogenbond:GLU:85>  (68) 
halogenbond:GLU:85    0
halogenbond:GLU:85    0
Name: 67, dtype: object

>  <hbond:ALA:86>  (68) 
hbond:ALA:86    0
hbond:ALA:86    0
Name: 67, dtype: object

>  <halogenbond:ALA:86>  (68) 
halogenbond:ALA:86    0
halogenbond:ALA:86    0
Name: 67, dtype: object

>  <hydroph_interaction:ALA:86>  (68) 
hydroph_interaction:ALA:86    0
hydroph_interaction:ALA:86    0
Name: 67, dtype: object

>  <hbond:SER:87>  (68) 
hbond:SER:87    0
hbond:SER:87    0
Name: 67, dtype: object

>  <halogenbond:SER:87>  (68) 
halogenbond:SER:87    0
halogenbond:SER:87    0
Name: 67, dtype: object

>  <hbond:GLU:88>  (68) 
hbond:GLU:88    1
hbond:GLU:88    1
Name: 67, dtype: object

>  <hydroph_interaction:GLU:88>  (68) 
hydroph_interaction:GLU:88    0
hydroph_interaction:GLU:88    0
Name: 67, dtype: object

>  <halogenbond:GLU:88>  (68) 
halogenbond:GLU:88    0
halogenbond:GLU:88    0
Name: 67, dtype: object

>  <saltbridge:GLU:88>  (68) 
saltbridge:GLU:88    0
saltbridge:GLU:88    0
Name: 67, dtype: object

>  <hydroph_interaction:TYR:89>  (68) 
hydroph_interaction:TYR:89    3
hydroph_interaction:TYR:89    3
Name: 67, dtype: object

>  <pistack:TYR:89>  (68) 
pistack:TYR:89    0
pistack:TYR:89    0
Name: 67, dtype: object

>  <hbond:TYR:89>  (68) 
hbond:TYR:89    0
hbond:TYR:89    0
Name: 67, dtype: object

>  <halogenbond:TYR:89>  (68) 
halogenbond:TYR:89    0
halogenbond:TYR:89    0
Name: 67, dtype: object

>  <hbond:TYR:90>  (68) 
hbond:TYR:90    0
hbond:TYR:90    0
Name: 67, dtype: object

>  <hydroph_interaction:TYR:90>  (68) 
hydroph_interaction:TYR:90    0
hydroph_interaction:TYR:90    0
Name: 67, dtype: object

>  <pistack:TYR:90>  (68) 
pistack:TYR:90    0
pistack:TYR:90    0
Name: 67, dtype: object

>  <halogenbond:TYR:90>  (68) 
halogenbond:TYR:90    0
halogenbond:TYR:90    0
Name: 67, dtype: object

>  <pication:TYR:90>  (68) 
pication:TYR:90    0
pication:TYR:90    0
Name: 67, dtype: object

>  <hydroph_interaction:PRO:91>  (68) 
hydroph_interaction:PRO:91    0
hydroph_interaction:PRO:91    0
Name: 67, dtype: object

>  <halogenbond:PRO:91>  (68) 
halogenbond:PRO:91    0
halogenbond:PRO:91    0
Name: 67, dtype: object

>  <hbond:PRO:91>  (68) 
hbond:PRO:91    0
hbond:PRO:91    0
Name: 67, dtype: object

>  <hydroph_interaction:ALA:92>  (68) 
hydroph_interaction:ALA:92    0
hydroph_interaction:ALA:92    0
Name: 67, dtype: object

>  <hbond:ARG:93>  (68) 
hbond:ARG:93    0
hbond:ARG:93    0
Name: 67, dtype: object

>  <pication:ARG:93>  (68) 
pication:ARG:93    0
pication:ARG:93    0
Name: 67, dtype: object

>  <saltbridge:ARG:93>  (68) 
saltbridge:ARG:93    0
saltbridge:ARG:93    0
Name: 67, dtype: object

>  <hydroph_interaction:ARG:93>  (68) 
hydroph_interaction:ARG:93    0
hydroph_interaction:ARG:93    0
Name: 67, dtype: object

>  <halogenbond:ARG:93>  (68) 
halogenbond:ARG:93    0
halogenbond:ARG:93    0
Name: 67, dtype: object

>  <hydroph_interaction:TYR:94>  (68) 
hydroph_interaction:TYR:94    0
hydroph_interaction:TYR:94    0
Name: 67, dtype: object

>  <hbond:TYR:94>  (68) 
hbond:TYR:94    0
hbond:TYR:94    0
Name: 67, dtype: object

>  <halogenbond:GLN:95>  (68) 
halogenbond:GLN:95    0
halogenbond:GLN:95    0
Name: 67, dtype: object

>  <hbond:GLN:95>  (68) 
hbond:GLN:95    0
hbond:GLN:95    0
Name: 67, dtype: object

>  <hydroph_interaction:GLN:95>  (68) 
hydroph_interaction:GLN:95    0
hydroph_interaction:GLN:95    0
Name: 67, dtype: object

>  <hbond:SER:96>  (68) 
hbond:SER:96    0
hbond:SER:96    0
Name: 67, dtype: object

>  <hydroph_interaction:LEU:98>  (68) 
hydroph_interaction:LEU:98    0
hydroph_interaction:LEU:98    0
Name: 67, dtype: object

>  <hbond:LEU:98>  (68) 
hbond:LEU:98    0
hbond:LEU:98    0
Name: 67, dtype: object

>  <hbond:MET:99>  (68) 
hbond:MET:99    0
hbond:MET:99    0
Name: 67, dtype: object

>  <hydroph_interaction:MET:99>  (68) 
hydroph_interaction:MET:99    0
hydroph_interaction:MET:99    0
Name: 67, dtype: object

>  <halogenbond:MET:99>  (68) 
halogenbond:MET:99    0
halogenbond:MET:99    0
Name: 67, dtype: object

>  <hydroph_interaction:LEU:100>  (68) 
hydroph_interaction:LEU:100    0
hydroph_interaction:LEU:100    0
Name: 67, dtype: object

>  <hbond:LEU:100>  (68) 
hbond:LEU:100    0
hbond:LEU:100    0
Name: 67, dtype: object

>  <hbond:ALA:101>  (68) 
hbond:ALA:101    0
hbond:ALA:101    0
Name: 67, dtype: object

>  <hydroph_interaction:ALA:101>  (68) 
hydroph_interaction:ALA:101    0
hydroph_interaction:ALA:101    0
Name: 67, dtype: object

>  <hydroph_interaction:VAL:102>  (68) 
hydroph_interaction:VAL:102    0
hydroph_interaction:VAL:102    0
Name: 67, dtype: object

>  <hbond:VAL:102>  (68) 
hbond:VAL:102    0
hbond:VAL:102    0
Name: 67, dtype: object

>  <hbond:GLY:103>  (68) 
hbond:GLY:103    0
hbond:GLY:103    0
Name: 67, dtype: object

>  <halogenbond:GLY:103>  (68) 
halogenbond:GLY:103    0
halogenbond:GLY:103    0
Name: 67, dtype: object

>  <hydroph_interaction:HIS:104>  (68) 
hydroph_interaction:HIS:104    0
hydroph_interaction:HIS:104    0
Name: 67, dtype: object

>  <hbond:HIS:104>  (68) 
hbond:HIS:104    0
hbond:HIS:104    0
Name: 67, dtype: object

>  <saltbridge:HIS:104>  (68) 
saltbridge:HIS:104    0
saltbridge:HIS:104    0
Name: 67, dtype: object

>  <pication:HIS:104>  (68) 
pication:HIS:104    0
pication:HIS:104    0
Name: 67, dtype: object

>  <pistack:HIS:104>  (68) 
pistack:HIS:104    0
pistack:HIS:104    0
Name: 67, dtype: object

>  <halogenbond:HIS:104>  (68) 
halogenbond:HIS:104    0
halogenbond:HIS:104    0
Name: 67, dtype: object

>  <hbond:SER:105>  (68) 
hbond:SER:105    0
hbond:SER:105    0
Name: 67, dtype: object

>  <halogenbond:SER:105>  (68) 
halogenbond:SER:105    0
halogenbond:SER:105    0
Name: 67, dtype: object

>  <hbond:GLU:106>  (68) 
hbond:GLU:106    0
hbond:GLU:106    0
Name: 67, dtype: object

>  <hydroph_interaction:GLU:106>  (68) 
hydroph_interaction:GLU:106    0
hydroph_interaction:GLU:106    0
Name: 67, dtype: object

>  <saltbridge:GLU:106>  (68) 
saltbridge:GLU:106    0
saltbridge:GLU:106    0
Name: 67, dtype: object

>  <halogenbond:GLU:106>  (68) 
halogenbond:GLU:106    0
halogenbond:GLU:106    0
Name: 67, dtype: object

>  <hydroph_interaction:PRO:107>  (68) 
hydroph_interaction:PRO:107    1
hydroph_interaction:PRO:107    1
Name: 67, dtype: object

>  <hbond:PRO:107>  (68) 
hbond:PRO:107    0
hbond:PRO:107    0
Name: 67, dtype: object

>  <halogenbond:PRO:107>  (68) 
halogenbond:PRO:107    0
halogenbond:PRO:107    0
Name: 67, dtype: object

>  <hbond:GLY:108>  (68) 
hbond:GLY:108    0
hbond:GLY:108    0
Name: 67, dtype: object

>  <halogenbond:GLY:108>  (68) 
halogenbond:GLY:108    0
halogenbond:GLY:108    0
Name: 67, dtype: object

>  <hbond:ASP:109>  (68) 
hbond:ASP:109    0
hbond:ASP:109    0
Name: 67, dtype: object

>  <hydroph_interaction:ASP:109>  (68) 
hydroph_interaction:ASP:109    0
hydroph_interaction:ASP:109    0
Name: 67, dtype: object

>  <saltbridge:ASP:109>  (68) 
saltbridge:ASP:109    0
saltbridge:ASP:109    0
Name: 67, dtype: object

>  <hbond:CYS:110>  (68) 
hbond:CYS:110    0
hbond:CYS:110    0
Name: 67, dtype: object

>  <halogenbond:CYS:110>  (68) 
halogenbond:CYS:110    0
halogenbond:CYS:110    0
Name: 67, dtype: object

>  <hbond:GLY:111>  (68) 
hbond:GLY:111    0
hbond:GLY:111    0
Name: 67, dtype: object

>  <hbond:GLY:112>  (68) 
hbond:GLY:112    0
hbond:GLY:112    0
Name: 67, dtype: object

>  <hbond:ILE:113>  (68) 
hbond:ILE:113    0
hbond:ILE:113    0
Name: 67, dtype: object

>  <hydroph_interaction:LEU:114>  (68) 
hydroph_interaction:LEU:114    0
hydroph_interaction:LEU:114    0
Name: 67, dtype: object

>  <hbond:LEU:114>  (68) 
hbond:LEU:114    0
hbond:LEU:114    0
Name: 67, dtype: object

>  <hydroph_interaction:ILE:123>  (68) 
hydroph_interaction:ILE:123    0
hydroph_interaction:ILE:123    0
Name: 67, dtype: object

>  <hbond:ILE:123>  (68) 
hbond:ILE:123    0
hbond:ILE:123    0
Name: 67, dtype: object

>  <hydroph_interaction:VAL:124>  (68) 
hydroph_interaction:VAL:124    1
hydroph_interaction:VAL:124    1
Name: 67, dtype: object

>  <hbond:VAL:124>  (68) 
hbond:VAL:124    0
hbond:VAL:124    0
Name: 67, dtype: object

>  <halogenbond:VAL:124>  (68) 
halogenbond:VAL:124    0
halogenbond:VAL:124    0
Name: 67, dtype: object

>  <hbond:SER:125>  (68) 
hbond:SER:125    0
hbond:SER:125    0
Name: 67, dtype: object

>  <halogenbond:SER:125>  (68) 
halogenbond:SER:125    0
halogenbond:SER:125    0
Name: 67, dtype: object

>  <hydroph_interaction:THR:126>  (68) 
hydroph_interaction:THR:126    0
hydroph_interaction:THR:126    0
Name: 67, dtype: object

>  <hbond:THR:126>  (68) 
hbond:THR:126    0
hbond:THR:126    0
Name: 67, dtype: object

>  <halogenbond:THR:126>  (68) 
halogenbond:THR:126    0
halogenbond:THR:126    0
Name: 67, dtype: object

>  <hbond:GLY:127>  (68) 
hbond:GLY:127    0
hbond:GLY:127    0
Name: 67, dtype: object

>  <halogenbond:GLY:127>  (68) 
halogenbond:GLY:127    0
halogenbond:GLY:127    0
Name: 67, dtype: object

>  <hydroph_interaction:GLY:127>  (68) 
hydroph_interaction:GLY:127    0
hydroph_interaction:GLY:127    0
Name: 67, dtype: object

>  <hbond:GLY:128>  (68) 
hbond:GLY:128    0
hbond:GLY:128    0
Name: 67, dtype: object

>  <halogenbond:GLY:128>  (68) 
halogenbond:GLY:128    0
halogenbond:GLY:128    0
Name: 67, dtype: object

>  <hydroph_interaction:GLY:128>  (68) 
hydroph_interaction:GLY:128    0
hydroph_interaction:GLY:128    0
Name: 67, dtype: object

>  <hbond:ASN:129>  (68) 
hbond:ASN:129    0
hbond:ASN:129    0
Name: 67, dtype: object

>  <hydroph_interaction:ASN:129>  (68) 
hydroph_interaction:ASN:129    0
hydroph_interaction:ASN:129    0
Name: 67, dtype: object

>  <halogenbond:ASN:129>  (68) 
halogenbond:ASN:129    0
halogenbond:ASN:129    0
Name: 67, dtype: object

>  <hbond:GLY:130>  (68) 
hbond:GLY:130    0
hbond:GLY:130    0
Name: 67, dtype: object

>  <hydroph_interaction:LEU:131>  (68) 
hydroph_interaction:LEU:131    0
hydroph_interaction:LEU:131    0
Name: 67, dtype: object

>  <hbond:LEU:131>  (68) 
hbond:LEU:131    0
hbond:LEU:131    0
Name: 67, dtype: object

>  <halogenbond:LEU:131>  (68) 
halogenbond:LEU:131    0
halogenbond:LEU:131    0
Name: 67, dtype: object

>  <hydroph_interaction:VAL:132>  (68) 
hydroph_interaction:VAL:132    0
hydroph_interaction:VAL:132    0
Name: 67, dtype: object

>  <hbond:VAL:132>  (68) 
hbond:VAL:132    0
hbond:VAL:132    0
Name: 67, dtype: object

>  <hbond:GLY:133>  (68) 
hbond:GLY:133    0
hbond:GLY:133    0
Name: 67, dtype: object

>  <halogenbond:GLY:133>  (68) 
halogenbond:GLY:133    0
halogenbond:GLY:133    0
Name: 67, dtype: object

>  <hydroph_interaction:PHE:134>  (68) 
hydroph_interaction:PHE:134    0
hydroph_interaction:PHE:134    0
Name: 67, dtype: object

>  <hbond:PHE:134>  (68) 
hbond:PHE:134    0
hbond:PHE:134    0
Name: 67, dtype: object

>  <pistack:PHE:134>  (68) 
pistack:PHE:134    0
pistack:PHE:134    0
Name: 67, dtype: object

>  <pication:PHE:134>  (68) 
pication:PHE:134    0
pication:PHE:134    0
Name: 67, dtype: object

>  <hydroph_interaction:ALA:135>  (68) 
hydroph_interaction:ALA:135    0
hydroph_interaction:ALA:135    0
Name: 67, dtype: object

>  <hbond:ALA:135>  (68) 
hbond:ALA:135    0
hbond:ALA:135    0
Name: 67, dtype: object

$$$$
Z3604737695
     RDKit          3D

 46 48  0  0  0  0  0  0  0  0999 V2000
   15.0790   18.8270   16.3350 C   0  0  0  0  0  0  0  0  0  0  0  0
   14.0020   17.9110   16.4040 O   0  0  0  0  0  0  0  0  0  0  0  0
   14.0730   17.2260   17.5560 C   0  0  0  0  0  0  0  0  0  0  0  0
   15.1140   16.9760   18.1110 O   0  0  0  0  0  0  0  0  0  0  0  0
   12.7620   16.8840   18.0220 C   0  0  0  0  0  0  0  0  0  0  0  0
   12.4180   16.2620   19.2080 C   0  0  0  0  0  0  0  0  0  0  0  0
   13.3820   15.8080   20.2290 C   0  0  0  0  0  0  0  0  0  0  0  0
   10.9930   16.1690   19.2490 C   0  0  0  0  0  0  0  0  0  0  0  0
   10.1000   15.6240   20.2550 C   0  0  0  0  0  0  0  0  0  0  0  0
    8.9140   15.9110   20.1900 O   0  0  0  0  0  0  0  0  0  0  0  0
   10.5740   14.8050   21.2720 N   0  0  0  0  0  0  0  0  0  0  0  0
   11.8140   14.8450   22.0800 C   0  0  0  0  0  0  0  0  0  0  0  0
   11.5540   13.8700   23.2520 C   0  0  1  0  0  0  0  0  0  0  0  0
   11.1190   14.5600   24.3380 F   0  0  0  0  0  0  0  0  0  0  0  0
   10.4380   13.0280   22.6570 C   0  0  1  0  0  0  0  0  0  0  0  0
    9.6100   12.0930   23.4250 C   0  0  0  0  0  0  0  0  0  0  0  0
    9.7820   10.7300   23.2270 C   0  0  0  0  0  0  0  0  0  0  0  0
    8.9990    9.8560   23.9300 C   0  0  0  0  0  0  0  0  0  0  0  0
    8.0470   10.3190   24.8230 C   0  0  0  0  0  0  0  0  0  0  0  0
    7.8720   11.6640   25.0250 C   0  0  0  0  0  0  0  0  0  0  0  0
    8.6570   12.5550   24.3250 C   0  0  0  0  0  0  0  0  0  0  0  0
    9.5940   14.1080   22.0370 C   0  0  0  0  0  0  0  0  0  0  0  0
   10.5200   16.7460   18.0850 C   0  0  0  0  0  0  0  0  0  0  0  0
    9.1250   16.9550   17.6330 C   0  0  0  0  0  0  0  0  0  0  0  0
   11.5930   17.1520   17.3450 N   0  0  0  0  0  0  0  0  0  0  0  0
   15.9660   18.3340   15.9370 H   0  0  0  0  0  0  0  0  0  0  0  0
   14.8070   19.6900   15.7340 H   0  0  0  0  0  0  0  0  0  0  0  0
   15.2970   19.1680   17.3510 H   0  0  0  0  0  0  0  0  0  0  0  0
   13.4410   14.7140   20.2430 H   0  0  0  0  0  0  0  0  0  0  0  0
   13.1140   16.1470   21.2290 H   0  0  0  0  0  0  0  0  0  0  0  0
   14.3630   16.2090   19.9950 H   0  0  0  0  0  0  0  0  0  0  0  0
   12.6290   14.4640   21.4600 H   0  0  0  0  0  0  0  0  0  0  0  0
   12.0320   15.8610   22.4260 H   0  0  0  0  0  0  0  0  0  0  0  0
   12.4390   13.2970   23.5460 H   0  0  0  0  0  0  0  0  0  0  0  0
   10.9190   12.4610   21.8910 H   0  0  0  0  0  0  0  0  0  0  0  0
   10.5210   10.3430   22.5260 H   0  0  0  0  0  0  0  0  0  0  0  0
    9.1260    8.8130   23.7840 H   0  0  0  0  0  0  0  0  0  0  0  0
    7.4320    9.6310   25.3710 H   0  0  0  0  0  0  0  0  0  0  0  0
    7.1250   12.0250   25.7270 H   0  0  0  0  0  0  0  0  0  0  0  0
    8.5120   13.6210   24.4880 H   0  0  0  0  0  0  0  0  0  0  0  0
    9.1750   14.7670   22.7870 H   0  0  0  0  0  0  0  0  0  0  0  0
    8.7750   13.7690   21.4130 H   0  0  0  0  0  0  0  0  0  0  0  0
    8.5620   16.0280   17.6800 H   0  0  0  0  0  0  0  0  0  0  0  0
    8.6230   17.6830   18.2770 H   0  0  0  0  0  0  0  0  0  0  0  0
    9.0890   17.3400   16.6150 H   0  0  0  0  0  0  0  0  0  0  0  0
   11.5540   17.6040   16.4370 H   0  0  0  0  0  0  0  0  0  0  0  0
  1  2  1  0
  2  3  1  0
  3  4  2  0
  3  5  1  0
  5  6  2  0
  6  7  1  0
  6  8  1  0
  8  9  1  0
  9 10  2  0
  9 11  1  0
 11 12  1  0
 12 13  1  0
 13 14  1  0
 13 15  1  0
 15 16  1  0
 16 17  2  0
 17 18  1  0
 18 19  2  0
 19 20  1  0
 20 21  2  0
 15 22  1  0
  8 23  2  0
 23 24  1  0
 23 25  1  0
 25  5  1  0
 22 11  1  0
 21 16  1  0
  1 26  1  0
  1 27  1  0
  1 28  1  0
  7 29  1  0
  7 30  1  0
  7 31  1  0
 12 32  1  0
 12 33  1  0
 13 34  1  1
 15 35  1  6
 17 36  1  0
 18 37  1  0
 19 38  1  0
 20 39  1  0
 21 40  1  0
 22 41  1  0
 22 42  1  0
 24 43  1  0
 24 44  1  0
 24 45  1  0
 25 46  1  0
A    1
 C1 
A    2
 O1 
A    3
 C2 
A    4
 O2 
A    5
 C3 
A    6
 C4 
A    7
 C5 
A    8
 C6 
A    9
 C7 
A   10
 O3 
A   11
 N1 
A   12
 C8 
A   13
 C9 
A   14
 F1 
A   15
 C10
A   16
 C11
A   17
 C12
A   18
 C13
A   19
 C14
A   20
 C15
A   21
 C16
A   22
 C17
A   23
 C18
A   24
 C19
A   25
 N2 
A   26
 H1 
A   27
 H2 
A   28
 H3 
A   29
 H4 
A   30
 H5 
A   31
 H6 
A   32
 H7 
A   33
 H8 
A   34
 H9 
A   35
 H10
A   36
 H11
A   37
 H12
A   38
 H13
A   39
 H14
A   40
 H15
A   41
 H16
A   42
 H17
A   43
 H18
A   44
 H19
A   45
 H20
A   46
 H21
M  END
>  <ref_pdb>  (69) 
x0310_0A

>  <ref_mols>  (69) 
x0554_0A,x0310_0A

>  <original SMILES>  (69) 
COC(=O)c1[nH]c(C)c(C(=O)N2C[C@@H](F)[C@@H](c3ccccc3)C2)c1C

>  <rationale>  (69) 
info hbond:S87+H21; hydroph_interaction:P107+Y89+Y90+H21+V84; 

>  <intxn_cluster>  (69) 
206

>  <intxn_cluster_rank>  (69) 
20

>  <N_interactions>  (69) 
8

>  <∆∆G>  (69) 
-10.293274

>  <$/mg>  (69) 
163.0

>  <comRMSD>  (69) 
0.740438

>  <N_rotatable_bonds>  (69) 
6

>  <N_analogues_07>  (69) 
0

>  <deep_P1_sidechain>  (69) 
False

>  <farthest_distance_to_substrate>  (69) 
3.774741

>  <hbond:SER:7>  (69) 
hbond:SER:7    0
hbond:SER:7    0
Name: 68, dtype: object

>  <halogenbond:SER:7>  (69) 
halogenbond:SER:7    0
halogenbond:SER:7    0
Name: 68, dtype: object

>  <hbond:GLY:8>  (69) 
hbond:GLY:8    0
hbond:GLY:8    0
Name: 68, dtype: object

>  <hydroph_interaction:ASN:19>  (69) 
hydroph_interaction:ASN:19    0
hydroph_interaction:ASN:19    0
Name: 68, dtype: object

>  <hbond:ASN:19>  (69) 
hbond:ASN:19    0
hbond:ASN:19    0
Name: 68, dtype: object

>  <halogenbond:ASN:19>  (69) 
halogenbond:ASN:19    0
halogenbond:ASN:19    0
Name: 68, dtype: object

>  <hbond:ARG:20>  (69) 
hbond:ARG:20    0
hbond:ARG:20    0
Name: 68, dtype: object

>  <hydroph_interaction:ARG:20>  (69) 
hydroph_interaction:ARG:20    0
hydroph_interaction:ARG:20    0
Name: 68, dtype: object

>  <saltbridge:ARG:20>  (69) 
saltbridge:ARG:20    0
saltbridge:ARG:20    0
Name: 68, dtype: object

>  <halogenbond:ARG:20>  (69) 
halogenbond:ARG:20    0
halogenbond:ARG:20    0
Name: 68, dtype: object

>  <pication:ARG:20>  (69) 
pication:ARG:20    0
pication:ARG:20    0
Name: 68, dtype: object

>  <hbond:HIS:21>  (69) 
hbond:HIS:21    1
hbond:HIS:21    1
Name: 68, dtype: object

>  <hydroph_interaction:HIS:21>  (69) 
hydroph_interaction:HIS:21    1
hydroph_interaction:HIS:21    1
Name: 68, dtype: object

>  <saltbridge:HIS:21>  (69) 
saltbridge:HIS:21    0
saltbridge:HIS:21    0
Name: 68, dtype: object

>  <pistack:HIS:21>  (69) 
pistack:HIS:21    0
pistack:HIS:21    0
Name: 68, dtype: object

>  <pication:HIS:21>  (69) 
pication:HIS:21    0
pication:HIS:21    0
Name: 68, dtype: object

>  <halogenbond:HIS:21>  (69) 
halogenbond:HIS:21    0
halogenbond:HIS:21    0
Name: 68, dtype: object

>  <hydroph_interaction:LEU:22>  (69) 
hydroph_interaction:LEU:22    0
hydroph_interaction:LEU:22    0
Name: 68, dtype: object

>  <hbond:LEU:22>  (69) 
hbond:LEU:22    0
hbond:LEU:22    0
Name: 68, dtype: object

>  <hydroph_interaction:TRP:28>  (69) 
hydroph_interaction:TRP:28    0
hydroph_interaction:TRP:28    0
Name: 68, dtype: object

>  <hbond:SER:36>  (69) 
hbond:SER:36    0
hbond:SER:36    0
Name: 68, dtype: object

>  <halogenbond:SER:36>  (69) 
halogenbond:SER:36    0
halogenbond:SER:36    0
Name: 68, dtype: object

>  <hbond:ARG:38>  (69) 
hbond:ARG:38    0
hbond:ARG:38    0
Name: 68, dtype: object

>  <halogenbond:ARG:38>  (69) 
halogenbond:ARG:38    0
halogenbond:ARG:38    0
Name: 68, dtype: object

>  <hbond:ASP:39>  (69) 
hbond:ASP:39    0
hbond:ASP:39    0
Name: 68, dtype: object

>  <saltbridge:ASP:39>  (69) 
saltbridge:ASP:39    0
saltbridge:ASP:39    0
Name: 68, dtype: object

>  <hydroph_interaction:ASP:39>  (69) 
hydroph_interaction:ASP:39    0
hydroph_interaction:ASP:39    0
Name: 68, dtype: object

>  <halogenbond:ASP:39>  (69) 
halogenbond:ASP:39    0
halogenbond:ASP:39    0
Name: 68, dtype: object

>  <hydroph_interaction:LEU:40>  (69) 
hydroph_interaction:LEU:40    0
hydroph_interaction:LEU:40    0
Name: 68, dtype: object

>  <hydroph_interaction:TYR:63>  (69) 
hydroph_interaction:TYR:63    0
hydroph_interaction:TYR:63    0
Name: 68, dtype: object

>  <pistack:TYR:63>  (69) 
pistack:TYR:63    0
pistack:TYR:63    0
Name: 68, dtype: object

>  <hbond:TYR:63>  (69) 
hbond:TYR:63    0
hbond:TYR:63    0
Name: 68, dtype: object

>  <hbond:TYR:64>  (69) 
hbond:TYR:64    0
hbond:TYR:64    0
Name: 68, dtype: object

>  <halogenbond:TYR:64>  (69) 
halogenbond:TYR:64    0
halogenbond:TYR:64    0
Name: 68, dtype: object

>  <hydroph_interaction:TYR:64>  (69) 
hydroph_interaction:TYR:64    0
hydroph_interaction:TYR:64    0
Name: 68, dtype: object

>  <hbond:CYS:65>  (69) 
hbond:CYS:65    0
hbond:CYS:65    0
Name: 68, dtype: object

>  <halogenbond:CYS:65>  (69) 
halogenbond:CYS:65    0
halogenbond:CYS:65    0
Name: 68, dtype: object

>  <hbond:SER:66>  (69) 
hbond:SER:66    0
hbond:SER:66    0
Name: 68, dtype: object

>  <hbond:SER:67>  (69) 
hbond:SER:67    0
hbond:SER:67    0
Name: 68, dtype: object

>  <halogenbond:SER:67>  (69) 
halogenbond:SER:67    0
halogenbond:SER:67    0
Name: 68, dtype: object

>  <hydroph_interaction:ARG:68>  (69) 
hydroph_interaction:ARG:68    0
hydroph_interaction:ARG:68    0
Name: 68, dtype: object

>  <hbond:ARG:68>  (69) 
hbond:ARG:68    0
hbond:ARG:68    0
Name: 68, dtype: object

>  <saltbridge:ARG:68>  (69) 
saltbridge:ARG:68    0
saltbridge:ARG:68    0
Name: 68, dtype: object

>  <pication:ARG:68>  (69) 
pication:ARG:68    0
pication:ARG:68    0
Name: 68, dtype: object

>  <hydroph_interaction:TYR:72>  (69) 
hydroph_interaction:TYR:72    0
hydroph_interaction:TYR:72    0
Name: 68, dtype: object

>  <hydroph_interaction:VAL:74>  (69) 
hydroph_interaction:VAL:74    0
hydroph_interaction:VAL:74    0
Name: 68, dtype: object

>  <hydroph_interaction:PHE:76>  (69) 
hydroph_interaction:PHE:76    0
hydroph_interaction:PHE:76    0
Name: 68, dtype: object

>  <hbond:SER:77>  (69) 
hbond:SER:77    0
hbond:SER:77    0
Name: 68, dtype: object

>  <hbond:SER:80>  (69) 
hbond:SER:80    0
hbond:SER:80    0
Name: 68, dtype: object

>  <hbond:LEU:81>  (69) 
hbond:LEU:81    0
hbond:LEU:81    0
Name: 68, dtype: object

>  <halogenbond:LEU:81>  (69) 
halogenbond:LEU:81    0
halogenbond:LEU:81    0
Name: 68, dtype: object

>  <hydroph_interaction:LEU:81>  (69) 
hydroph_interaction:LEU:81    0
hydroph_interaction:LEU:81    0
Name: 68, dtype: object

>  <hydroph_interaction:ILE:82>  (69) 
hydroph_interaction:ILE:82    0
hydroph_interaction:ILE:82    0
Name: 68, dtype: object

>  <hbond:ILE:82>  (69) 
hbond:ILE:82    0
hbond:ILE:82    0
Name: 68, dtype: object

>  <hydroph_interaction:PHE:83>  (69) 
hydroph_interaction:PHE:83    0
hydroph_interaction:PHE:83    0
Name: 68, dtype: object

>  <hbond:PHE:83>  (69) 
hbond:PHE:83    0
hbond:PHE:83    0
Name: 68, dtype: object

>  <halogenbond:PHE:83>  (69) 
halogenbond:PHE:83    0
halogenbond:PHE:83    0
Name: 68, dtype: object

>  <pistack:PHE:83>  (69) 
pistack:PHE:83    0
pistack:PHE:83    0
Name: 68, dtype: object

>  <hydroph_interaction:VAL:84>  (69) 
hydroph_interaction:VAL:84    1
hydroph_interaction:VAL:84    1
Name: 68, dtype: object

>  <hbond:VAL:84>  (69) 
hbond:VAL:84    0
hbond:VAL:84    0
Name: 68, dtype: object

>  <halogenbond:VAL:84>  (69) 
halogenbond:VAL:84    0
halogenbond:VAL:84    0
Name: 68, dtype: object

>  <hydroph_interaction:GLU:85>  (69) 
hydroph_interaction:GLU:85    0
hydroph_interaction:GLU:85    0
Name: 68, dtype: object

>  <hbond:GLU:85>  (69) 
hbond:GLU:85    0
hbond:GLU:85    0
Name: 68, dtype: object

>  <saltbridge:GLU:85>  (69) 
saltbridge:GLU:85    0
saltbridge:GLU:85    0
Name: 68, dtype: object

>  <halogenbond:GLU:85>  (69) 
halogenbond:GLU:85    0
halogenbond:GLU:85    0
Name: 68, dtype: object

>  <hbond:ALA:86>  (69) 
hbond:ALA:86    0
hbond:ALA:86    0
Name: 68, dtype: object

>  <halogenbond:ALA:86>  (69) 
halogenbond:ALA:86    0
halogenbond:ALA:86    0
Name: 68, dtype: object

>  <hydroph_interaction:ALA:86>  (69) 
hydroph_interaction:ALA:86    0
hydroph_interaction:ALA:86    0
Name: 68, dtype: object

>  <hbond:SER:87>  (69) 
hbond:SER:87    1
hbond:SER:87    1
Name: 68, dtype: object

>  <halogenbond:SER:87>  (69) 
halogenbond:SER:87    0
halogenbond:SER:87    0
Name: 68, dtype: object

>  <hbond:GLU:88>  (69) 
hbond:GLU:88    0
hbond:GLU:88    0
Name: 68, dtype: object

>  <hydroph_interaction:GLU:88>  (69) 
hydroph_interaction:GLU:88    0
hydroph_interaction:GLU:88    0
Name: 68, dtype: object

>  <halogenbond:GLU:88>  (69) 
halogenbond:GLU:88    0
halogenbond:GLU:88    0
Name: 68, dtype: object

>  <saltbridge:GLU:88>  (69) 
saltbridge:GLU:88    0
saltbridge:GLU:88    0
Name: 68, dtype: object

>  <hydroph_interaction:TYR:89>  (69) 
hydroph_interaction:TYR:89    1
hydroph_interaction:TYR:89    1
Name: 68, dtype: object

>  <pistack:TYR:89>  (69) 
pistack:TYR:89    0
pistack:TYR:89    0
Name: 68, dtype: object

>  <hbond:TYR:89>  (69) 
hbond:TYR:89    0
hbond:TYR:89    0
Name: 68, dtype: object

>  <halogenbond:TYR:89>  (69) 
halogenbond:TYR:89    0
halogenbond:TYR:89    0
Name: 68, dtype: object

>  <hbond:TYR:90>  (69) 
hbond:TYR:90    0
hbond:TYR:90    0
Name: 68, dtype: object

>  <hydroph_interaction:TYR:90>  (69) 
hydroph_interaction:TYR:90    2
hydroph_interaction:TYR:90    2
Name: 68, dtype: object

>  <pistack:TYR:90>  (69) 
pistack:TYR:90    0
pistack:TYR:90    0
Name: 68, dtype: object

>  <halogenbond:TYR:90>  (69) 
halogenbond:TYR:90    0
halogenbond:TYR:90    0
Name: 68, dtype: object

>  <pication:TYR:90>  (69) 
pication:TYR:90    0
pication:TYR:90    0
Name: 68, dtype: object

>  <hydroph_interaction:PRO:91>  (69) 
hydroph_interaction:PRO:91    0
hydroph_interaction:PRO:91    0
Name: 68, dtype: object

>  <halogenbond:PRO:91>  (69) 
halogenbond:PRO:91    0
halogenbond:PRO:91    0
Name: 68, dtype: object

>  <hbond:PRO:91>  (69) 
hbond:PRO:91    0
hbond:PRO:91    0
Name: 68, dtype: object

>  <hydroph_interaction:ALA:92>  (69) 
hydroph_interaction:ALA:92    0
hydroph_interaction:ALA:92    0
Name: 68, dtype: object

>  <hbond:ARG:93>  (69) 
hbond:ARG:93    0
hbond:ARG:93    0
Name: 68, dtype: object

>  <pication:ARG:93>  (69) 
pication:ARG:93    0
pication:ARG:93    0
Name: 68, dtype: object

>  <saltbridge:ARG:93>  (69) 
saltbridge:ARG:93    0
saltbridge:ARG:93    0
Name: 68, dtype: object

>  <hydroph_interaction:ARG:93>  (69) 
hydroph_interaction:ARG:93    0
hydroph_interaction:ARG:93    0
Name: 68, dtype: object

>  <halogenbond:ARG:93>  (69) 
halogenbond:ARG:93    0
halogenbond:ARG:93    0
Name: 68, dtype: object

>  <hydroph_interaction:TYR:94>  (69) 
hydroph_interaction:TYR:94    0
hydroph_interaction:TYR:94    0
Name: 68, dtype: object

>  <hbond:TYR:94>  (69) 
hbond:TYR:94    0
hbond:TYR:94    0
Name: 68, dtype: object

>  <halogenbond:GLN:95>  (69) 
halogenbond:GLN:95    0
halogenbond:GLN:95    0
Name: 68, dtype: object

>  <hbond:GLN:95>  (69) 
hbond:GLN:95    0
hbond:GLN:95    0
Name: 68, dtype: object

>  <hydroph_interaction:GLN:95>  (69) 
hydroph_interaction:GLN:95    0
hydroph_interaction:GLN:95    0
Name: 68, dtype: object

>  <hbond:SER:96>  (69) 
hbond:SER:96    0
hbond:SER:96    0
Name: 68, dtype: object

>  <hydroph_interaction:LEU:98>  (69) 
hydroph_interaction:LEU:98    0
hydroph_interaction:LEU:98    0
Name: 68, dtype: object

>  <hbond:LEU:98>  (69) 
hbond:LEU:98    0
hbond:LEU:98    0
Name: 68, dtype: object

>  <hbond:MET:99>  (69) 
hbond:MET:99    0
hbond:MET:99    0
Name: 68, dtype: object

>  <hydroph_interaction:MET:99>  (69) 
hydroph_interaction:MET:99    0
hydroph_interaction:MET:99    0
Name: 68, dtype: object

>  <halogenbond:MET:99>  (69) 
halogenbond:MET:99    0
halogenbond:MET:99    0
Name: 68, dtype: object

>  <hydroph_interaction:LEU:100>  (69) 
hydroph_interaction:LEU:100    0
hydroph_interaction:LEU:100    0
Name: 68, dtype: object

>  <hbond:LEU:100>  (69) 
hbond:LEU:100    0
hbond:LEU:100    0
Name: 68, dtype: object

>  <hbond:ALA:101>  (69) 
hbond:ALA:101    0
hbond:ALA:101    0
Name: 68, dtype: object

>  <hydroph_interaction:ALA:101>  (69) 
hydroph_interaction:ALA:101    0
hydroph_interaction:ALA:101    0
Name: 68, dtype: object

>  <hydroph_interaction:VAL:102>  (69) 
hydroph_interaction:VAL:102    0
hydroph_interaction:VAL:102    0
Name: 68, dtype: object

>  <hbond:VAL:102>  (69) 
hbond:VAL:102    0
hbond:VAL:102    0
Name: 68, dtype: object

>  <hbond:GLY:103>  (69) 
hbond:GLY:103    0
hbond:GLY:103    0
Name: 68, dtype: object

>  <halogenbond:GLY:103>  (69) 
halogenbond:GLY:103    0
halogenbond:GLY:103    0
Name: 68, dtype: object

>  <hydroph_interaction:HIS:104>  (69) 
hydroph_interaction:HIS:104    0
hydroph_interaction:HIS:104    0
Name: 68, dtype: object

>  <hbond:HIS:104>  (69) 
hbond:HIS:104    0
hbond:HIS:104    0
Name: 68, dtype: object

>  <saltbridge:HIS:104>  (69) 
saltbridge:HIS:104    0
saltbridge:HIS:104    0
Name: 68, dtype: object

>  <pication:HIS:104>  (69) 
pication:HIS:104    0
pication:HIS:104    0
Name: 68, dtype: object

>  <pistack:HIS:104>  (69) 
pistack:HIS:104    0
pistack:HIS:104    0
Name: 68, dtype: object

>  <halogenbond:HIS:104>  (69) 
halogenbond:HIS:104    0
halogenbond:HIS:104    0
Name: 68, dtype: object

>  <hbond:SER:105>  (69) 
hbond:SER:105    0
hbond:SER:105    0
Name: 68, dtype: object

>  <halogenbond:SER:105>  (69) 
halogenbond:SER:105    0
halogenbond:SER:105    0
Name: 68, dtype: object

>  <hbond:GLU:106>  (69) 
hbond:GLU:106    0
hbond:GLU:106    0
Name: 68, dtype: object

>  <hydroph_interaction:GLU:106>  (69) 
hydroph_interaction:GLU:106    0
hydroph_interaction:GLU:106    0
Name: 68, dtype: object

>  <saltbridge:GLU:106>  (69) 
saltbridge:GLU:106    0
saltbridge:GLU:106    0
Name: 68, dtype: object

>  <halogenbond:GLU:106>  (69) 
halogenbond:GLU:106    0
halogenbond:GLU:106    0
Name: 68, dtype: object

>  <hydroph_interaction:PRO:107>  (69) 
hydroph_interaction:PRO:107    1
hydroph_interaction:PRO:107    1
Name: 68, dtype: object

>  <hbond:PRO:107>  (69) 
hbond:PRO:107    0
hbond:PRO:107    0
Name: 68, dtype: object

>  <halogenbond:PRO:107>  (69) 
halogenbond:PRO:107    0
halogenbond:PRO:107    0
Name: 68, dtype: object

>  <hbond:GLY:108>  (69) 
hbond:GLY:108    0
hbond:GLY:108    0
Name: 68, dtype: object

>  <halogenbond:GLY:108>  (69) 
halogenbond:GLY:108    0
halogenbond:GLY:108    0
Name: 68, dtype: object

>  <hbond:ASP:109>  (69) 
hbond:ASP:109    0
hbond:ASP:109    0
Name: 68, dtype: object

>  <hydroph_interaction:ASP:109>  (69) 
hydroph_interaction:ASP:109    0
hydroph_interaction:ASP:109    0
Name: 68, dtype: object

>  <saltbridge:ASP:109>  (69) 
saltbridge:ASP:109    0
saltbridge:ASP:109    0
Name: 68, dtype: object

>  <hbond:CYS:110>  (69) 
hbond:CYS:110    0
hbond:CYS:110    0
Name: 68, dtype: object

>  <halogenbond:CYS:110>  (69) 
halogenbond:CYS:110    0
halogenbond:CYS:110    0
Name: 68, dtype: object

>  <hbond:GLY:111>  (69) 
hbond:GLY:111    0
hbond:GLY:111    0
Name: 68, dtype: object

>  <hbond:GLY:112>  (69) 
hbond:GLY:112    0
hbond:GLY:112    0
Name: 68, dtype: object

>  <hbond:ILE:113>  (69) 
hbond:ILE:113    0
hbond:ILE:113    0
Name: 68, dtype: object

>  <hydroph_interaction:LEU:114>  (69) 
hydroph_interaction:LEU:114    0
hydroph_interaction:LEU:114    0
Name: 68, dtype: object

>  <hbond:LEU:114>  (69) 
hbond:LEU:114    0
hbond:LEU:114    0
Name: 68, dtype: object

>  <hydroph_interaction:ILE:123>  (69) 
hydroph_interaction:ILE:123    0
hydroph_interaction:ILE:123    0
Name: 68, dtype: object

>  <hbond:ILE:123>  (69) 
hbond:ILE:123    0
hbond:ILE:123    0
Name: 68, dtype: object

>  <hydroph_interaction:VAL:124>  (69) 
hydroph_interaction:VAL:124    0
hydroph_interaction:VAL:124    0
Name: 68, dtype: object

>  <hbond:VAL:124>  (69) 
hbond:VAL:124    0
hbond:VAL:124    0
Name: 68, dtype: object

>  <halogenbond:VAL:124>  (69) 
halogenbond:VAL:124    0
halogenbond:VAL:124    0
Name: 68, dtype: object

>  <hbond:SER:125>  (69) 
hbond:SER:125    0
hbond:SER:125    0
Name: 68, dtype: object

>  <halogenbond:SER:125>  (69) 
halogenbond:SER:125    0
halogenbond:SER:125    0
Name: 68, dtype: object

>  <hydroph_interaction:THR:126>  (69) 
hydroph_interaction:THR:126    0
hydroph_interaction:THR:126    0
Name: 68, dtype: object

>  <hbond:THR:126>  (69) 
hbond:THR:126    0
hbond:THR:126    0
Name: 68, dtype: object

>  <halogenbond:THR:126>  (69) 
halogenbond:THR:126    0
halogenbond:THR:126    0
Name: 68, dtype: object

>  <hbond:GLY:127>  (69) 
hbond:GLY:127    0
hbond:GLY:127    0
Name: 68, dtype: object

>  <halogenbond:GLY:127>  (69) 
halogenbond:GLY:127    0
halogenbond:GLY:127    0
Name: 68, dtype: object

>  <hydroph_interaction:GLY:127>  (69) 
hydroph_interaction:GLY:127    0
hydroph_interaction:GLY:127    0
Name: 68, dtype: object

>  <hbond:GLY:128>  (69) 
hbond:GLY:128    0
hbond:GLY:128    0
Name: 68, dtype: object

>  <halogenbond:GLY:128>  (69) 
halogenbond:GLY:128    0
halogenbond:GLY:128    0
Name: 68, dtype: object

>  <hydroph_interaction:GLY:128>  (69) 
hydroph_interaction:GLY:128    0
hydroph_interaction:GLY:128    0
Name: 68, dtype: object

>  <hbond:ASN:129>  (69) 
hbond:ASN:129    0
hbond:ASN:129    0
Name: 68, dtype: object

>  <hydroph_interaction:ASN:129>  (69) 
hydroph_interaction:ASN:129    0
hydroph_interaction:ASN:129    0
Name: 68, dtype: object

>  <halogenbond:ASN:129>  (69) 
halogenbond:ASN:129    0
halogenbond:ASN:129    0
Name: 68, dtype: object

>  <hbond:GLY:130>  (69) 
hbond:GLY:130    0
hbond:GLY:130    0
Name: 68, dtype: object

>  <hydroph_interaction:LEU:131>  (69) 
hydroph_interaction:LEU:131    0
hydroph_interaction:LEU:131    0
Name: 68, dtype: object

>  <hbond:LEU:131>  (69) 
hbond:LEU:131    0
hbond:LEU:131    0
Name: 68, dtype: object

>  <halogenbond:LEU:131>  (69) 
halogenbond:LEU:131    0
halogenbond:LEU:131    0
Name: 68, dtype: object

>  <hydroph_interaction:VAL:132>  (69) 
hydroph_interaction:VAL:132    0
hydroph_interaction:VAL:132    0
Name: 68, dtype: object

>  <hbond:VAL:132>  (69) 
hbond:VAL:132    0
hbond:VAL:132    0
Name: 68, dtype: object

>  <hbond:GLY:133>  (69) 
hbond:GLY:133    0
hbond:GLY:133    0
Name: 68, dtype: object

>  <halogenbond:GLY:133>  (69) 
halogenbond:GLY:133    0
halogenbond:GLY:133    0
Name: 68, dtype: object

>  <hydroph_interaction:PHE:134>  (69) 
hydroph_interaction:PHE:134    0
hydroph_interaction:PHE:134    0
Name: 68, dtype: object

>  <hbond:PHE:134>  (69) 
hbond:PHE:134    0
hbond:PHE:134    0
Name: 68, dtype: object

>  <pistack:PHE:134>  (69) 
pistack:PHE:134    0
pistack:PHE:134    0
Name: 68, dtype: object

>  <pication:PHE:134>  (69) 
pication:PHE:134    0
pication:PHE:134    0
Name: 68, dtype: object

>  <hydroph_interaction:ALA:135>  (69) 
hydroph_interaction:ALA:135    0
hydroph_interaction:ALA:135    0
Name: 68, dtype: object

>  <hbond:ALA:135>  (69) 
hbond:ALA:135    0
hbond:ALA:135    0
Name: 68, dtype: object

$$$$
PV_007024148190
     RDKit          3D

 25 24  0  0  0  0  0  0  0  0999 V2000
    4.2600   12.9290   16.9510 C   0  0  0  0  0  0  0  0  0  0  0  0
    3.3640   12.1850   17.9300 C   0  0  0  0  0  0  0  0  0  0  0  0
    4.0870   11.2130   18.8550 C   0  0  0  0  0  0  0  0  0  0  0  0
    3.2580   10.3270   19.4870 N   0  0  0  0  0  0  0  0  0  0  0  0
    2.6120   13.1680   18.6590 N   0  0  0  0  0  0  0  0  0  0  0  0
    1.5660   12.7110   19.5470 C   0  0  1  0  0  0  0  0  0  0  0  0
    2.1180   11.9660   20.7820 C   0  0  0  0  0  0  0  0  0  0  0  0
    0.7490   13.9980   19.8800 C   0  0  0  0  0  0  0  0  0  0  0  0
    1.5240   14.9090   20.6680 O   0  0  0  0  0  0  0  0  0  0  0  0
    3.7810   13.8590   16.6300 H   0  0  0  0  0  0  0  0  0  0  0  0
    4.4650   12.3540   16.0540 H   0  0  0  0  0  0  0  0  0  0  0  0
    5.2090   13.1770   17.4170 H   0  0  0  0  0  0  0  0  0  0  0  0
    2.6340   11.6050   17.3590 H   0  0  0  0  0  0  0  0  0  0  0  0
    4.7780   10.5790   18.3140 H   0  0  0  0  0  0  0  0  0  0  0  0
    4.6470   11.7650   19.6100 H   0  0  0  0  0  0  0  0  0  0  0  0
    3.2820   10.5040   20.4920 H   0  0  0  0  0  0  0  0  0  0  0  0
    3.6280    9.3970   19.3600 H   0  0  0  0  0  0  0  0  0  0  0  0
    2.2400   13.8910   18.0330 H   0  0  0  0  0  0  0  0  0  0  0  0
    0.8900   12.0400   19.0040 H   0  0  0  0  0  0  0  0  0  0  0  0
    1.7900   12.4360   21.7130 H   0  0  0  0  0  0  0  0  0  0  0  0
    1.7890   10.9300   20.8140 H   0  0  0  0  0  0  0  0  0  0  0  0
    3.2080   11.9780   20.8010 H   0  0  0  0  0  0  0  0  0  0  0  0
   -0.1540   13.7430   20.4490 H   0  0  0  0  0  0  0  0  0  0  0  0
    0.4340   14.5140   18.9650 H   0  0  0  0  0  0  0  0  0  0  0  0
    1.0460   15.0480   21.5040 H   0  0  0  0  0  0  0  0  0  0  0  0
  1  2  1  0
  2  3  1  0
  3  4  1  0
  2  5  1  0
  5  6  1  0
  6  7  1  0
  6  8  1  0
  8  9  1  0
  1 10  1  0
  1 11  1  0
  1 12  1  0
  2 13  1  0
  3 14  1  0
  3 15  1  0
  4 16  1  0
  4 17  1  0
  5 18  1  0
  6 19  1  6
  7 20  1  0
  7 21  1  0
  7 22  1  0
  8 23  1  0
  8 24  1  0
  9 25  1  0
A    1
 C1 
A    2
 C2 
A    3
 C3 
A    4
 N1 
A    5
 N2 
A    6
 C4 
A    7
 C5 
A    8
 C6 
A    9
 O1 
A   10
 H1 
A   11
 H2 
A   12
 H3 
A   13
 H4 
A   14
 H5 
A   15
 H6 
A   16
 H7 
A   17
 H8 
A   18
 H9 
A   19
 H10
A   20
 H11
A   21
 H12
A   22
 H13
A   23
 H14
A   24
 H15
A   25
 H16
M  END
>  <ref_pdb>  (70) 
x0310_0A

>  <ref_mols>  (70) 
x0473_0A,x0556_0A

>  <original SMILES>  (70) 
CC(CN)N[C@@H](C)CO

>  <rationale>  (70) 
info hbond:E85+L131+F83; hydroph_interaction:V84+I82+L100+L98; 

>  <intxn_cluster>  (70) 
201

>  <intxn_cluster_rank>  (70) 
21

>  <N_interactions>  (70) 
7

>  <∆∆G>  (70) 
-6.642768

>  <$/mg>  (70) 
nan

>  <comRMSD>  (70) 
0.69118

>  <N_rotatable_bonds>  (70) 
8

>  <N_analogues_07>  (70) 
0

>  <deep_P1_sidechain>  (70) 
False

>  <farthest_distance_to_substrate>  (70) 
3.677268

>  <hbond:SER:7>  (70) 
hbond:SER:7    0
hbond:SER:7    0
Name: 69, dtype: object

>  <halogenbond:SER:7>  (70) 
halogenbond:SER:7    0
halogenbond:SER:7    0
Name: 69, dtype: object

>  <hbond:GLY:8>  (70) 
hbond:GLY:8    0
hbond:GLY:8    0
Name: 69, dtype: object

>  <hydroph_interaction:ASN:19>  (70) 
hydroph_interaction:ASN:19    0
hydroph_interaction:ASN:19    0
Name: 69, dtype: object

>  <hbond:ASN:19>  (70) 
hbond:ASN:19    0
hbond:ASN:19    0
Name: 69, dtype: object

>  <halogenbond:ASN:19>  (70) 
halogenbond:ASN:19    0
halogenbond:ASN:19    0
Name: 69, dtype: object

>  <hbond:ARG:20>  (70) 
hbond:ARG:20    0
hbond:ARG:20    0
Name: 69, dtype: object

>  <hydroph_interaction:ARG:20>  (70) 
hydroph_interaction:ARG:20    0
hydroph_interaction:ARG:20    0
Name: 69, dtype: object

>  <saltbridge:ARG:20>  (70) 
saltbridge:ARG:20    0
saltbridge:ARG:20    0
Name: 69, dtype: object

>  <halogenbond:ARG:20>  (70) 
halogenbond:ARG:20    0
halogenbond:ARG:20    0
Name: 69, dtype: object

>  <pication:ARG:20>  (70) 
pication:ARG:20    0
pication:ARG:20    0
Name: 69, dtype: object

>  <hbond:HIS:21>  (70) 
hbond:HIS:21    0
hbond:HIS:21    0
Name: 69, dtype: object

>  <hydroph_interaction:HIS:21>  (70) 
hydroph_interaction:HIS:21    0
hydroph_interaction:HIS:21    0
Name: 69, dtype: object

>  <saltbridge:HIS:21>  (70) 
saltbridge:HIS:21    0
saltbridge:HIS:21    0
Name: 69, dtype: object

>  <pistack:HIS:21>  (70) 
pistack:HIS:21    0
pistack:HIS:21    0
Name: 69, dtype: object

>  <pication:HIS:21>  (70) 
pication:HIS:21    0
pication:HIS:21    0
Name: 69, dtype: object

>  <halogenbond:HIS:21>  (70) 
halogenbond:HIS:21    0
halogenbond:HIS:21    0
Name: 69, dtype: object

>  <hydroph_interaction:LEU:22>  (70) 
hydroph_interaction:LEU:22    0
hydroph_interaction:LEU:22    0
Name: 69, dtype: object

>  <hbond:LEU:22>  (70) 
hbond:LEU:22    0
hbond:LEU:22    0
Name: 69, dtype: object

>  <hydroph_interaction:TRP:28>  (70) 
hydroph_interaction:TRP:28    0
hydroph_interaction:TRP:28    0
Name: 69, dtype: object

>  <hbond:SER:36>  (70) 
hbond:SER:36    0
hbond:SER:36    0
Name: 69, dtype: object

>  <halogenbond:SER:36>  (70) 
halogenbond:SER:36    0
halogenbond:SER:36    0
Name: 69, dtype: object

>  <hbond:ARG:38>  (70) 
hbond:ARG:38    0
hbond:ARG:38    0
Name: 69, dtype: object

>  <halogenbond:ARG:38>  (70) 
halogenbond:ARG:38    0
halogenbond:ARG:38    0
Name: 69, dtype: object

>  <hbond:ASP:39>  (70) 
hbond:ASP:39    0
hbond:ASP:39    0
Name: 69, dtype: object

>  <saltbridge:ASP:39>  (70) 
saltbridge:ASP:39    0
saltbridge:ASP:39    0
Name: 69, dtype: object

>  <hydroph_interaction:ASP:39>  (70) 
hydroph_interaction:ASP:39    0
hydroph_interaction:ASP:39    0
Name: 69, dtype: object

>  <halogenbond:ASP:39>  (70) 
halogenbond:ASP:39    0
halogenbond:ASP:39    0
Name: 69, dtype: object

>  <hydroph_interaction:LEU:40>  (70) 
hydroph_interaction:LEU:40    0
hydroph_interaction:LEU:40    0
Name: 69, dtype: object

>  <hydroph_interaction:TYR:63>  (70) 
hydroph_interaction:TYR:63    0
hydroph_interaction:TYR:63    0
Name: 69, dtype: object

>  <pistack:TYR:63>  (70) 
pistack:TYR:63    0
pistack:TYR:63    0
Name: 69, dtype: object

>  <hbond:TYR:63>  (70) 
hbond:TYR:63    0
hbond:TYR:63    0
Name: 69, dtype: object

>  <hbond:TYR:64>  (70) 
hbond:TYR:64    0
hbond:TYR:64    0
Name: 69, dtype: object

>  <halogenbond:TYR:64>  (70) 
halogenbond:TYR:64    0
halogenbond:TYR:64    0
Name: 69, dtype: object

>  <hydroph_interaction:TYR:64>  (70) 
hydroph_interaction:TYR:64    0
hydroph_interaction:TYR:64    0
Name: 69, dtype: object

>  <hbond:CYS:65>  (70) 
hbond:CYS:65    0
hbond:CYS:65    0
Name: 69, dtype: object

>  <halogenbond:CYS:65>  (70) 
halogenbond:CYS:65    0
halogenbond:CYS:65    0
Name: 69, dtype: object

>  <hbond:SER:66>  (70) 
hbond:SER:66    0
hbond:SER:66    0
Name: 69, dtype: object

>  <hbond:SER:67>  (70) 
hbond:SER:67    0
hbond:SER:67    0
Name: 69, dtype: object

>  <halogenbond:SER:67>  (70) 
halogenbond:SER:67    0
halogenbond:SER:67    0
Name: 69, dtype: object

>  <hydroph_interaction:ARG:68>  (70) 
hydroph_interaction:ARG:68    0
hydroph_interaction:ARG:68    0
Name: 69, dtype: object

>  <hbond:ARG:68>  (70) 
hbond:ARG:68    0
hbond:ARG:68    0
Name: 69, dtype: object

>  <saltbridge:ARG:68>  (70) 
saltbridge:ARG:68    0
saltbridge:ARG:68    0
Name: 69, dtype: object

>  <pication:ARG:68>  (70) 
pication:ARG:68    0
pication:ARG:68    0
Name: 69, dtype: object

>  <hydroph_interaction:TYR:72>  (70) 
hydroph_interaction:TYR:72    0
hydroph_interaction:TYR:72    0
Name: 69, dtype: object

>  <hydroph_interaction:VAL:74>  (70) 
hydroph_interaction:VAL:74    0
hydroph_interaction:VAL:74    0
Name: 69, dtype: object

>  <hydroph_interaction:PHE:76>  (70) 
hydroph_interaction:PHE:76    0
hydroph_interaction:PHE:76    0
Name: 69, dtype: object

>  <hbond:SER:77>  (70) 
hbond:SER:77    0
hbond:SER:77    0
Name: 69, dtype: object

>  <hbond:SER:80>  (70) 
hbond:SER:80    0
hbond:SER:80    0
Name: 69, dtype: object

>  <hbond:LEU:81>  (70) 
hbond:LEU:81    0
hbond:LEU:81    0
Name: 69, dtype: object

>  <halogenbond:LEU:81>  (70) 
halogenbond:LEU:81    0
halogenbond:LEU:81    0
Name: 69, dtype: object

>  <hydroph_interaction:LEU:81>  (70) 
hydroph_interaction:LEU:81    0
hydroph_interaction:LEU:81    0
Name: 69, dtype: object

>  <hydroph_interaction:ILE:82>  (70) 
hydroph_interaction:ILE:82    1
hydroph_interaction:ILE:82    1
Name: 69, dtype: object

>  <hbond:ILE:82>  (70) 
hbond:ILE:82    0
hbond:ILE:82    0
Name: 69, dtype: object

>  <hydroph_interaction:PHE:83>  (70) 
hydroph_interaction:PHE:83    0
hydroph_interaction:PHE:83    0
Name: 69, dtype: object

>  <hbond:PHE:83>  (70) 
hbond:PHE:83    1
hbond:PHE:83    1
Name: 69, dtype: object

>  <halogenbond:PHE:83>  (70) 
halogenbond:PHE:83    0
halogenbond:PHE:83    0
Name: 69, dtype: object

>  <pistack:PHE:83>  (70) 
pistack:PHE:83    0
pistack:PHE:83    0
Name: 69, dtype: object

>  <hydroph_interaction:VAL:84>  (70) 
hydroph_interaction:VAL:84    1
hydroph_interaction:VAL:84    1
Name: 69, dtype: object

>  <hbond:VAL:84>  (70) 
hbond:VAL:84    0
hbond:VAL:84    0
Name: 69, dtype: object

>  <halogenbond:VAL:84>  (70) 
halogenbond:VAL:84    0
halogenbond:VAL:84    0
Name: 69, dtype: object

>  <hydroph_interaction:GLU:85>  (70) 
hydroph_interaction:GLU:85    0
hydroph_interaction:GLU:85    0
Name: 69, dtype: object

>  <hbond:GLU:85>  (70) 
hbond:GLU:85    1
hbond:GLU:85    1
Name: 69, dtype: object

>  <saltbridge:GLU:85>  (70) 
saltbridge:GLU:85    0
saltbridge:GLU:85    0
Name: 69, dtype: object

>  <halogenbond:GLU:85>  (70) 
halogenbond:GLU:85    0
halogenbond:GLU:85    0
Name: 69, dtype: object

>  <hbond:ALA:86>  (70) 
hbond:ALA:86    0
hbond:ALA:86    0
Name: 69, dtype: object

>  <halogenbond:ALA:86>  (70) 
halogenbond:ALA:86    0
halogenbond:ALA:86    0
Name: 69, dtype: object

>  <hydroph_interaction:ALA:86>  (70) 
hydroph_interaction:ALA:86    0
hydroph_interaction:ALA:86    0
Name: 69, dtype: object

>  <hbond:SER:87>  (70) 
hbond:SER:87    0
hbond:SER:87    0
Name: 69, dtype: object

>  <halogenbond:SER:87>  (70) 
halogenbond:SER:87    0
halogenbond:SER:87    0
Name: 69, dtype: object

>  <hbond:GLU:88>  (70) 
hbond:GLU:88    0
hbond:GLU:88    0
Name: 69, dtype: object

>  <hydroph_interaction:GLU:88>  (70) 
hydroph_interaction:GLU:88    0
hydroph_interaction:GLU:88    0
Name: 69, dtype: object

>  <halogenbond:GLU:88>  (70) 
halogenbond:GLU:88    0
halogenbond:GLU:88    0
Name: 69, dtype: object

>  <saltbridge:GLU:88>  (70) 
saltbridge:GLU:88    0
saltbridge:GLU:88    0
Name: 69, dtype: object

>  <hydroph_interaction:TYR:89>  (70) 
hydroph_interaction:TYR:89    0
hydroph_interaction:TYR:89    0
Name: 69, dtype: object

>  <pistack:TYR:89>  (70) 
pistack:TYR:89    0
pistack:TYR:89    0
Name: 69, dtype: object

>  <hbond:TYR:89>  (70) 
hbond:TYR:89    0
hbond:TYR:89    0
Name: 69, dtype: object

>  <halogenbond:TYR:89>  (70) 
halogenbond:TYR:89    0
halogenbond:TYR:89    0
Name: 69, dtype: object

>  <hbond:TYR:90>  (70) 
hbond:TYR:90    0
hbond:TYR:90    0
Name: 69, dtype: object

>  <hydroph_interaction:TYR:90>  (70) 
hydroph_interaction:TYR:90    0
hydroph_interaction:TYR:90    0
Name: 69, dtype: object

>  <pistack:TYR:90>  (70) 
pistack:TYR:90    0
pistack:TYR:90    0
Name: 69, dtype: object

>  <halogenbond:TYR:90>  (70) 
halogenbond:TYR:90    0
halogenbond:TYR:90    0
Name: 69, dtype: object

>  <pication:TYR:90>  (70) 
pication:TYR:90    0
pication:TYR:90    0
Name: 69, dtype: object

>  <hydroph_interaction:PRO:91>  (70) 
hydroph_interaction:PRO:91    0
hydroph_interaction:PRO:91    0
Name: 69, dtype: object

>  <halogenbond:PRO:91>  (70) 
halogenbond:PRO:91    0
halogenbond:PRO:91    0
Name: 69, dtype: object

>  <hbond:PRO:91>  (70) 
hbond:PRO:91    0
hbond:PRO:91    0
Name: 69, dtype: object

>  <hydroph_interaction:ALA:92>  (70) 
hydroph_interaction:ALA:92    0
hydroph_interaction:ALA:92    0
Name: 69, dtype: object

>  <hbond:ARG:93>  (70) 
hbond:ARG:93    0
hbond:ARG:93    0
Name: 69, dtype: object

>  <pication:ARG:93>  (70) 
pication:ARG:93    0
pication:ARG:93    0
Name: 69, dtype: object

>  <saltbridge:ARG:93>  (70) 
saltbridge:ARG:93    0
saltbridge:ARG:93    0
Name: 69, dtype: object

>  <hydroph_interaction:ARG:93>  (70) 
hydroph_interaction:ARG:93    0
hydroph_interaction:ARG:93    0
Name: 69, dtype: object

>  <halogenbond:ARG:93>  (70) 
halogenbond:ARG:93    0
halogenbond:ARG:93    0
Name: 69, dtype: object

>  <hydroph_interaction:TYR:94>  (70) 
hydroph_interaction:TYR:94    0
hydroph_interaction:TYR:94    0
Name: 69, dtype: object

>  <hbond:TYR:94>  (70) 
hbond:TYR:94    0
hbond:TYR:94    0
Name: 69, dtype: object

>  <halogenbond:GLN:95>  (70) 
halogenbond:GLN:95    0
halogenbond:GLN:95    0
Name: 69, dtype: object

>  <hbond:GLN:95>  (70) 
hbond:GLN:95    0
hbond:GLN:95    0
Name: 69, dtype: object

>  <hydroph_interaction:GLN:95>  (70) 
hydroph_interaction:GLN:95    0
hydroph_interaction:GLN:95    0
Name: 69, dtype: object

>  <hbond:SER:96>  (70) 
hbond:SER:96    0
hbond:SER:96    0
Name: 69, dtype: object

>  <hydroph_interaction:LEU:98>  (70) 
hydroph_interaction:LEU:98    1
hydroph_interaction:LEU:98    1
Name: 69, dtype: object

>  <hbond:LEU:98>  (70) 
hbond:LEU:98    0
hbond:LEU:98    0
Name: 69, dtype: object

>  <hbond:MET:99>  (70) 
hbond:MET:99    0
hbond:MET:99    0
Name: 69, dtype: object

>  <hydroph_interaction:MET:99>  (70) 
hydroph_interaction:MET:99    0
hydroph_interaction:MET:99    0
Name: 69, dtype: object

>  <halogenbond:MET:99>  (70) 
halogenbond:MET:99    0
halogenbond:MET:99    0
Name: 69, dtype: object

>  <hydroph_interaction:LEU:100>  (70) 
hydroph_interaction:LEU:100    1
hydroph_interaction:LEU:100    1
Name: 69, dtype: object

>  <hbond:LEU:100>  (70) 
hbond:LEU:100    0
hbond:LEU:100    0
Name: 69, dtype: object

>  <hbond:ALA:101>  (70) 
hbond:ALA:101    0
hbond:ALA:101    0
Name: 69, dtype: object

>  <hydroph_interaction:ALA:101>  (70) 
hydroph_interaction:ALA:101    0
hydroph_interaction:ALA:101    0
Name: 69, dtype: object

>  <hydroph_interaction:VAL:102>  (70) 
hydroph_interaction:VAL:102    0
hydroph_interaction:VAL:102    0
Name: 69, dtype: object

>  <hbond:VAL:102>  (70) 
hbond:VAL:102    0
hbond:VAL:102    0
Name: 69, dtype: object

>  <hbond:GLY:103>  (70) 
hbond:GLY:103    0
hbond:GLY:103    0
Name: 69, dtype: object

>  <halogenbond:GLY:103>  (70) 
halogenbond:GLY:103    0
halogenbond:GLY:103    0
Name: 69, dtype: object

>  <hydroph_interaction:HIS:104>  (70) 
hydroph_interaction:HIS:104    0
hydroph_interaction:HIS:104    0
Name: 69, dtype: object

>  <hbond:HIS:104>  (70) 
hbond:HIS:104    0
hbond:HIS:104    0
Name: 69, dtype: object

>  <saltbridge:HIS:104>  (70) 
saltbridge:HIS:104    0
saltbridge:HIS:104    0
Name: 69, dtype: object

>  <pication:HIS:104>  (70) 
pication:HIS:104    0
pication:HIS:104    0
Name: 69, dtype: object

>  <pistack:HIS:104>  (70) 
pistack:HIS:104    0
pistack:HIS:104    0
Name: 69, dtype: object

>  <halogenbond:HIS:104>  (70) 
halogenbond:HIS:104    0
halogenbond:HIS:104    0
Name: 69, dtype: object

>  <hbond:SER:105>  (70) 
hbond:SER:105    0
hbond:SER:105    0
Name: 69, dtype: object

>  <halogenbond:SER:105>  (70) 
halogenbond:SER:105    0
halogenbond:SER:105    0
Name: 69, dtype: object

>  <hbond:GLU:106>  (70) 
hbond:GLU:106    0
hbond:GLU:106    0
Name: 69, dtype: object

>  <hydroph_interaction:GLU:106>  (70) 
hydroph_interaction:GLU:106    0
hydroph_interaction:GLU:106    0
Name: 69, dtype: object

>  <saltbridge:GLU:106>  (70) 
saltbridge:GLU:106    0
saltbridge:GLU:106    0
Name: 69, dtype: object

>  <halogenbond:GLU:106>  (70) 
halogenbond:GLU:106    0
halogenbond:GLU:106    0
Name: 69, dtype: object

>  <hydroph_interaction:PRO:107>  (70) 
hydroph_interaction:PRO:107    0
hydroph_interaction:PRO:107    0
Name: 69, dtype: object

>  <hbond:PRO:107>  (70) 
hbond:PRO:107    0
hbond:PRO:107    0
Name: 69, dtype: object

>  <halogenbond:PRO:107>  (70) 
halogenbond:PRO:107    0
halogenbond:PRO:107    0
Name: 69, dtype: object

>  <hbond:GLY:108>  (70) 
hbond:GLY:108    0
hbond:GLY:108    0
Name: 69, dtype: object

>  <halogenbond:GLY:108>  (70) 
halogenbond:GLY:108    0
halogenbond:GLY:108    0
Name: 69, dtype: object

>  <hbond:ASP:109>  (70) 
hbond:ASP:109    0
hbond:ASP:109    0
Name: 69, dtype: object

>  <hydroph_interaction:ASP:109>  (70) 
hydroph_interaction:ASP:109    0
hydroph_interaction:ASP:109    0
Name: 69, dtype: object

>  <saltbridge:ASP:109>  (70) 
saltbridge:ASP:109    0
saltbridge:ASP:109    0
Name: 69, dtype: object

>  <hbond:CYS:110>  (70) 
hbond:CYS:110    0
hbond:CYS:110    0
Name: 69, dtype: object

>  <halogenbond:CYS:110>  (70) 
halogenbond:CYS:110    0
halogenbond:CYS:110    0
Name: 69, dtype: object

>  <hbond:GLY:111>  (70) 
hbond:GLY:111    0
hbond:GLY:111    0
Name: 69, dtype: object

>  <hbond:GLY:112>  (70) 
hbond:GLY:112    0
hbond:GLY:112    0
Name: 69, dtype: object

>  <hbond:ILE:113>  (70) 
hbond:ILE:113    0
hbond:ILE:113    0
Name: 69, dtype: object

>  <hydroph_interaction:LEU:114>  (70) 
hydroph_interaction:LEU:114    0
hydroph_interaction:LEU:114    0
Name: 69, dtype: object

>  <hbond:LEU:114>  (70) 
hbond:LEU:114    0
hbond:LEU:114    0
Name: 69, dtype: object

>  <hydroph_interaction:ILE:123>  (70) 
hydroph_interaction:ILE:123    0
hydroph_interaction:ILE:123    0
Name: 69, dtype: object

>  <hbond:ILE:123>  (70) 
hbond:ILE:123    0
hbond:ILE:123    0
Name: 69, dtype: object

>  <hydroph_interaction:VAL:124>  (70) 
hydroph_interaction:VAL:124    0
hydroph_interaction:VAL:124    0
Name: 69, dtype: object

>  <hbond:VAL:124>  (70) 
hbond:VAL:124    0
hbond:VAL:124    0
Name: 69, dtype: object

>  <halogenbond:VAL:124>  (70) 
halogenbond:VAL:124    0
halogenbond:VAL:124    0
Name: 69, dtype: object

>  <hbond:SER:125>  (70) 
hbond:SER:125    0
hbond:SER:125    0
Name: 69, dtype: object

>  <halogenbond:SER:125>  (70) 
halogenbond:SER:125    0
halogenbond:SER:125    0
Name: 69, dtype: object

>  <hydroph_interaction:THR:126>  (70) 
hydroph_interaction:THR:126    0
hydroph_interaction:THR:126    0
Name: 69, dtype: object

>  <hbond:THR:126>  (70) 
hbond:THR:126    0
hbond:THR:126    0
Name: 69, dtype: object

>  <halogenbond:THR:126>  (70) 
halogenbond:THR:126    0
halogenbond:THR:126    0
Name: 69, dtype: object

>  <hbond:GLY:127>  (70) 
hbond:GLY:127    0
hbond:GLY:127    0
Name: 69, dtype: object

>  <halogenbond:GLY:127>  (70) 
halogenbond:GLY:127    0
halogenbond:GLY:127    0
Name: 69, dtype: object

>  <hydroph_interaction:GLY:127>  (70) 
hydroph_interaction:GLY:127    0
hydroph_interaction:GLY:127    0
Name: 69, dtype: object

>  <hbond:GLY:128>  (70) 
hbond:GLY:128    0
hbond:GLY:128    0
Name: 69, dtype: object

>  <halogenbond:GLY:128>  (70) 
halogenbond:GLY:128    0
halogenbond:GLY:128    0
Name: 69, dtype: object

>  <hydroph_interaction:GLY:128>  (70) 
hydroph_interaction:GLY:128    0
hydroph_interaction:GLY:128    0
Name: 69, dtype: object

>  <hbond:ASN:129>  (70) 
hbond:ASN:129    0
hbond:ASN:129    0
Name: 69, dtype: object

>  <hydroph_interaction:ASN:129>  (70) 
hydroph_interaction:ASN:129    0
hydroph_interaction:ASN:129    0
Name: 69, dtype: object

>  <halogenbond:ASN:129>  (70) 
halogenbond:ASN:129    0
halogenbond:ASN:129    0
Name: 69, dtype: object

>  <hbond:GLY:130>  (70) 
hbond:GLY:130    0
hbond:GLY:130    0
Name: 69, dtype: object

>  <hydroph_interaction:LEU:131>  (70) 
hydroph_interaction:LEU:131    0
hydroph_interaction:LEU:131    0
Name: 69, dtype: object

>  <hbond:LEU:131>  (70) 
hbond:LEU:131    1
hbond:LEU:131    1
Name: 69, dtype: object

>  <halogenbond:LEU:131>  (70) 
halogenbond:LEU:131    0
halogenbond:LEU:131    0
Name: 69, dtype: object

>  <hydroph_interaction:VAL:132>  (70) 
hydroph_interaction:VAL:132    0
hydroph_interaction:VAL:132    0
Name: 69, dtype: object

>  <hbond:VAL:132>  (70) 
hbond:VAL:132    0
hbond:VAL:132    0
Name: 69, dtype: object

>  <hbond:GLY:133>  (70) 
hbond:GLY:133    0
hbond:GLY:133    0
Name: 69, dtype: object

>  <halogenbond:GLY:133>  (70) 
halogenbond:GLY:133    0
halogenbond:GLY:133    0
Name: 69, dtype: object

>  <hydroph_interaction:PHE:134>  (70) 
hydroph_interaction:PHE:134    0
hydroph_interaction:PHE:134    0
Name: 69, dtype: object

>  <hbond:PHE:134>  (70) 
hbond:PHE:134    0
hbond:PHE:134    0
Name: 69, dtype: object

>  <pistack:PHE:134>  (70) 
pistack:PHE:134    0
pistack:PHE:134    0
Name: 69, dtype: object

>  <pication:PHE:134>  (70) 
pication:PHE:134    0
pication:PHE:134    0
Name: 69, dtype: object

>  <hydroph_interaction:ALA:135>  (70) 
hydroph_interaction:ALA:135    0
hydroph_interaction:ALA:135    0
Name: 69, dtype: object

>  <hbond:ALA:135>  (70) 
hbond:ALA:135    0
hbond:ALA:135    0
Name: 69, dtype: object

$$$$
PV_003009804666
     RDKit          3D

 31 32  0  0  0  0  0  0  0  0999 V2000
    7.1950   10.6890   25.3170 C   0  0  0  0  0  0  0  0  0  0  0  0
    8.3410   11.0670   24.4580 C   0  0  0  0  0  0  0  0  0  0  0  0
    8.9540   10.1860   23.6460 N   0  0  0  0  0  0  0  0  0  0  0  0
   10.1780   10.9330   22.8490 S   0  0  0  0  0  0  0  0  0  0  0  0
    9.9310   12.4580   23.5620 C   0  0  0  0  0  0  0  0  0  0  0  0
   10.7780   13.6490   23.2520 C   0  0  0  0  0  0  0  0  0  0  0  0
   11.1030   13.7170   21.8610 N   0  0  0  0  0  0  0  0  0  0  0  0
   12.1600   14.4910   21.4750 C   0  0  0  0  0  0  0  0  0  0  0  0
   13.0280   15.1700   22.4000 O   0  0  0  0  0  0  0  0  0  0  0  0
   12.3360   14.5820   20.0470 C   0  0  0  0  0  0  0  0  0  0  0  0
   11.3030   15.2360   19.3600 C   0  0  0  0  0  0  0  0  0  0  0  0
   10.2120   15.9410   20.1070 C   0  0  0  0  0  0  0  0  0  0  0  0
    9.1760   16.6470   19.4680 C   0  0  0  0  0  0  0  0  0  0  0  0
    9.1040   16.7260   18.0860 C   0  0  0  0  0  0  0  0  0  0  0  0
   10.1580   16.0250   17.3540 C   0  0  0  0  0  0  0  0  0  0  0  0
   11.2600   15.2720   17.9810 C   0  0  0  0  0  0  0  0  0  0  0  0
    8.8730   12.3740   24.4280 C   0  0  0  0  0  0  0  0  0  0  0  0
    6.8150    9.7120   25.0490 H   0  0  0  0  0  0  0  0  0  0  0  0
    6.3780   11.4090   25.2240 H   0  0  0  0  0  0  0  0  0  0  0  0
    7.4790   10.6720   26.3610 H   0  0  0  0  0  0  0  0  0  0  0  0
   10.2870   14.5700   23.5700 H   0  0  0  0  0  0  0  0  0  0  0  0
   11.7120   13.5440   23.8170 H   0  0  0  0  0  0  0  0  0  0  0  0
   10.9240   12.9020   21.2730 H   0  0  0  0  0  0  0  0  0  0  0  0
   12.4770   13.5990   19.6180 H   0  0  0  0  0  0  0  0  0  0  0  0
   13.2440   15.0570   19.7420 H   0  0  0  0  0  0  0  0  0  0  0  0
   10.2440   15.9000   21.1830 H   0  0  0  0  0  0  0  0  0  0  0  0
    8.4150   17.1420   20.0630 H   0  0  0  0  0  0  0  0  0  0  0  0
    8.3480   17.2480   17.5180 H   0  0  0  0  0  0  0  0  0  0  0  0
    9.9720   16.1680   16.3000 H   0  0  0  0  0  0  0  0  0  0  0  0
   12.0190   14.7690   17.4150 H   0  0  0  0  0  0  0  0  0  0  0  0
    8.5190   13.2220   25.0070 H   0  0  0  0  0  0  0  0  0  0  0  0
  1  2  1  0
  2  3  2  0
  3  4  1  0
  4  5  1  0
  5  6  1  0
  6  7  1  0
  7  8  1  0
  8  9  2  0
  8 10  1  0
 10 11  1  0
 11 12  2  0
 12 13  1  0
 13 14  2  0
 14 15  1  0
 15 16  2  0
  5 17  2  0
 17  2  1  0
 16 11  1  0
  1 18  1  0
  1 19  1  0
  1 20  1  0
  6 21  1  0
  6 22  1  0
  7 23  1  0
 10 24  1  0
 10 25  1  0
 12 26  1  0
 13 27  1  0
 14 28  1  0
 15 29  1  0
 16 30  1  0
 17 31  1  0
A    1
 C1 
A    2
 C2 
A    3
 N1 
A    4
 S1 
A    5
 C3 
A    6
 C4 
A    7
 N2 
A    8
 C5 
A    9
 O1 
A   10
 C6 
A   11
 C7 
A   12
 C8 
A   13
 C9 
A   14
 C10
A   15
 C11
A   16
 C12
A   17
 C13
A   18
 H1 
A   19
 H2 
A   20
 H3 
A   21
 H4 
A   22
 H5 
A   23
 H6 
A   24
 H7 
A   25
 H8 
A   26
 H9 
A   27
 H10
A   28
 H11
A   29
 H12
A   30
 H13
A   31
 H14
M  END
>  <ref_pdb>  (71) 
x0310_0A

>  <ref_mols>  (71) 
x0451_0A,x0416_0A

>  <original SMILES>  (71) 
Cc1cc(CNC(=O)Cc2ccccc2)sn1

>  <rationale>  (71) 
info hbond:S125; hydroph_interaction:P107+Y90+T126+V84+D39+Q95; 

>  <intxn_cluster>  (71) 
206

>  <intxn_cluster_rank>  (71) 
21

>  <N_interactions>  (71) 
8

>  <∆∆G>  (71) 
-10.191633

>  <$/mg>  (71) 
163.0

>  <comRMSD>  (71) 
0.619901

>  <N_rotatable_bonds>  (71) 
5

>  <N_analogues_07>  (71) 
0

>  <deep_P1_sidechain>  (71) 
False

>  <farthest_distance_to_substrate>  (71) 
2.698379

>  <hbond:SER:7>  (71) 
hbond:SER:7    0
hbond:SER:7    0
Name: 70, dtype: object

>  <halogenbond:SER:7>  (71) 
halogenbond:SER:7    0
halogenbond:SER:7    0
Name: 70, dtype: object

>  <hbond:GLY:8>  (71) 
hbond:GLY:8    0
hbond:GLY:8    0
Name: 70, dtype: object

>  <hydroph_interaction:ASN:19>  (71) 
hydroph_interaction:ASN:19    0
hydroph_interaction:ASN:19    0
Name: 70, dtype: object

>  <hbond:ASN:19>  (71) 
hbond:ASN:19    0
hbond:ASN:19    0
Name: 70, dtype: object

>  <halogenbond:ASN:19>  (71) 
halogenbond:ASN:19    0
halogenbond:ASN:19    0
Name: 70, dtype: object

>  <hbond:ARG:20>  (71) 
hbond:ARG:20    0
hbond:ARG:20    0
Name: 70, dtype: object

>  <hydroph_interaction:ARG:20>  (71) 
hydroph_interaction:ARG:20    0
hydroph_interaction:ARG:20    0
Name: 70, dtype: object

>  <saltbridge:ARG:20>  (71) 
saltbridge:ARG:20    0
saltbridge:ARG:20    0
Name: 70, dtype: object

>  <halogenbond:ARG:20>  (71) 
halogenbond:ARG:20    0
halogenbond:ARG:20    0
Name: 70, dtype: object

>  <pication:ARG:20>  (71) 
pication:ARG:20    0
pication:ARG:20    0
Name: 70, dtype: object

>  <hbond:HIS:21>  (71) 
hbond:HIS:21    0
hbond:HIS:21    0
Name: 70, dtype: object

>  <hydroph_interaction:HIS:21>  (71) 
hydroph_interaction:HIS:21    0
hydroph_interaction:HIS:21    0
Name: 70, dtype: object

>  <saltbridge:HIS:21>  (71) 
saltbridge:HIS:21    0
saltbridge:HIS:21    0
Name: 70, dtype: object

>  <pistack:HIS:21>  (71) 
pistack:HIS:21    0
pistack:HIS:21    0
Name: 70, dtype: object

>  <pication:HIS:21>  (71) 
pication:HIS:21    0
pication:HIS:21    0
Name: 70, dtype: object

>  <halogenbond:HIS:21>  (71) 
halogenbond:HIS:21    0
halogenbond:HIS:21    0
Name: 70, dtype: object

>  <hydroph_interaction:LEU:22>  (71) 
hydroph_interaction:LEU:22    0
hydroph_interaction:LEU:22    0
Name: 70, dtype: object

>  <hbond:LEU:22>  (71) 
hbond:LEU:22    0
hbond:LEU:22    0
Name: 70, dtype: object

>  <hydroph_interaction:TRP:28>  (71) 
hydroph_interaction:TRP:28    0
hydroph_interaction:TRP:28    0
Name: 70, dtype: object

>  <hbond:SER:36>  (71) 
hbond:SER:36    0
hbond:SER:36    0
Name: 70, dtype: object

>  <halogenbond:SER:36>  (71) 
halogenbond:SER:36    0
halogenbond:SER:36    0
Name: 70, dtype: object

>  <hbond:ARG:38>  (71) 
hbond:ARG:38    0
hbond:ARG:38    0
Name: 70, dtype: object

>  <halogenbond:ARG:38>  (71) 
halogenbond:ARG:38    0
halogenbond:ARG:38    0
Name: 70, dtype: object

>  <hbond:ASP:39>  (71) 
hbond:ASP:39    0
hbond:ASP:39    0
Name: 70, dtype: object

>  <saltbridge:ASP:39>  (71) 
saltbridge:ASP:39    0
saltbridge:ASP:39    0
Name: 70, dtype: object

>  <hydroph_interaction:ASP:39>  (71) 
hydroph_interaction:ASP:39    1
hydroph_interaction:ASP:39    1
Name: 70, dtype: object

>  <halogenbond:ASP:39>  (71) 
halogenbond:ASP:39    0
halogenbond:ASP:39    0
Name: 70, dtype: object

>  <hydroph_interaction:LEU:40>  (71) 
hydroph_interaction:LEU:40    0
hydroph_interaction:LEU:40    0
Name: 70, dtype: object

>  <hydroph_interaction:TYR:63>  (71) 
hydroph_interaction:TYR:63    0
hydroph_interaction:TYR:63    0
Name: 70, dtype: object

>  <pistack:TYR:63>  (71) 
pistack:TYR:63    0
pistack:TYR:63    0
Name: 70, dtype: object

>  <hbond:TYR:63>  (71) 
hbond:TYR:63    0
hbond:TYR:63    0
Name: 70, dtype: object

>  <hbond:TYR:64>  (71) 
hbond:TYR:64    0
hbond:TYR:64    0
Name: 70, dtype: object

>  <halogenbond:TYR:64>  (71) 
halogenbond:TYR:64    0
halogenbond:TYR:64    0
Name: 70, dtype: object

>  <hydroph_interaction:TYR:64>  (71) 
hydroph_interaction:TYR:64    0
hydroph_interaction:TYR:64    0
Name: 70, dtype: object

>  <hbond:CYS:65>  (71) 
hbond:CYS:65    0
hbond:CYS:65    0
Name: 70, dtype: object

>  <halogenbond:CYS:65>  (71) 
halogenbond:CYS:65    0
halogenbond:CYS:65    0
Name: 70, dtype: object

>  <hbond:SER:66>  (71) 
hbond:SER:66    0
hbond:SER:66    0
Name: 70, dtype: object

>  <hbond:SER:67>  (71) 
hbond:SER:67    0
hbond:SER:67    0
Name: 70, dtype: object

>  <halogenbond:SER:67>  (71) 
halogenbond:SER:67    0
halogenbond:SER:67    0
Name: 70, dtype: object

>  <hydroph_interaction:ARG:68>  (71) 
hydroph_interaction:ARG:68    0
hydroph_interaction:ARG:68    0
Name: 70, dtype: object

>  <hbond:ARG:68>  (71) 
hbond:ARG:68    0
hbond:ARG:68    0
Name: 70, dtype: object

>  <saltbridge:ARG:68>  (71) 
saltbridge:ARG:68    0
saltbridge:ARG:68    0
Name: 70, dtype: object

>  <pication:ARG:68>  (71) 
pication:ARG:68    0
pication:ARG:68    0
Name: 70, dtype: object

>  <hydroph_interaction:TYR:72>  (71) 
hydroph_interaction:TYR:72    0
hydroph_interaction:TYR:72    0
Name: 70, dtype: object

>  <hydroph_interaction:VAL:74>  (71) 
hydroph_interaction:VAL:74    0
hydroph_interaction:VAL:74    0
Name: 70, dtype: object

>  <hydroph_interaction:PHE:76>  (71) 
hydroph_interaction:PHE:76    0
hydroph_interaction:PHE:76    0
Name: 70, dtype: object

>  <hbond:SER:77>  (71) 
hbond:SER:77    0
hbond:SER:77    0
Name: 70, dtype: object

>  <hbond:SER:80>  (71) 
hbond:SER:80    0
hbond:SER:80    0
Name: 70, dtype: object

>  <hbond:LEU:81>  (71) 
hbond:LEU:81    0
hbond:LEU:81    0
Name: 70, dtype: object

>  <halogenbond:LEU:81>  (71) 
halogenbond:LEU:81    0
halogenbond:LEU:81    0
Name: 70, dtype: object

>  <hydroph_interaction:LEU:81>  (71) 
hydroph_interaction:LEU:81    0
hydroph_interaction:LEU:81    0
Name: 70, dtype: object

>  <hydroph_interaction:ILE:82>  (71) 
hydroph_interaction:ILE:82    0
hydroph_interaction:ILE:82    0
Name: 70, dtype: object

>  <hbond:ILE:82>  (71) 
hbond:ILE:82    0
hbond:ILE:82    0
Name: 70, dtype: object

>  <hydroph_interaction:PHE:83>  (71) 
hydroph_interaction:PHE:83    0
hydroph_interaction:PHE:83    0
Name: 70, dtype: object

>  <hbond:PHE:83>  (71) 
hbond:PHE:83    0
hbond:PHE:83    0
Name: 70, dtype: object

>  <halogenbond:PHE:83>  (71) 
halogenbond:PHE:83    0
halogenbond:PHE:83    0
Name: 70, dtype: object

>  <pistack:PHE:83>  (71) 
pistack:PHE:83    0
pistack:PHE:83    0
Name: 70, dtype: object

>  <hydroph_interaction:VAL:84>  (71) 
hydroph_interaction:VAL:84    1
hydroph_interaction:VAL:84    1
Name: 70, dtype: object

>  <hbond:VAL:84>  (71) 
hbond:VAL:84    0
hbond:VAL:84    0
Name: 70, dtype: object

>  <halogenbond:VAL:84>  (71) 
halogenbond:VAL:84    0
halogenbond:VAL:84    0
Name: 70, dtype: object

>  <hydroph_interaction:GLU:85>  (71) 
hydroph_interaction:GLU:85    0
hydroph_interaction:GLU:85    0
Name: 70, dtype: object

>  <hbond:GLU:85>  (71) 
hbond:GLU:85    0
hbond:GLU:85    0
Name: 70, dtype: object

>  <saltbridge:GLU:85>  (71) 
saltbridge:GLU:85    0
saltbridge:GLU:85    0
Name: 70, dtype: object

>  <halogenbond:GLU:85>  (71) 
halogenbond:GLU:85    0
halogenbond:GLU:85    0
Name: 70, dtype: object

>  <hbond:ALA:86>  (71) 
hbond:ALA:86    0
hbond:ALA:86    0
Name: 70, dtype: object

>  <halogenbond:ALA:86>  (71) 
halogenbond:ALA:86    0
halogenbond:ALA:86    0
Name: 70, dtype: object

>  <hydroph_interaction:ALA:86>  (71) 
hydroph_interaction:ALA:86    0
hydroph_interaction:ALA:86    0
Name: 70, dtype: object

>  <hbond:SER:87>  (71) 
hbond:SER:87    0
hbond:SER:87    0
Name: 70, dtype: object

>  <halogenbond:SER:87>  (71) 
halogenbond:SER:87    0
halogenbond:SER:87    0
Name: 70, dtype: object

>  <hbond:GLU:88>  (71) 
hbond:GLU:88    0
hbond:GLU:88    0
Name: 70, dtype: object

>  <hydroph_interaction:GLU:88>  (71) 
hydroph_interaction:GLU:88    0
hydroph_interaction:GLU:88    0
Name: 70, dtype: object

>  <halogenbond:GLU:88>  (71) 
halogenbond:GLU:88    0
halogenbond:GLU:88    0
Name: 70, dtype: object

>  <saltbridge:GLU:88>  (71) 
saltbridge:GLU:88    0
saltbridge:GLU:88    0
Name: 70, dtype: object

>  <hydroph_interaction:TYR:89>  (71) 
hydroph_interaction:TYR:89    0
hydroph_interaction:TYR:89    0
Name: 70, dtype: object

>  <pistack:TYR:89>  (71) 
pistack:TYR:89    0
pistack:TYR:89    0
Name: 70, dtype: object

>  <hbond:TYR:89>  (71) 
hbond:TYR:89    0
hbond:TYR:89    0
Name: 70, dtype: object

>  <halogenbond:TYR:89>  (71) 
halogenbond:TYR:89    0
halogenbond:TYR:89    0
Name: 70, dtype: object

>  <hbond:TYR:90>  (71) 
hbond:TYR:90    0
hbond:TYR:90    0
Name: 70, dtype: object

>  <hydroph_interaction:TYR:90>  (71) 
hydroph_interaction:TYR:90    2
hydroph_interaction:TYR:90    2
Name: 70, dtype: object

>  <pistack:TYR:90>  (71) 
pistack:TYR:90    0
pistack:TYR:90    0
Name: 70, dtype: object

>  <halogenbond:TYR:90>  (71) 
halogenbond:TYR:90    0
halogenbond:TYR:90    0
Name: 70, dtype: object

>  <pication:TYR:90>  (71) 
pication:TYR:90    0
pication:TYR:90    0
Name: 70, dtype: object

>  <hydroph_interaction:PRO:91>  (71) 
hydroph_interaction:PRO:91    0
hydroph_interaction:PRO:91    0
Name: 70, dtype: object

>  <halogenbond:PRO:91>  (71) 
halogenbond:PRO:91    0
halogenbond:PRO:91    0
Name: 70, dtype: object

>  <hbond:PRO:91>  (71) 
hbond:PRO:91    0
hbond:PRO:91    0
Name: 70, dtype: object

>  <hydroph_interaction:ALA:92>  (71) 
hydroph_interaction:ALA:92    0
hydroph_interaction:ALA:92    0
Name: 70, dtype: object

>  <hbond:ARG:93>  (71) 
hbond:ARG:93    0
hbond:ARG:93    0
Name: 70, dtype: object

>  <pication:ARG:93>  (71) 
pication:ARG:93    0
pication:ARG:93    0
Name: 70, dtype: object

>  <saltbridge:ARG:93>  (71) 
saltbridge:ARG:93    0
saltbridge:ARG:93    0
Name: 70, dtype: object

>  <hydroph_interaction:ARG:93>  (71) 
hydroph_interaction:ARG:93    0
hydroph_interaction:ARG:93    0
Name: 70, dtype: object

>  <halogenbond:ARG:93>  (71) 
halogenbond:ARG:93    0
halogenbond:ARG:93    0
Name: 70, dtype: object

>  <hydroph_interaction:TYR:94>  (71) 
hydroph_interaction:TYR:94    0
hydroph_interaction:TYR:94    0
Name: 70, dtype: object

>  <hbond:TYR:94>  (71) 
hbond:TYR:94    0
hbond:TYR:94    0
Name: 70, dtype: object

>  <halogenbond:GLN:95>  (71) 
halogenbond:GLN:95    0
halogenbond:GLN:95    0
Name: 70, dtype: object

>  <hbond:GLN:95>  (71) 
hbond:GLN:95    0
hbond:GLN:95    0
Name: 70, dtype: object

>  <hydroph_interaction:GLN:95>  (71) 
hydroph_interaction:GLN:95    1
hydroph_interaction:GLN:95    1
Name: 70, dtype: object

>  <hbond:SER:96>  (71) 
hbond:SER:96    0
hbond:SER:96    0
Name: 70, dtype: object

>  <hydroph_interaction:LEU:98>  (71) 
hydroph_interaction:LEU:98    0
hydroph_interaction:LEU:98    0
Name: 70, dtype: object

>  <hbond:LEU:98>  (71) 
hbond:LEU:98    0
hbond:LEU:98    0
Name: 70, dtype: object

>  <hbond:MET:99>  (71) 
hbond:MET:99    0
hbond:MET:99    0
Name: 70, dtype: object

>  <hydroph_interaction:MET:99>  (71) 
hydroph_interaction:MET:99    0
hydroph_interaction:MET:99    0
Name: 70, dtype: object

>  <halogenbond:MET:99>  (71) 
halogenbond:MET:99    0
halogenbond:MET:99    0
Name: 70, dtype: object

>  <hydroph_interaction:LEU:100>  (71) 
hydroph_interaction:LEU:100    0
hydroph_interaction:LEU:100    0
Name: 70, dtype: object

>  <hbond:LEU:100>  (71) 
hbond:LEU:100    0
hbond:LEU:100    0
Name: 70, dtype: object

>  <hbond:ALA:101>  (71) 
hbond:ALA:101    0
hbond:ALA:101    0
Name: 70, dtype: object

>  <hydroph_interaction:ALA:101>  (71) 
hydroph_interaction:ALA:101    0
hydroph_interaction:ALA:101    0
Name: 70, dtype: object

>  <hydroph_interaction:VAL:102>  (71) 
hydroph_interaction:VAL:102    0
hydroph_interaction:VAL:102    0
Name: 70, dtype: object

>  <hbond:VAL:102>  (71) 
hbond:VAL:102    0
hbond:VAL:102    0
Name: 70, dtype: object

>  <hbond:GLY:103>  (71) 
hbond:GLY:103    0
hbond:GLY:103    0
Name: 70, dtype: object

>  <halogenbond:GLY:103>  (71) 
halogenbond:GLY:103    0
halogenbond:GLY:103    0
Name: 70, dtype: object

>  <hydroph_interaction:HIS:104>  (71) 
hydroph_interaction:HIS:104    0
hydroph_interaction:HIS:104    0
Name: 70, dtype: object

>  <hbond:HIS:104>  (71) 
hbond:HIS:104    0
hbond:HIS:104    0
Name: 70, dtype: object

>  <saltbridge:HIS:104>  (71) 
saltbridge:HIS:104    0
saltbridge:HIS:104    0
Name: 70, dtype: object

>  <pication:HIS:104>  (71) 
pication:HIS:104    0
pication:HIS:104    0
Name: 70, dtype: object

>  <pistack:HIS:104>  (71) 
pistack:HIS:104    0
pistack:HIS:104    0
Name: 70, dtype: object

>  <halogenbond:HIS:104>  (71) 
halogenbond:HIS:104    0
halogenbond:HIS:104    0
Name: 70, dtype: object

>  <hbond:SER:105>  (71) 
hbond:SER:105    0
hbond:SER:105    0
Name: 70, dtype: object

>  <halogenbond:SER:105>  (71) 
halogenbond:SER:105    0
halogenbond:SER:105    0
Name: 70, dtype: object

>  <hbond:GLU:106>  (71) 
hbond:GLU:106    0
hbond:GLU:106    0
Name: 70, dtype: object

>  <hydroph_interaction:GLU:106>  (71) 
hydroph_interaction:GLU:106    0
hydroph_interaction:GLU:106    0
Name: 70, dtype: object

>  <saltbridge:GLU:106>  (71) 
saltbridge:GLU:106    0
saltbridge:GLU:106    0
Name: 70, dtype: object

>  <halogenbond:GLU:106>  (71) 
halogenbond:GLU:106    0
halogenbond:GLU:106    0
Name: 70, dtype: object

>  <hydroph_interaction:PRO:107>  (71) 
hydroph_interaction:PRO:107    1
hydroph_interaction:PRO:107    1
Name: 70, dtype: object

>  <hbond:PRO:107>  (71) 
hbond:PRO:107    0
hbond:PRO:107    0
Name: 70, dtype: object

>  <halogenbond:PRO:107>  (71) 
halogenbond:PRO:107    0
halogenbond:PRO:107    0
Name: 70, dtype: object

>  <hbond:GLY:108>  (71) 
hbond:GLY:108    0
hbond:GLY:108    0
Name: 70, dtype: object

>  <halogenbond:GLY:108>  (71) 
halogenbond:GLY:108    0
halogenbond:GLY:108    0
Name: 70, dtype: object

>  <hbond:ASP:109>  (71) 
hbond:ASP:109    0
hbond:ASP:109    0
Name: 70, dtype: object

>  <hydroph_interaction:ASP:109>  (71) 
hydroph_interaction:ASP:109    0
hydroph_interaction:ASP:109    0
Name: 70, dtype: object

>  <saltbridge:ASP:109>  (71) 
saltbridge:ASP:109    0
saltbridge:ASP:109    0
Name: 70, dtype: object

>  <hbond:CYS:110>  (71) 
hbond:CYS:110    0
hbond:CYS:110    0
Name: 70, dtype: object

>  <halogenbond:CYS:110>  (71) 
halogenbond:CYS:110    0
halogenbond:CYS:110    0
Name: 70, dtype: object

>  <hbond:GLY:111>  (71) 
hbond:GLY:111    0
hbond:GLY:111    0
Name: 70, dtype: object

>  <hbond:GLY:112>  (71) 
hbond:GLY:112    0
hbond:GLY:112    0
Name: 70, dtype: object

>  <hbond:ILE:113>  (71) 
hbond:ILE:113    0
hbond:ILE:113    0
Name: 70, dtype: object

>  <hydroph_interaction:LEU:114>  (71) 
hydroph_interaction:LEU:114    0
hydroph_interaction:LEU:114    0
Name: 70, dtype: object

>  <hbond:LEU:114>  (71) 
hbond:LEU:114    0
hbond:LEU:114    0
Name: 70, dtype: object

>  <hydroph_interaction:ILE:123>  (71) 
hydroph_interaction:ILE:123    0
hydroph_interaction:ILE:123    0
Name: 70, dtype: object

>  <hbond:ILE:123>  (71) 
hbond:ILE:123    0
hbond:ILE:123    0
Name: 70, dtype: object

>  <hydroph_interaction:VAL:124>  (71) 
hydroph_interaction:VAL:124    0
hydroph_interaction:VAL:124    0
Name: 70, dtype: object

>  <hbond:VAL:124>  (71) 
hbond:VAL:124    0
hbond:VAL:124    0
Name: 70, dtype: object

>  <halogenbond:VAL:124>  (71) 
halogenbond:VAL:124    0
halogenbond:VAL:124    0
Name: 70, dtype: object

>  <hbond:SER:125>  (71) 
hbond:SER:125    1
hbond:SER:125    1
Name: 70, dtype: object

>  <halogenbond:SER:125>  (71) 
halogenbond:SER:125    0
halogenbond:SER:125    0
Name: 70, dtype: object

>  <hydroph_interaction:THR:126>  (71) 
hydroph_interaction:THR:126    1
hydroph_interaction:THR:126    1
Name: 70, dtype: object

>  <hbond:THR:126>  (71) 
hbond:THR:126    0
hbond:THR:126    0
Name: 70, dtype: object

>  <halogenbond:THR:126>  (71) 
halogenbond:THR:126    0
halogenbond:THR:126    0
Name: 70, dtype: object

>  <hbond:GLY:127>  (71) 
hbond:GLY:127    0
hbond:GLY:127    0
Name: 70, dtype: object

>  <halogenbond:GLY:127>  (71) 
halogenbond:GLY:127    0
halogenbond:GLY:127    0
Name: 70, dtype: object

>  <hydroph_interaction:GLY:127>  (71) 
hydroph_interaction:GLY:127    0
hydroph_interaction:GLY:127    0
Name: 70, dtype: object

>  <hbond:GLY:128>  (71) 
hbond:GLY:128    0
hbond:GLY:128    0
Name: 70, dtype: object

>  <halogenbond:GLY:128>  (71) 
halogenbond:GLY:128    0
halogenbond:GLY:128    0
Name: 70, dtype: object

>  <hydroph_interaction:GLY:128>  (71) 
hydroph_interaction:GLY:128    0
hydroph_interaction:GLY:128    0
Name: 70, dtype: object

>  <hbond:ASN:129>  (71) 
hbond:ASN:129    0
hbond:ASN:129    0
Name: 70, dtype: object

>  <hydroph_interaction:ASN:129>  (71) 
hydroph_interaction:ASN:129    0
hydroph_interaction:ASN:129    0
Name: 70, dtype: object

>  <halogenbond:ASN:129>  (71) 
halogenbond:ASN:129    0
halogenbond:ASN:129    0
Name: 70, dtype: object

>  <hbond:GLY:130>  (71) 
hbond:GLY:130    0
hbond:GLY:130    0
Name: 70, dtype: object

>  <hydroph_interaction:LEU:131>  (71) 
hydroph_interaction:LEU:131    0
hydroph_interaction:LEU:131    0
Name: 70, dtype: object

>  <hbond:LEU:131>  (71) 
hbond:LEU:131    0
hbond:LEU:131    0
Name: 70, dtype: object

>  <halogenbond:LEU:131>  (71) 
halogenbond:LEU:131    0
halogenbond:LEU:131    0
Name: 70, dtype: object

>  <hydroph_interaction:VAL:132>  (71) 
hydroph_interaction:VAL:132    0
hydroph_interaction:VAL:132    0
Name: 70, dtype: object

>  <hbond:VAL:132>  (71) 
hbond:VAL:132    0
hbond:VAL:132    0
Name: 70, dtype: object

>  <hbond:GLY:133>  (71) 
hbond:GLY:133    0
hbond:GLY:133    0
Name: 70, dtype: object

>  <halogenbond:GLY:133>  (71) 
halogenbond:GLY:133    0
halogenbond:GLY:133    0
Name: 70, dtype: object

>  <hydroph_interaction:PHE:134>  (71) 
hydroph_interaction:PHE:134    0
hydroph_interaction:PHE:134    0
Name: 70, dtype: object

>  <hbond:PHE:134>  (71) 
hbond:PHE:134    0
hbond:PHE:134    0
Name: 70, dtype: object

>  <pistack:PHE:134>  (71) 
pistack:PHE:134    0
pistack:PHE:134    0
Name: 70, dtype: object

>  <pication:PHE:134>  (71) 
pication:PHE:134    0
pication:PHE:134    0
Name: 70, dtype: object

>  <hydroph_interaction:ALA:135>  (71) 
hydroph_interaction:ALA:135    0
hydroph_interaction:ALA:135    0
Name: 70, dtype: object

>  <hbond:ALA:135>  (71) 
hbond:ALA:135    0
hbond:ALA:135    0
Name: 70, dtype: object

$$$$
PV_004956996116
     RDKit          3D

 39 40  0  0  0  0  0  0  0  0999 V2000
    8.0620   12.7840   24.7970 C   0  0  0  0  0  0  0  0  0  0  0  0
    9.0090   11.8740   24.0360 C   0  0  0  0  0  0  0  0  0  0  0  0
    8.7120   10.1950   24.1480 Cl  0  0  0  0  0  0  0  0  0  0  0  0
   10.0780   12.4820   23.2900 C   0  0  0  0  0  0  0  0  0  0  0  0
   10.3660   13.8150   23.1870 C   0  0  0  0  0  0  0  0  0  0  0  0
   10.4070   14.4830   24.2100 O   0  0  0  0  0  0  0  0  0  0  0  0
   10.6090   14.2980   21.9460 N   0  0  0  0  0  0  0  0  0  0  0  0
   11.7490   15.1710   21.8410 C   0  0  0  0  0  0  0  0  0  0  0  0
   12.7330   14.0690   21.7760 C   0  0  0  0  0  0  0  0  0  0  0  0
   13.4970   13.9140   20.5860 C   0  0  0  0  0  0  0  0  0  0  0  0
   13.4620   14.7190   19.4890 C   0  0  0  0  0  0  0  0  0  0  0  0
   12.9050   16.0330   19.6920 N   0  0  0  0  0  0  0  0  0  0  0  0
   12.8150   16.7700   18.4260 C   0  0  0  0  0  0  0  0  0  0  0  0
   11.7510   16.9090   17.8060 O   0  0  0  0  0  0  0  0  0  0  0  0
   14.1360   17.3600   17.8790 C   0  0  2  0  0  0  0  0  0  0  0  0
   14.7760   18.5440   18.5440 C   0  0  0  0  0  0  0  0  0  0  0  0
   15.1850   19.6430   17.6110 C   0  0  0  0  0  0  0  0  0  0  0  0
   14.7480   19.0610   16.3040 C   0  0  0  0  0  0  0  0  0  0  0  0
   14.1300   17.7610   16.5030 O   0  0  0  0  0  0  0  0  0  0  0  0
   11.7100   16.0890   20.5680 C   0  0  0  0  0  0  0  0  0  0  0  0
    7.7260   12.2760   25.7070 H   0  0  0  0  0  0  0  0  0  0  0  0
    7.1790   13.0180   24.1950 H   0  0  0  0  0  0  0  0  0  0  0  0
    8.5550   13.7270   25.0500 H   0  0  0  0  0  0  0  0  0  0  0  0
   10.7760   11.8610   22.7270 H   0  0  0  0  0  0  0  0  0  0  0  0
   10.5660   13.5870   21.2020 H   0  0  0  0  0  0  0  0  0  0  0  0
   11.8950   15.7530   22.7560 H   0  0  0  0  0  0  0  0  0  0  0  0
   12.8320   13.3900   22.6160 H   0  0  0  0  0  0  0  0  0  0  0  0
   14.1520   13.0600   20.5910 H   0  0  0  0  0  0  0  0  0  0  0  0
   14.4780   14.8210   19.1570 H   0  0  0  0  0  0  0  0  0  0  0  0
   12.8870   14.2220   18.6980 H   0  0  0  0  0  0  0  0  0  0  0  0
   14.8570   16.5370   17.9260 H   0  0  0  0  0  0  0  0  0  0  0  0
   14.1200   18.9090   19.3100 H   0  0  0  0  0  0  0  0  0  0  0  0
   15.6810   18.2500   19.0560 H   0  0  0  0  0  0  0  0  0  0  0  0
   14.7420   20.6110   17.8370 H   0  0  0  0  0  0  0  0  0  0  0  0
   16.2750   19.7570   17.6240 H   0  0  0  0  0  0  0  0  0  0  0  0
   15.6120   18.9020   15.6620 H   0  0  0  0  0  0  0  0  0  0  0  0
   14.0500   19.7150   15.7790 H   0  0  0  0  0  0  0  0  0  0  0  0
   11.6200   17.1390   20.8770 H   0  0  0  0  0  0  0  0  0  0  0  0
   10.8000   15.8740   19.9950 H   0  0  0  0  0  0  0  0  0  0  0  0
  1  2  1  0
  2  3  1  0
  2  4  2  3
  4  5  1  0
  5  6  2  0
  5  7  1  0
  7  8  1  0
  8  9  1  0
  9 10  2  0
 10 11  1  0
 11 12  1  0
 12 13  1  0
 13 14  2  0
 13 15  1  0
 15 16  1  0
 16 17  1  0
 17 18  1  0
 18 19  1  0
 12 20  1  0
 20  8  1  0
 19 15  1  0
  1 21  1  0
  1 22  1  0
  1 23  1  0
  4 24  1  0
  7 25  1  0
  8 26  1  0
  9 27  1  0
 10 28  1  0
 11 29  1  0
 11 30  1  0
 15 31  1  6
 16 32  1  0
 16 33  1  0
 17 34  1  0
 17 35  1  0
 18 36  1  0
 18 37  1  0
 20 38  1  0
 20 39  1  0
A    1
 C1 
A    2
 C2 
A    3
CL1 
A    4
 C3 
A    5
 C4 
A    6
 O1 
A    7
 N1 
A    8
 C5 
A    9
 C6 
A   10
 C7 
A   11
 C8 
A   12
 N2 
A   13
 C9 
A   14
 O2 
A   15
 C10
A   16
 C11
A   17
 C12
A   18
 C13
A   19
 O3 
A   20
 C14
A   21
 H1 
A   22
 H2 
A   23
 H3 
A   24
 H4 
A   25
 H5 
A   26
 H6 
A   27
 H7 
A   28
 H8 
A   29
 H9 
A   30
 H10
A   31
 H11
A   32
 H12
A   33
 H13
A   34
 H14
A   35
 H15
A   36
 H16
A   37
 H17
A   38
 H18
A   39
 H19
M  END
>  <ref_pdb>  (72) 
x0310_0A

>  <ref_mols>  (72) 
x0451_0A,x0450_0A

>  <original SMILES>  (72) 
CC(Cl)=CC(=O)NC1C=CCN(C(=O)[C@@H]2CCCO2)C1

>  <rationale>  (72) 
info halogenbond:S105; hbond:S125+S87+D39; hydroph_interaction:P107+Y89+Y90+H21; pistack:Y90; 

>  <intxn_cluster>  (72) 
105

>  <intxn_cluster_rank>  (72) 
22

>  <N_interactions>  (72) 
9

>  <∆∆G>  (72) 
-5.443178

>  <$/mg>  (72) 
nan

>  <comRMSD>  (72) 
0.68837

>  <N_rotatable_bonds>  (72) 
4

>  <N_analogues_07>  (72) 
6

>  <deep_P1_sidechain>  (72) 
True

>  <farthest_distance_to_substrate>  (72) 
3.653853

>  <hbond:SER:7>  (72) 
hbond:SER:7    0
hbond:SER:7    0
Name: 71, dtype: object

>  <halogenbond:SER:7>  (72) 
halogenbond:SER:7    0
halogenbond:SER:7    0
Name: 71, dtype: object

>  <hbond:GLY:8>  (72) 
hbond:GLY:8    0
hbond:GLY:8    0
Name: 71, dtype: object

>  <hydroph_interaction:ASN:19>  (72) 
hydroph_interaction:ASN:19    0
hydroph_interaction:ASN:19    0
Name: 71, dtype: object

>  <hbond:ASN:19>  (72) 
hbond:ASN:19    0
hbond:ASN:19    0
Name: 71, dtype: object

>  <halogenbond:ASN:19>  (72) 
halogenbond:ASN:19    0
halogenbond:ASN:19    0
Name: 71, dtype: object

>  <hbond:ARG:20>  (72) 
hbond:ARG:20    0
hbond:ARG:20    0
Name: 71, dtype: object

>  <hydroph_interaction:ARG:20>  (72) 
hydroph_interaction:ARG:20    0
hydroph_interaction:ARG:20    0
Name: 71, dtype: object

>  <saltbridge:ARG:20>  (72) 
saltbridge:ARG:20    0
saltbridge:ARG:20    0
Name: 71, dtype: object

>  <halogenbond:ARG:20>  (72) 
halogenbond:ARG:20    0
halogenbond:ARG:20    0
Name: 71, dtype: object

>  <pication:ARG:20>  (72) 
pication:ARG:20    0
pication:ARG:20    0
Name: 71, dtype: object

>  <hbond:HIS:21>  (72) 
hbond:HIS:21    0
hbond:HIS:21    0
Name: 71, dtype: object

>  <hydroph_interaction:HIS:21>  (72) 
hydroph_interaction:HIS:21    1
hydroph_interaction:HIS:21    1
Name: 71, dtype: object

>  <saltbridge:HIS:21>  (72) 
saltbridge:HIS:21    0
saltbridge:HIS:21    0
Name: 71, dtype: object

>  <pistack:HIS:21>  (72) 
pistack:HIS:21    0
pistack:HIS:21    0
Name: 71, dtype: object

>  <pication:HIS:21>  (72) 
pication:HIS:21    0
pication:HIS:21    0
Name: 71, dtype: object

>  <halogenbond:HIS:21>  (72) 
halogenbond:HIS:21    0
halogenbond:HIS:21    0
Name: 71, dtype: object

>  <hydroph_interaction:LEU:22>  (72) 
hydroph_interaction:LEU:22    0
hydroph_interaction:LEU:22    0
Name: 71, dtype: object

>  <hbond:LEU:22>  (72) 
hbond:LEU:22    0
hbond:LEU:22    0
Name: 71, dtype: object

>  <hydroph_interaction:TRP:28>  (72) 
hydroph_interaction:TRP:28    0
hydroph_interaction:TRP:28    0
Name: 71, dtype: object

>  <hbond:SER:36>  (72) 
hbond:SER:36    0
hbond:SER:36    0
Name: 71, dtype: object

>  <halogenbond:SER:36>  (72) 
halogenbond:SER:36    0
halogenbond:SER:36    0
Name: 71, dtype: object

>  <hbond:ARG:38>  (72) 
hbond:ARG:38    0
hbond:ARG:38    0
Name: 71, dtype: object

>  <halogenbond:ARG:38>  (72) 
halogenbond:ARG:38    0
halogenbond:ARG:38    0
Name: 71, dtype: object

>  <hbond:ASP:39>  (72) 
hbond:ASP:39    1
hbond:ASP:39    1
Name: 71, dtype: object

>  <saltbridge:ASP:39>  (72) 
saltbridge:ASP:39    0
saltbridge:ASP:39    0
Name: 71, dtype: object

>  <hydroph_interaction:ASP:39>  (72) 
hydroph_interaction:ASP:39    0
hydroph_interaction:ASP:39    0
Name: 71, dtype: object

>  <halogenbond:ASP:39>  (72) 
halogenbond:ASP:39    0
halogenbond:ASP:39    0
Name: 71, dtype: object

>  <hydroph_interaction:LEU:40>  (72) 
hydroph_interaction:LEU:40    0
hydroph_interaction:LEU:40    0
Name: 71, dtype: object

>  <hydroph_interaction:TYR:63>  (72) 
hydroph_interaction:TYR:63    0
hydroph_interaction:TYR:63    0
Name: 71, dtype: object

>  <pistack:TYR:63>  (72) 
pistack:TYR:63    0
pistack:TYR:63    0
Name: 71, dtype: object

>  <hbond:TYR:63>  (72) 
hbond:TYR:63    0
hbond:TYR:63    0
Name: 71, dtype: object

>  <hbond:TYR:64>  (72) 
hbond:TYR:64    0
hbond:TYR:64    0
Name: 71, dtype: object

>  <halogenbond:TYR:64>  (72) 
halogenbond:TYR:64    0
halogenbond:TYR:64    0
Name: 71, dtype: object

>  <hydroph_interaction:TYR:64>  (72) 
hydroph_interaction:TYR:64    0
hydroph_interaction:TYR:64    0
Name: 71, dtype: object

>  <hbond:CYS:65>  (72) 
hbond:CYS:65    0
hbond:CYS:65    0
Name: 71, dtype: object

>  <halogenbond:CYS:65>  (72) 
halogenbond:CYS:65    0
halogenbond:CYS:65    0
Name: 71, dtype: object

>  <hbond:SER:66>  (72) 
hbond:SER:66    0
hbond:SER:66    0
Name: 71, dtype: object

>  <hbond:SER:67>  (72) 
hbond:SER:67    0
hbond:SER:67    0
Name: 71, dtype: object

>  <halogenbond:SER:67>  (72) 
halogenbond:SER:67    0
halogenbond:SER:67    0
Name: 71, dtype: object

>  <hydroph_interaction:ARG:68>  (72) 
hydroph_interaction:ARG:68    0
hydroph_interaction:ARG:68    0
Name: 71, dtype: object

>  <hbond:ARG:68>  (72) 
hbond:ARG:68    0
hbond:ARG:68    0
Name: 71, dtype: object

>  <saltbridge:ARG:68>  (72) 
saltbridge:ARG:68    0
saltbridge:ARG:68    0
Name: 71, dtype: object

>  <pication:ARG:68>  (72) 
pication:ARG:68    0
pication:ARG:68    0
Name: 71, dtype: object

>  <hydroph_interaction:TYR:72>  (72) 
hydroph_interaction:TYR:72    0
hydroph_interaction:TYR:72    0
Name: 71, dtype: object

>  <hydroph_interaction:VAL:74>  (72) 
hydroph_interaction:VAL:74    0
hydroph_interaction:VAL:74    0
Name: 71, dtype: object

>  <hydroph_interaction:PHE:76>  (72) 
hydroph_interaction:PHE:76    0
hydroph_interaction:PHE:76    0
Name: 71, dtype: object

>  <hbond:SER:77>  (72) 
hbond:SER:77    0
hbond:SER:77    0
Name: 71, dtype: object

>  <hbond:SER:80>  (72) 
hbond:SER:80    0
hbond:SER:80    0
Name: 71, dtype: object

>  <hbond:LEU:81>  (72) 
hbond:LEU:81    0
hbond:LEU:81    0
Name: 71, dtype: object

>  <halogenbond:LEU:81>  (72) 
halogenbond:LEU:81    0
halogenbond:LEU:81    0
Name: 71, dtype: object

>  <hydroph_interaction:LEU:81>  (72) 
hydroph_interaction:LEU:81    0
hydroph_interaction:LEU:81    0
Name: 71, dtype: object

>  <hydroph_interaction:ILE:82>  (72) 
hydroph_interaction:ILE:82    0
hydroph_interaction:ILE:82    0
Name: 71, dtype: object

>  <hbond:ILE:82>  (72) 
hbond:ILE:82    0
hbond:ILE:82    0
Name: 71, dtype: object

>  <hydroph_interaction:PHE:83>  (72) 
hydroph_interaction:PHE:83    0
hydroph_interaction:PHE:83    0
Name: 71, dtype: object

>  <hbond:PHE:83>  (72) 
hbond:PHE:83    0
hbond:PHE:83    0
Name: 71, dtype: object

>  <halogenbond:PHE:83>  (72) 
halogenbond:PHE:83    0
halogenbond:PHE:83    0
Name: 71, dtype: object

>  <pistack:PHE:83>  (72) 
pistack:PHE:83    0
pistack:PHE:83    0
Name: 71, dtype: object

>  <hydroph_interaction:VAL:84>  (72) 
hydroph_interaction:VAL:84    0
hydroph_interaction:VAL:84    0
Name: 71, dtype: object

>  <hbond:VAL:84>  (72) 
hbond:VAL:84    0
hbond:VAL:84    0
Name: 71, dtype: object

>  <halogenbond:VAL:84>  (72) 
halogenbond:VAL:84    0
halogenbond:VAL:84    0
Name: 71, dtype: object

>  <hydroph_interaction:GLU:85>  (72) 
hydroph_interaction:GLU:85    0
hydroph_interaction:GLU:85    0
Name: 71, dtype: object

>  <hbond:GLU:85>  (72) 
hbond:GLU:85    0
hbond:GLU:85    0
Name: 71, dtype: object

>  <saltbridge:GLU:85>  (72) 
saltbridge:GLU:85    0
saltbridge:GLU:85    0
Name: 71, dtype: object

>  <halogenbond:GLU:85>  (72) 
halogenbond:GLU:85    0
halogenbond:GLU:85    0
Name: 71, dtype: object

>  <hbond:ALA:86>  (72) 
hbond:ALA:86    0
hbond:ALA:86    0
Name: 71, dtype: object

>  <halogenbond:ALA:86>  (72) 
halogenbond:ALA:86    0
halogenbond:ALA:86    0
Name: 71, dtype: object

>  <hydroph_interaction:ALA:86>  (72) 
hydroph_interaction:ALA:86    0
hydroph_interaction:ALA:86    0
Name: 71, dtype: object

>  <hbond:SER:87>  (72) 
hbond:SER:87    1
hbond:SER:87    1
Name: 71, dtype: object

>  <halogenbond:SER:87>  (72) 
halogenbond:SER:87    0
halogenbond:SER:87    0
Name: 71, dtype: object

>  <hbond:GLU:88>  (72) 
hbond:GLU:88    0
hbond:GLU:88    0
Name: 71, dtype: object

>  <hydroph_interaction:GLU:88>  (72) 
hydroph_interaction:GLU:88    0
hydroph_interaction:GLU:88    0
Name: 71, dtype: object

>  <halogenbond:GLU:88>  (72) 
halogenbond:GLU:88    0
halogenbond:GLU:88    0
Name: 71, dtype: object

>  <saltbridge:GLU:88>  (72) 
saltbridge:GLU:88    0
saltbridge:GLU:88    0
Name: 71, dtype: object

>  <hydroph_interaction:TYR:89>  (72) 
hydroph_interaction:TYR:89    1
hydroph_interaction:TYR:89    1
Name: 71, dtype: object

>  <pistack:TYR:89>  (72) 
pistack:TYR:89    0
pistack:TYR:89    0
Name: 71, dtype: object

>  <hbond:TYR:89>  (72) 
hbond:TYR:89    0
hbond:TYR:89    0
Name: 71, dtype: object

>  <halogenbond:TYR:89>  (72) 
halogenbond:TYR:89    0
halogenbond:TYR:89    0
Name: 71, dtype: object

>  <hbond:TYR:90>  (72) 
hbond:TYR:90    0
hbond:TYR:90    0
Name: 71, dtype: object

>  <hydroph_interaction:TYR:90>  (72) 
hydroph_interaction:TYR:90    1
hydroph_interaction:TYR:90    1
Name: 71, dtype: object

>  <pistack:TYR:90>  (72) 
pistack:TYR:90    1
pistack:TYR:90    1
Name: 71, dtype: object

>  <halogenbond:TYR:90>  (72) 
halogenbond:TYR:90    0
halogenbond:TYR:90    0
Name: 71, dtype: object

>  <pication:TYR:90>  (72) 
pication:TYR:90    0
pication:TYR:90    0
Name: 71, dtype: object

>  <hydroph_interaction:PRO:91>  (72) 
hydroph_interaction:PRO:91    0
hydroph_interaction:PRO:91    0
Name: 71, dtype: object

>  <halogenbond:PRO:91>  (72) 
halogenbond:PRO:91    0
halogenbond:PRO:91    0
Name: 71, dtype: object

>  <hbond:PRO:91>  (72) 
hbond:PRO:91    0
hbond:PRO:91    0
Name: 71, dtype: object

>  <hydroph_interaction:ALA:92>  (72) 
hydroph_interaction:ALA:92    0
hydroph_interaction:ALA:92    0
Name: 71, dtype: object

>  <hbond:ARG:93>  (72) 
hbond:ARG:93    0
hbond:ARG:93    0
Name: 71, dtype: object

>  <pication:ARG:93>  (72) 
pication:ARG:93    0
pication:ARG:93    0
Name: 71, dtype: object

>  <saltbridge:ARG:93>  (72) 
saltbridge:ARG:93    0
saltbridge:ARG:93    0
Name: 71, dtype: object

>  <hydroph_interaction:ARG:93>  (72) 
hydroph_interaction:ARG:93    0
hydroph_interaction:ARG:93    0
Name: 71, dtype: object

>  <halogenbond:ARG:93>  (72) 
halogenbond:ARG:93    0
halogenbond:ARG:93    0
Name: 71, dtype: object

>  <hydroph_interaction:TYR:94>  (72) 
hydroph_interaction:TYR:94    0
hydroph_interaction:TYR:94    0
Name: 71, dtype: object

>  <hbond:TYR:94>  (72) 
hbond:TYR:94    0
hbond:TYR:94    0
Name: 71, dtype: object

>  <halogenbond:GLN:95>  (72) 
halogenbond:GLN:95    0
halogenbond:GLN:95    0
Name: 71, dtype: object

>  <hbond:GLN:95>  (72) 
hbond:GLN:95    0
hbond:GLN:95    0
Name: 71, dtype: object

>  <hydroph_interaction:GLN:95>  (72) 
hydroph_interaction:GLN:95    0
hydroph_interaction:GLN:95    0
Name: 71, dtype: object

>  <hbond:SER:96>  (72) 
hbond:SER:96    0
hbond:SER:96    0
Name: 71, dtype: object

>  <hydroph_interaction:LEU:98>  (72) 
hydroph_interaction:LEU:98    0
hydroph_interaction:LEU:98    0
Name: 71, dtype: object

>  <hbond:LEU:98>  (72) 
hbond:LEU:98    0
hbond:LEU:98    0
Name: 71, dtype: object

>  <hbond:MET:99>  (72) 
hbond:MET:99    0
hbond:MET:99    0
Name: 71, dtype: object

>  <hydroph_interaction:MET:99>  (72) 
hydroph_interaction:MET:99    0
hydroph_interaction:MET:99    0
Name: 71, dtype: object

>  <halogenbond:MET:99>  (72) 
halogenbond:MET:99    0
halogenbond:MET:99    0
Name: 71, dtype: object

>  <hydroph_interaction:LEU:100>  (72) 
hydroph_interaction:LEU:100    0
hydroph_interaction:LEU:100    0
Name: 71, dtype: object

>  <hbond:LEU:100>  (72) 
hbond:LEU:100    0
hbond:LEU:100    0
Name: 71, dtype: object

>  <hbond:ALA:101>  (72) 
hbond:ALA:101    0
hbond:ALA:101    0
Name: 71, dtype: object

>  <hydroph_interaction:ALA:101>  (72) 
hydroph_interaction:ALA:101    0
hydroph_interaction:ALA:101    0
Name: 71, dtype: object

>  <hydroph_interaction:VAL:102>  (72) 
hydroph_interaction:VAL:102    0
hydroph_interaction:VAL:102    0
Name: 71, dtype: object

>  <hbond:VAL:102>  (72) 
hbond:VAL:102    0
hbond:VAL:102    0
Name: 71, dtype: object

>  <hbond:GLY:103>  (72) 
hbond:GLY:103    0
hbond:GLY:103    0
Name: 71, dtype: object

>  <halogenbond:GLY:103>  (72) 
halogenbond:GLY:103    0
halogenbond:GLY:103    0
Name: 71, dtype: object

>  <hydroph_interaction:HIS:104>  (72) 
hydroph_interaction:HIS:104    0
hydroph_interaction:HIS:104    0
Name: 71, dtype: object

>  <hbond:HIS:104>  (72) 
hbond:HIS:104    0
hbond:HIS:104    0
Name: 71, dtype: object

>  <saltbridge:HIS:104>  (72) 
saltbridge:HIS:104    0
saltbridge:HIS:104    0
Name: 71, dtype: object

>  <pication:HIS:104>  (72) 
pication:HIS:104    0
pication:HIS:104    0
Name: 71, dtype: object

>  <pistack:HIS:104>  (72) 
pistack:HIS:104    0
pistack:HIS:104    0
Name: 71, dtype: object

>  <halogenbond:HIS:104>  (72) 
halogenbond:HIS:104    0
halogenbond:HIS:104    0
Name: 71, dtype: object

>  <hbond:SER:105>  (72) 
hbond:SER:105    0
hbond:SER:105    0
Name: 71, dtype: object

>  <halogenbond:SER:105>  (72) 
halogenbond:SER:105    1
halogenbond:SER:105    1
Name: 71, dtype: object

>  <hbond:GLU:106>  (72) 
hbond:GLU:106    0
hbond:GLU:106    0
Name: 71, dtype: object

>  <hydroph_interaction:GLU:106>  (72) 
hydroph_interaction:GLU:106    0
hydroph_interaction:GLU:106    0
Name: 71, dtype: object

>  <saltbridge:GLU:106>  (72) 
saltbridge:GLU:106    0
saltbridge:GLU:106    0
Name: 71, dtype: object

>  <halogenbond:GLU:106>  (72) 
halogenbond:GLU:106    0
halogenbond:GLU:106    0
Name: 71, dtype: object

>  <hydroph_interaction:PRO:107>  (72) 
hydroph_interaction:PRO:107    1
hydroph_interaction:PRO:107    1
Name: 71, dtype: object

>  <hbond:PRO:107>  (72) 
hbond:PRO:107    0
hbond:PRO:107    0
Name: 71, dtype: object

>  <halogenbond:PRO:107>  (72) 
halogenbond:PRO:107    0
halogenbond:PRO:107    0
Name: 71, dtype: object

>  <hbond:GLY:108>  (72) 
hbond:GLY:108    0
hbond:GLY:108    0
Name: 71, dtype: object

>  <halogenbond:GLY:108>  (72) 
halogenbond:GLY:108    0
halogenbond:GLY:108    0
Name: 71, dtype: object

>  <hbond:ASP:109>  (72) 
hbond:ASP:109    0
hbond:ASP:109    0
Name: 71, dtype: object

>  <hydroph_interaction:ASP:109>  (72) 
hydroph_interaction:ASP:109    0
hydroph_interaction:ASP:109    0
Name: 71, dtype: object

>  <saltbridge:ASP:109>  (72) 
saltbridge:ASP:109    0
saltbridge:ASP:109    0
Name: 71, dtype: object

>  <hbond:CYS:110>  (72) 
hbond:CYS:110    0
hbond:CYS:110    0
Name: 71, dtype: object

>  <halogenbond:CYS:110>  (72) 
halogenbond:CYS:110    0
halogenbond:CYS:110    0
Name: 71, dtype: object

>  <hbond:GLY:111>  (72) 
hbond:GLY:111    0
hbond:GLY:111    0
Name: 71, dtype: object

>  <hbond:GLY:112>  (72) 
hbond:GLY:112    0
hbond:GLY:112    0
Name: 71, dtype: object

>  <hbond:ILE:113>  (72) 
hbond:ILE:113    0
hbond:ILE:113    0
Name: 71, dtype: object

>  <hydroph_interaction:LEU:114>  (72) 
hydroph_interaction:LEU:114    0
hydroph_interaction:LEU:114    0
Name: 71, dtype: object

>  <hbond:LEU:114>  (72) 
hbond:LEU:114    0
hbond:LEU:114    0
Name: 71, dtype: object

>  <hydroph_interaction:ILE:123>  (72) 
hydroph_interaction:ILE:123    0
hydroph_interaction:ILE:123    0
Name: 71, dtype: object

>  <hbond:ILE:123>  (72) 
hbond:ILE:123    0
hbond:ILE:123    0
Name: 71, dtype: object

>  <hydroph_interaction:VAL:124>  (72) 
hydroph_interaction:VAL:124    0
hydroph_interaction:VAL:124    0
Name: 71, dtype: object

>  <hbond:VAL:124>  (72) 
hbond:VAL:124    0
hbond:VAL:124    0
Name: 71, dtype: object

>  <halogenbond:VAL:124>  (72) 
halogenbond:VAL:124    0
halogenbond:VAL:124    0
Name: 71, dtype: object

>  <hbond:SER:125>  (72) 
hbond:SER:125    1
hbond:SER:125    1
Name: 71, dtype: object

>  <halogenbond:SER:125>  (72) 
halogenbond:SER:125    0
halogenbond:SER:125    0
Name: 71, dtype: object

>  <hydroph_interaction:THR:126>  (72) 
hydroph_interaction:THR:126    0
hydroph_interaction:THR:126    0
Name: 71, dtype: object

>  <hbond:THR:126>  (72) 
hbond:THR:126    0
hbond:THR:126    0
Name: 71, dtype: object

>  <halogenbond:THR:126>  (72) 
halogenbond:THR:126    0
halogenbond:THR:126    0
Name: 71, dtype: object

>  <hbond:GLY:127>  (72) 
hbond:GLY:127    0
hbond:GLY:127    0
Name: 71, dtype: object

>  <halogenbond:GLY:127>  (72) 
halogenbond:GLY:127    0
halogenbond:GLY:127    0
Name: 71, dtype: object

>  <hydroph_interaction:GLY:127>  (72) 
hydroph_interaction:GLY:127    0
hydroph_interaction:GLY:127    0
Name: 71, dtype: object

>  <hbond:GLY:128>  (72) 
hbond:GLY:128    0
hbond:GLY:128    0
Name: 71, dtype: object

>  <halogenbond:GLY:128>  (72) 
halogenbond:GLY:128    0
halogenbond:GLY:128    0
Name: 71, dtype: object

>  <hydroph_interaction:GLY:128>  (72) 
hydroph_interaction:GLY:128    0
hydroph_interaction:GLY:128    0
Name: 71, dtype: object

>  <hbond:ASN:129>  (72) 
hbond:ASN:129    0
hbond:ASN:129    0
Name: 71, dtype: object

>  <hydroph_interaction:ASN:129>  (72) 
hydroph_interaction:ASN:129    0
hydroph_interaction:ASN:129    0
Name: 71, dtype: object

>  <halogenbond:ASN:129>  (72) 
halogenbond:ASN:129    0
halogenbond:ASN:129    0
Name: 71, dtype: object

>  <hbond:GLY:130>  (72) 
hbond:GLY:130    0
hbond:GLY:130    0
Name: 71, dtype: object

>  <hydroph_interaction:LEU:131>  (72) 
hydroph_interaction:LEU:131    0
hydroph_interaction:LEU:131    0
Name: 71, dtype: object

>  <hbond:LEU:131>  (72) 
hbond:LEU:131    0
hbond:LEU:131    0
Name: 71, dtype: object

>  <halogenbond:LEU:131>  (72) 
halogenbond:LEU:131    0
halogenbond:LEU:131    0
Name: 71, dtype: object

>  <hydroph_interaction:VAL:132>  (72) 
hydroph_interaction:VAL:132    0
hydroph_interaction:VAL:132    0
Name: 71, dtype: object

>  <hbond:VAL:132>  (72) 
hbond:VAL:132    0
hbond:VAL:132    0
Name: 71, dtype: object

>  <hbond:GLY:133>  (72) 
hbond:GLY:133    0
hbond:GLY:133    0
Name: 71, dtype: object

>  <halogenbond:GLY:133>  (72) 
halogenbond:GLY:133    0
halogenbond:GLY:133    0
Name: 71, dtype: object

>  <hydroph_interaction:PHE:134>  (72) 
hydroph_interaction:PHE:134    0
hydroph_interaction:PHE:134    0
Name: 71, dtype: object

>  <hbond:PHE:134>  (72) 
hbond:PHE:134    0
hbond:PHE:134    0
Name: 71, dtype: object

>  <pistack:PHE:134>  (72) 
pistack:PHE:134    0
pistack:PHE:134    0
Name: 71, dtype: object

>  <pication:PHE:134>  (72) 
pication:PHE:134    0
pication:PHE:134    0
Name: 71, dtype: object

>  <hydroph_interaction:ALA:135>  (72) 
hydroph_interaction:ALA:135    0
hydroph_interaction:ALA:135    0
Name: 71, dtype: object

>  <hbond:ALA:135>  (72) 
hbond:ALA:135    0
hbond:ALA:135    0
Name: 71, dtype: object

$$$$
Z5388342866
     RDKit          3D

 43 44  0  0  0  0  0  0  0  0999 V2000
   15.4250   20.6750   17.2380 C   0  0  0  0  0  0  0  0  0  0  0  0
   14.5280   19.9710   16.3860 O   0  0  0  0  0  0  0  0  0  0  0  0
   14.6510   18.6300   16.4990 C   0  0  0  0  0  0  0  0  0  0  0  0
   15.4310   18.0590   15.7720 O   0  0  0  0  0  0  0  0  0  0  0  0
   13.8810   17.8520   17.5890 C   0  0  0  0  0  0  0  0  0  0  0  0
   12.5170   17.1330   17.5290 C   0  0  0  0  0  0  0  0  0  0  0  0
   11.7860   17.1720   16.3020 C   0  0  0  0  0  0  0  0  0  0  0  0
   12.2580   16.5420   18.8700 N   0  0  0  0  0  0  0  0  0  0  0  0
   11.1380   15.7680   19.4120 C   0  0  0  0  0  0  0  0  0  0  0  0
   11.5370   14.7670   20.4590 C   0  0  0  0  0  0  0  0  0  0  0  0
   11.7400   15.2820   21.8400 N   0  0  0  0  0  0  0  0  0  0  0  0
   11.1830   14.4540   22.9270 C   0  0  0  0  0  0  0  0  0  0  0  0
   11.2970   14.6810   24.1280 O   0  0  0  0  0  0  0  0  0  0  0  0
   10.4610   13.2540   22.3680 C   0  0  1  0  0  0  0  0  0  0  0  0
   11.5040   12.4660   21.9110 O   0  0  0  0  0  0  0  0  0  0  0  0
    9.5980   12.3390   23.2580 C   0  0  0  0  0  0  0  0  0  0  0  0
    9.9210   10.9330   23.0180 C   0  0  0  0  0  0  0  0  0  0  0  0
    9.1440    9.9470   23.8150 C   0  0  0  0  0  0  0  0  0  0  0  0
    8.1770   10.4010   24.7200 C   0  0  0  0  0  0  0  0  0  0  0  0
    7.9220   11.7540   24.8980 C   0  0  0  0  0  0  0  0  0  0  0  0
    8.6250   12.7240   24.1760 C   0  0  0  0  0  0  0  0  0  0  0  0
   13.3550   16.8840   19.6360 C   0  0  0  0  0  0  0  0  0  0  0  0
   14.2950   17.6520   18.9100 C   0  0  0  0  0  0  0  0  0  0  0  0
   16.4540   20.5730   16.8930 H   0  0  0  0  0  0  0  0  0  0  0  0
   15.3490   20.3140   18.2670 H   0  0  0  0  0  0  0  0  0  0  0  0
   15.1680   21.7380   17.2300 H   0  0  0  0  0  0  0  0  0  0  0  0
   10.7790   17.4920   16.5420 H   0  0  0  0  0  0  0  0  0  0  0  0
   11.6600   16.1720   15.9360 H   0  0  0  0  0  0  0  0  0  0  0  0
   12.0610   17.7630   15.4410 H   0  0  0  0  0  0  0  0  0  0  0  0
   10.6600   15.2670   18.5620 H   0  0  0  0  0  0  0  0  0  0  0  0
   10.3980   16.4780   19.7980 H   0  0  0  0  0  0  0  0  0  0  0  0
   12.4440   14.2310   20.1540 H   0  0  0  0  0  0  0  0  0  0  0  0
   10.7370   14.0310   20.5440 H   0  0  0  0  0  0  0  0  0  0  0  0
   12.6200   15.7390   22.0590 H   0  0  0  0  0  0  0  0  0  0  0  0
    9.8730   13.5900   21.5120 H   0  0  0  0  0  0  0  0  0  0  0  0
   11.6890   12.7540   20.9970 H   0  0  0  0  0  0  0  0  0  0  0  0
   10.6460   10.5020   22.3390 H   0  0  0  0  0  0  0  0  0  0  0  0
    9.3300    8.9020   23.6910 H   0  0  0  0  0  0  0  0  0  0  0  0
    7.6050    9.6900   25.3020 H   0  0  0  0  0  0  0  0  0  0  0  0
    7.1640   12.0650   25.6100 H   0  0  0  0  0  0  0  0  0  0  0  0
    8.4060   13.7750   24.3330 H   0  0  0  0  0  0  0  0  0  0  0  0
   13.4910   16.6110   20.6770 H   0  0  0  0  0  0  0  0  0  0  0  0
   15.1970   18.0190   19.3480 H   0  0  0  0  0  0  0  0  0  0  0  0
  1  2  1  0
  2  3  1  0
  3  4  2  0
  3  5  1  0
  5  6  2  0
  6  7  1  0
  6  8  1  0
  8  9  1  0
  9 10  1  0
 10 11  1  0
 11 12  1  0
 12 13  2  0
 12 14  1  0
 14 15  1  0
 14 16  1  0
 16 17  2  0
 17 18  1  0
 18 19  2  0
 19 20  1  0
 20 21  2  0
  8 22  1  0
 22 23  2  0
 23  5  1  0
 21 16  1  0
  1 24  1  0
  1 25  1  0
  1 26  1  0
  7 27  1  0
  7 28  1  0
  7 29  1  0
  9 30  1  0
  9 31  1  0
 10 32  1  0
 10 33  1  0
 11 34  1  0
 14 35  1  6
 15 36  1  0
 17 37  1  0
 18 38  1  0
 19 39  1  0
 20 40  1  0
 21 41  1  0
 22 42  1  0
 23 43  1  0
A    1
 C1 
A    2
 O1 
A    3
 C2 
A    4
 O2 
A    5
 C3 
A    6
 C4 
A    7
 C5 
A    8
 N1 
A    9
 C6 
A   10
 C7 
A   11
 N2 
A   12
 C8 
A   13
 O3 
A   14
 C9 
A   15
 O4 
A   16
 C10
A   17
 C11
A   18
 C12
A   19
 C13
A   20
 C14
A   21
 C15
A   22
 C16
A   23
 C17
A   24
 H1 
A   25
 H2 
A   26
 H3 
A   27
 H4 
A   28
 H5 
A   29
 H6 
A   30
 H7 
A   31
 H8 
A   32
 H9 
A   33
 H10
A   34
 H11
A   35
 H12
A   36
 H13
A   37
 H14
A   38
 H15
A   39
 H16
A   40
 H17
A   41
 H18
A   42
 H19
A   43
 H20
M  END
>  <ref_pdb>  (73) 
x0310_0A

>  <ref_mols>  (73) 
x0554_0A,x0310_0A

>  <original SMILES>  (73) 
COC(=O)c1ccn(CCNC(=O)[C@@H](O)c2ccccc2)c1C

>  <rationale>  (73) 
info hbond:S87+D39; hydroph_interaction:P107+Y89+Y90+H21; saltbridge:R20; 

>  <intxn_cluster>  (73) 
204

>  <intxn_cluster_rank>  (73) 
22

>  <N_interactions>  (73) 
8

>  <∆∆G>  (73) 
-7.668669

>  <$/mg>  (73) 
nan

>  <comRMSD>  (73) 
0.82525

>  <N_rotatable_bonds>  (73) 
9

>  <N_analogues_07>  (73) 
3

>  <deep_P1_sidechain>  (73) 
False

>  <farthest_distance_to_substrate>  (73) 
4.55713

>  <hbond:SER:7>  (73) 
hbond:SER:7    0
hbond:SER:7    0
Name: 72, dtype: object

>  <halogenbond:SER:7>  (73) 
halogenbond:SER:7    0
halogenbond:SER:7    0
Name: 72, dtype: object

>  <hbond:GLY:8>  (73) 
hbond:GLY:8    0
hbond:GLY:8    0
Name: 72, dtype: object

>  <hydroph_interaction:ASN:19>  (73) 
hydroph_interaction:ASN:19    0
hydroph_interaction:ASN:19    0
Name: 72, dtype: object

>  <hbond:ASN:19>  (73) 
hbond:ASN:19    0
hbond:ASN:19    0
Name: 72, dtype: object

>  <halogenbond:ASN:19>  (73) 
halogenbond:ASN:19    0
halogenbond:ASN:19    0
Name: 72, dtype: object

>  <hbond:ARG:20>  (73) 
hbond:ARG:20    0
hbond:ARG:20    0
Name: 72, dtype: object

>  <hydroph_interaction:ARG:20>  (73) 
hydroph_interaction:ARG:20    0
hydroph_interaction:ARG:20    0
Name: 72, dtype: object

>  <saltbridge:ARG:20>  (73) 
saltbridge:ARG:20    1
saltbridge:ARG:20    1
Name: 72, dtype: object

>  <halogenbond:ARG:20>  (73) 
halogenbond:ARG:20    0
halogenbond:ARG:20    0
Name: 72, dtype: object

>  <pication:ARG:20>  (73) 
pication:ARG:20    0
pication:ARG:20    0
Name: 72, dtype: object

>  <hbond:HIS:21>  (73) 
hbond:HIS:21    0
hbond:HIS:21    0
Name: 72, dtype: object

>  <hydroph_interaction:HIS:21>  (73) 
hydroph_interaction:HIS:21    1
hydroph_interaction:HIS:21    1
Name: 72, dtype: object

>  <saltbridge:HIS:21>  (73) 
saltbridge:HIS:21    0
saltbridge:HIS:21    0
Name: 72, dtype: object

>  <pistack:HIS:21>  (73) 
pistack:HIS:21    0
pistack:HIS:21    0
Name: 72, dtype: object

>  <pication:HIS:21>  (73) 
pication:HIS:21    0
pication:HIS:21    0
Name: 72, dtype: object

>  <halogenbond:HIS:21>  (73) 
halogenbond:HIS:21    0
halogenbond:HIS:21    0
Name: 72, dtype: object

>  <hydroph_interaction:LEU:22>  (73) 
hydroph_interaction:LEU:22    0
hydroph_interaction:LEU:22    0
Name: 72, dtype: object

>  <hbond:LEU:22>  (73) 
hbond:LEU:22    0
hbond:LEU:22    0
Name: 72, dtype: object

>  <hydroph_interaction:TRP:28>  (73) 
hydroph_interaction:TRP:28    0
hydroph_interaction:TRP:28    0
Name: 72, dtype: object

>  <hbond:SER:36>  (73) 
hbond:SER:36    0
hbond:SER:36    0
Name: 72, dtype: object

>  <halogenbond:SER:36>  (73) 
halogenbond:SER:36    0
halogenbond:SER:36    0
Name: 72, dtype: object

>  <hbond:ARG:38>  (73) 
hbond:ARG:38    0
hbond:ARG:38    0
Name: 72, dtype: object

>  <halogenbond:ARG:38>  (73) 
halogenbond:ARG:38    0
halogenbond:ARG:38    0
Name: 72, dtype: object

>  <hbond:ASP:39>  (73) 
hbond:ASP:39    1
hbond:ASP:39    1
Name: 72, dtype: object

>  <saltbridge:ASP:39>  (73) 
saltbridge:ASP:39    0
saltbridge:ASP:39    0
Name: 72, dtype: object

>  <hydroph_interaction:ASP:39>  (73) 
hydroph_interaction:ASP:39    0
hydroph_interaction:ASP:39    0
Name: 72, dtype: object

>  <halogenbond:ASP:39>  (73) 
halogenbond:ASP:39    0
halogenbond:ASP:39    0
Name: 72, dtype: object

>  <hydroph_interaction:LEU:40>  (73) 
hydroph_interaction:LEU:40    0
hydroph_interaction:LEU:40    0
Name: 72, dtype: object

>  <hydroph_interaction:TYR:63>  (73) 
hydroph_interaction:TYR:63    0
hydroph_interaction:TYR:63    0
Name: 72, dtype: object

>  <pistack:TYR:63>  (73) 
pistack:TYR:63    0
pistack:TYR:63    0
Name: 72, dtype: object

>  <hbond:TYR:63>  (73) 
hbond:TYR:63    0
hbond:TYR:63    0
Name: 72, dtype: object

>  <hbond:TYR:64>  (73) 
hbond:TYR:64    0
hbond:TYR:64    0
Name: 72, dtype: object

>  <halogenbond:TYR:64>  (73) 
halogenbond:TYR:64    0
halogenbond:TYR:64    0
Name: 72, dtype: object

>  <hydroph_interaction:TYR:64>  (73) 
hydroph_interaction:TYR:64    0
hydroph_interaction:TYR:64    0
Name: 72, dtype: object

>  <hbond:CYS:65>  (73) 
hbond:CYS:65    0
hbond:CYS:65    0
Name: 72, dtype: object

>  <halogenbond:CYS:65>  (73) 
halogenbond:CYS:65    0
halogenbond:CYS:65    0
Name: 72, dtype: object

>  <hbond:SER:66>  (73) 
hbond:SER:66    0
hbond:SER:66    0
Name: 72, dtype: object

>  <hbond:SER:67>  (73) 
hbond:SER:67    0
hbond:SER:67    0
Name: 72, dtype: object

>  <halogenbond:SER:67>  (73) 
halogenbond:SER:67    0
halogenbond:SER:67    0
Name: 72, dtype: object

>  <hydroph_interaction:ARG:68>  (73) 
hydroph_interaction:ARG:68    0
hydroph_interaction:ARG:68    0
Name: 72, dtype: object

>  <hbond:ARG:68>  (73) 
hbond:ARG:68    0
hbond:ARG:68    0
Name: 72, dtype: object

>  <saltbridge:ARG:68>  (73) 
saltbridge:ARG:68    0
saltbridge:ARG:68    0
Name: 72, dtype: object

>  <pication:ARG:68>  (73) 
pication:ARG:68    0
pication:ARG:68    0
Name: 72, dtype: object

>  <hydroph_interaction:TYR:72>  (73) 
hydroph_interaction:TYR:72    0
hydroph_interaction:TYR:72    0
Name: 72, dtype: object

>  <hydroph_interaction:VAL:74>  (73) 
hydroph_interaction:VAL:74    0
hydroph_interaction:VAL:74    0
Name: 72, dtype: object

>  <hydroph_interaction:PHE:76>  (73) 
hydroph_interaction:PHE:76    0
hydroph_interaction:PHE:76    0
Name: 72, dtype: object

>  <hbond:SER:77>  (73) 
hbond:SER:77    0
hbond:SER:77    0
Name: 72, dtype: object

>  <hbond:SER:80>  (73) 
hbond:SER:80    0
hbond:SER:80    0
Name: 72, dtype: object

>  <hbond:LEU:81>  (73) 
hbond:LEU:81    0
hbond:LEU:81    0
Name: 72, dtype: object

>  <halogenbond:LEU:81>  (73) 
halogenbond:LEU:81    0
halogenbond:LEU:81    0
Name: 72, dtype: object

>  <hydroph_interaction:LEU:81>  (73) 
hydroph_interaction:LEU:81    0
hydroph_interaction:LEU:81    0
Name: 72, dtype: object

>  <hydroph_interaction:ILE:82>  (73) 
hydroph_interaction:ILE:82    0
hydroph_interaction:ILE:82    0
Name: 72, dtype: object

>  <hbond:ILE:82>  (73) 
hbond:ILE:82    0
hbond:ILE:82    0
Name: 72, dtype: object

>  <hydroph_interaction:PHE:83>  (73) 
hydroph_interaction:PHE:83    0
hydroph_interaction:PHE:83    0
Name: 72, dtype: object

>  <hbond:PHE:83>  (73) 
hbond:PHE:83    0
hbond:PHE:83    0
Name: 72, dtype: object

>  <halogenbond:PHE:83>  (73) 
halogenbond:PHE:83    0
halogenbond:PHE:83    0
Name: 72, dtype: object

>  <pistack:PHE:83>  (73) 
pistack:PHE:83    0
pistack:PHE:83    0
Name: 72, dtype: object

>  <hydroph_interaction:VAL:84>  (73) 
hydroph_interaction:VAL:84    0
hydroph_interaction:VAL:84    0
Name: 72, dtype: object

>  <hbond:VAL:84>  (73) 
hbond:VAL:84    0
hbond:VAL:84    0
Name: 72, dtype: object

>  <halogenbond:VAL:84>  (73) 
halogenbond:VAL:84    0
halogenbond:VAL:84    0
Name: 72, dtype: object

>  <hydroph_interaction:GLU:85>  (73) 
hydroph_interaction:GLU:85    0
hydroph_interaction:GLU:85    0
Name: 72, dtype: object

>  <hbond:GLU:85>  (73) 
hbond:GLU:85    0
hbond:GLU:85    0
Name: 72, dtype: object

>  <saltbridge:GLU:85>  (73) 
saltbridge:GLU:85    0
saltbridge:GLU:85    0
Name: 72, dtype: object

>  <halogenbond:GLU:85>  (73) 
halogenbond:GLU:85    0
halogenbond:GLU:85    0
Name: 72, dtype: object

>  <hbond:ALA:86>  (73) 
hbond:ALA:86    0
hbond:ALA:86    0
Name: 72, dtype: object

>  <halogenbond:ALA:86>  (73) 
halogenbond:ALA:86    0
halogenbond:ALA:86    0
Name: 72, dtype: object

>  <hydroph_interaction:ALA:86>  (73) 
hydroph_interaction:ALA:86    0
hydroph_interaction:ALA:86    0
Name: 72, dtype: object

>  <hbond:SER:87>  (73) 
hbond:SER:87    1
hbond:SER:87    1
Name: 72, dtype: object

>  <halogenbond:SER:87>  (73) 
halogenbond:SER:87    0
halogenbond:SER:87    0
Name: 72, dtype: object

>  <hbond:GLU:88>  (73) 
hbond:GLU:88    0
hbond:GLU:88    0
Name: 72, dtype: object

>  <hydroph_interaction:GLU:88>  (73) 
hydroph_interaction:GLU:88    0
hydroph_interaction:GLU:88    0
Name: 72, dtype: object

>  <halogenbond:GLU:88>  (73) 
halogenbond:GLU:88    0
halogenbond:GLU:88    0
Name: 72, dtype: object

>  <saltbridge:GLU:88>  (73) 
saltbridge:GLU:88    0
saltbridge:GLU:88    0
Name: 72, dtype: object

>  <hydroph_interaction:TYR:89>  (73) 
hydroph_interaction:TYR:89    1
hydroph_interaction:TYR:89    1
Name: 72, dtype: object

>  <pistack:TYR:89>  (73) 
pistack:TYR:89    0
pistack:TYR:89    0
Name: 72, dtype: object

>  <hbond:TYR:89>  (73) 
hbond:TYR:89    0
hbond:TYR:89    0
Name: 72, dtype: object

>  <halogenbond:TYR:89>  (73) 
halogenbond:TYR:89    0
halogenbond:TYR:89    0
Name: 72, dtype: object

>  <hbond:TYR:90>  (73) 
hbond:TYR:90    0
hbond:TYR:90    0
Name: 72, dtype: object

>  <hydroph_interaction:TYR:90>  (73) 
hydroph_interaction:TYR:90    2
hydroph_interaction:TYR:90    2
Name: 72, dtype: object

>  <pistack:TYR:90>  (73) 
pistack:TYR:90    0
pistack:TYR:90    0
Name: 72, dtype: object

>  <halogenbond:TYR:90>  (73) 
halogenbond:TYR:90    0
halogenbond:TYR:90    0
Name: 72, dtype: object

>  <pication:TYR:90>  (73) 
pication:TYR:90    0
pication:TYR:90    0
Name: 72, dtype: object

>  <hydroph_interaction:PRO:91>  (73) 
hydroph_interaction:PRO:91    0
hydroph_interaction:PRO:91    0
Name: 72, dtype: object

>  <halogenbond:PRO:91>  (73) 
halogenbond:PRO:91    0
halogenbond:PRO:91    0
Name: 72, dtype: object

>  <hbond:PRO:91>  (73) 
hbond:PRO:91    0
hbond:PRO:91    0
Name: 72, dtype: object

>  <hydroph_interaction:ALA:92>  (73) 
hydroph_interaction:ALA:92    0
hydroph_interaction:ALA:92    0
Name: 72, dtype: object

>  <hbond:ARG:93>  (73) 
hbond:ARG:93    0
hbond:ARG:93    0
Name: 72, dtype: object

>  <pication:ARG:93>  (73) 
pication:ARG:93    0
pication:ARG:93    0
Name: 72, dtype: object

>  <saltbridge:ARG:93>  (73) 
saltbridge:ARG:93    0
saltbridge:ARG:93    0
Name: 72, dtype: object

>  <hydroph_interaction:ARG:93>  (73) 
hydroph_interaction:ARG:93    0
hydroph_interaction:ARG:93    0
Name: 72, dtype: object

>  <halogenbond:ARG:93>  (73) 
halogenbond:ARG:93    0
halogenbond:ARG:93    0
Name: 72, dtype: object

>  <hydroph_interaction:TYR:94>  (73) 
hydroph_interaction:TYR:94    0
hydroph_interaction:TYR:94    0
Name: 72, dtype: object

>  <hbond:TYR:94>  (73) 
hbond:TYR:94    0
hbond:TYR:94    0
Name: 72, dtype: object

>  <halogenbond:GLN:95>  (73) 
halogenbond:GLN:95    0
halogenbond:GLN:95    0
Name: 72, dtype: object

>  <hbond:GLN:95>  (73) 
hbond:GLN:95    0
hbond:GLN:95    0
Name: 72, dtype: object

>  <hydroph_interaction:GLN:95>  (73) 
hydroph_interaction:GLN:95    0
hydroph_interaction:GLN:95    0
Name: 72, dtype: object

>  <hbond:SER:96>  (73) 
hbond:SER:96    0
hbond:SER:96    0
Name: 72, dtype: object

>  <hydroph_interaction:LEU:98>  (73) 
hydroph_interaction:LEU:98    0
hydroph_interaction:LEU:98    0
Name: 72, dtype: object

>  <hbond:LEU:98>  (73) 
hbond:LEU:98    0
hbond:LEU:98    0
Name: 72, dtype: object

>  <hbond:MET:99>  (73) 
hbond:MET:99    0
hbond:MET:99    0
Name: 72, dtype: object

>  <hydroph_interaction:MET:99>  (73) 
hydroph_interaction:MET:99    0
hydroph_interaction:MET:99    0
Name: 72, dtype: object

>  <halogenbond:MET:99>  (73) 
halogenbond:MET:99    0
halogenbond:MET:99    0
Name: 72, dtype: object

>  <hydroph_interaction:LEU:100>  (73) 
hydroph_interaction:LEU:100    0
hydroph_interaction:LEU:100    0
Name: 72, dtype: object

>  <hbond:LEU:100>  (73) 
hbond:LEU:100    0
hbond:LEU:100    0
Name: 72, dtype: object

>  <hbond:ALA:101>  (73) 
hbond:ALA:101    0
hbond:ALA:101    0
Name: 72, dtype: object

>  <hydroph_interaction:ALA:101>  (73) 
hydroph_interaction:ALA:101    0
hydroph_interaction:ALA:101    0
Name: 72, dtype: object

>  <hydroph_interaction:VAL:102>  (73) 
hydroph_interaction:VAL:102    0
hydroph_interaction:VAL:102    0
Name: 72, dtype: object

>  <hbond:VAL:102>  (73) 
hbond:VAL:102    0
hbond:VAL:102    0
Name: 72, dtype: object

>  <hbond:GLY:103>  (73) 
hbond:GLY:103    0
hbond:GLY:103    0
Name: 72, dtype: object

>  <halogenbond:GLY:103>  (73) 
halogenbond:GLY:103    0
halogenbond:GLY:103    0
Name: 72, dtype: object

>  <hydroph_interaction:HIS:104>  (73) 
hydroph_interaction:HIS:104    0
hydroph_interaction:HIS:104    0
Name: 72, dtype: object

>  <hbond:HIS:104>  (73) 
hbond:HIS:104    0
hbond:HIS:104    0
Name: 72, dtype: object

>  <saltbridge:HIS:104>  (73) 
saltbridge:HIS:104    0
saltbridge:HIS:104    0
Name: 72, dtype: object

>  <pication:HIS:104>  (73) 
pication:HIS:104    0
pication:HIS:104    0
Name: 72, dtype: object

>  <pistack:HIS:104>  (73) 
pistack:HIS:104    0
pistack:HIS:104    0
Name: 72, dtype: object

>  <halogenbond:HIS:104>  (73) 
halogenbond:HIS:104    0
halogenbond:HIS:104    0
Name: 72, dtype: object

>  <hbond:SER:105>  (73) 
hbond:SER:105    0
hbond:SER:105    0
Name: 72, dtype: object

>  <halogenbond:SER:105>  (73) 
halogenbond:SER:105    0
halogenbond:SER:105    0
Name: 72, dtype: object

>  <hbond:GLU:106>  (73) 
hbond:GLU:106    0
hbond:GLU:106    0
Name: 72, dtype: object

>  <hydroph_interaction:GLU:106>  (73) 
hydroph_interaction:GLU:106    0
hydroph_interaction:GLU:106    0
Name: 72, dtype: object

>  <saltbridge:GLU:106>  (73) 
saltbridge:GLU:106    0
saltbridge:GLU:106    0
Name: 72, dtype: object

>  <halogenbond:GLU:106>  (73) 
halogenbond:GLU:106    0
halogenbond:GLU:106    0
Name: 72, dtype: object

>  <hydroph_interaction:PRO:107>  (73) 
hydroph_interaction:PRO:107    1
hydroph_interaction:PRO:107    1
Name: 72, dtype: object

>  <hbond:PRO:107>  (73) 
hbond:PRO:107    0
hbond:PRO:107    0
Name: 72, dtype: object

>  <halogenbond:PRO:107>  (73) 
halogenbond:PRO:107    0
halogenbond:PRO:107    0
Name: 72, dtype: object

>  <hbond:GLY:108>  (73) 
hbond:GLY:108    0
hbond:GLY:108    0
Name: 72, dtype: object

>  <halogenbond:GLY:108>  (73) 
halogenbond:GLY:108    0
halogenbond:GLY:108    0
Name: 72, dtype: object

>  <hbond:ASP:109>  (73) 
hbond:ASP:109    0
hbond:ASP:109    0
Name: 72, dtype: object

>  <hydroph_interaction:ASP:109>  (73) 
hydroph_interaction:ASP:109    0
hydroph_interaction:ASP:109    0
Name: 72, dtype: object

>  <saltbridge:ASP:109>  (73) 
saltbridge:ASP:109    0
saltbridge:ASP:109    0
Name: 72, dtype: object

>  <hbond:CYS:110>  (73) 
hbond:CYS:110    0
hbond:CYS:110    0
Name: 72, dtype: object

>  <halogenbond:CYS:110>  (73) 
halogenbond:CYS:110    0
halogenbond:CYS:110    0
Name: 72, dtype: object

>  <hbond:GLY:111>  (73) 
hbond:GLY:111    0
hbond:GLY:111    0
Name: 72, dtype: object

>  <hbond:GLY:112>  (73) 
hbond:GLY:112    0
hbond:GLY:112    0
Name: 72, dtype: object

>  <hbond:ILE:113>  (73) 
hbond:ILE:113    0
hbond:ILE:113    0
Name: 72, dtype: object

>  <hydroph_interaction:LEU:114>  (73) 
hydroph_interaction:LEU:114    0
hydroph_interaction:LEU:114    0
Name: 72, dtype: object

>  <hbond:LEU:114>  (73) 
hbond:LEU:114    0
hbond:LEU:114    0
Name: 72, dtype: object

>  <hydroph_interaction:ILE:123>  (73) 
hydroph_interaction:ILE:123    0
hydroph_interaction:ILE:123    0
Name: 72, dtype: object

>  <hbond:ILE:123>  (73) 
hbond:ILE:123    0
hbond:ILE:123    0
Name: 72, dtype: object

>  <hydroph_interaction:VAL:124>  (73) 
hydroph_interaction:VAL:124    0
hydroph_interaction:VAL:124    0
Name: 72, dtype: object

>  <hbond:VAL:124>  (73) 
hbond:VAL:124    0
hbond:VAL:124    0
Name: 72, dtype: object

>  <halogenbond:VAL:124>  (73) 
halogenbond:VAL:124    0
halogenbond:VAL:124    0
Name: 72, dtype: object

>  <hbond:SER:125>  (73) 
hbond:SER:125    0
hbond:SER:125    0
Name: 72, dtype: object

>  <halogenbond:SER:125>  (73) 
halogenbond:SER:125    0
halogenbond:SER:125    0
Name: 72, dtype: object

>  <hydroph_interaction:THR:126>  (73) 
hydroph_interaction:THR:126    0
hydroph_interaction:THR:126    0
Name: 72, dtype: object

>  <hbond:THR:126>  (73) 
hbond:THR:126    0
hbond:THR:126    0
Name: 72, dtype: object

>  <halogenbond:THR:126>  (73) 
halogenbond:THR:126    0
halogenbond:THR:126    0
Name: 72, dtype: object

>  <hbond:GLY:127>  (73) 
hbond:GLY:127    0
hbond:GLY:127    0
Name: 72, dtype: object

>  <halogenbond:GLY:127>  (73) 
halogenbond:GLY:127    0
halogenbond:GLY:127    0
Name: 72, dtype: object

>  <hydroph_interaction:GLY:127>  (73) 
hydroph_interaction:GLY:127    0
hydroph_interaction:GLY:127    0
Name: 72, dtype: object

>  <hbond:GLY:128>  (73) 
hbond:GLY:128    0
hbond:GLY:128    0
Name: 72, dtype: object

>  <halogenbond:GLY:128>  (73) 
halogenbond:GLY:128    0
halogenbond:GLY:128    0
Name: 72, dtype: object

>  <hydroph_interaction:GLY:128>  (73) 
hydroph_interaction:GLY:128    0
hydroph_interaction:GLY:128    0
Name: 72, dtype: object

>  <hbond:ASN:129>  (73) 
hbond:ASN:129    0
hbond:ASN:129    0
Name: 72, dtype: object

>  <hydroph_interaction:ASN:129>  (73) 
hydroph_interaction:ASN:129    0
hydroph_interaction:ASN:129    0
Name: 72, dtype: object

>  <halogenbond:ASN:129>  (73) 
halogenbond:ASN:129    0
halogenbond:ASN:129    0
Name: 72, dtype: object

>  <hbond:GLY:130>  (73) 
hbond:GLY:130    0
hbond:GLY:130    0
Name: 72, dtype: object

>  <hydroph_interaction:LEU:131>  (73) 
hydroph_interaction:LEU:131    0
hydroph_interaction:LEU:131    0
Name: 72, dtype: object

>  <hbond:LEU:131>  (73) 
hbond:LEU:131    0
hbond:LEU:131    0
Name: 72, dtype: object

>  <halogenbond:LEU:131>  (73) 
halogenbond:LEU:131    0
halogenbond:LEU:131    0
Name: 72, dtype: object

>  <hydroph_interaction:VAL:132>  (73) 
hydroph_interaction:VAL:132    0
hydroph_interaction:VAL:132    0
Name: 72, dtype: object

>  <hbond:VAL:132>  (73) 
hbond:VAL:132    0
hbond:VAL:132    0
Name: 72, dtype: object

>  <hbond:GLY:133>  (73) 
hbond:GLY:133    0
hbond:GLY:133    0
Name: 72, dtype: object

>  <halogenbond:GLY:133>  (73) 
halogenbond:GLY:133    0
halogenbond:GLY:133    0
Name: 72, dtype: object

>  <hydroph_interaction:PHE:134>  (73) 
hydroph_interaction:PHE:134    0
hydroph_interaction:PHE:134    0
Name: 72, dtype: object

>  <hbond:PHE:134>  (73) 
hbond:PHE:134    0
hbond:PHE:134    0
Name: 72, dtype: object

>  <pistack:PHE:134>  (73) 
pistack:PHE:134    0
pistack:PHE:134    0
Name: 72, dtype: object

>  <pication:PHE:134>  (73) 
pication:PHE:134    0
pication:PHE:134    0
Name: 72, dtype: object

>  <hydroph_interaction:ALA:135>  (73) 
hydroph_interaction:ALA:135    0
hydroph_interaction:ALA:135    0
Name: 72, dtype: object

>  <hbond:ALA:135>  (73) 
hbond:ALA:135    0
hbond:ALA:135    0
Name: 72, dtype: object

$$$$
Z803327200
     RDKit          3D

 26 26  0  0  0  0  0  0  0  0999 V2000
    5.1100   13.5930   15.5950 C   0  0  0  0  0  0  0  0  0  0  0  0
    4.7520   13.2570   16.8680 N   0  0  0  0  0  0  0  0  0  0  0  0
    3.6120   12.6110   17.1800 C   0  0  0  0  0  0  0  0  0  0  0  0
    2.7230   12.4430   16.4440 O   0  0  0  0  0  0  0  0  0  0  0  0
    3.2640   12.1100   18.3860 C   0  0  0  0  0  0  0  0  0  0  0  0
    3.5630   11.0060   19.1680 C   0  0  0  0  0  0  0  0  0  0  0  0
    2.9090   10.8940   20.3780 C   0  0  0  0  0  0  0  0  0  0  0  0
    1.9310   11.9580   20.7640 C   0  0  0  0  0  0  0  0  0  0  0  0
    1.2380   11.9830   21.8880 F   0  0  0  0  0  0  0  0  0  0  0  0
    1.6880   13.0050   19.9460 C   0  0  0  0  0  0  0  0  0  0  0  0
    0.8030   13.9930   20.2160 N   0  0  0  0  0  0  0  0  0  0  0  0
   -0.2460   14.1710   19.1790 C   0  0  0  0  0  0  0  0  0  0  0  0
   -0.0720   13.3080   17.9330 C   0  0  0  0  0  0  0  0  0  0  0  0
   -1.2010   14.9230   19.2570 O   0  0  0  0  0  0  0  0  0  0  0  0
    2.3640   13.0420   18.7970 C   0  0  0  0  0  0  0  0  0  0  0  0
    6.1910   13.7180   15.5380 H   0  0  0  0  0  0  0  0  0  0  0  0
    4.5860   14.4980   15.2770 H   0  0  0  0  0  0  0  0  0  0  0  0
    4.7900   12.8060   14.9720 H   0  0  0  0  0  0  0  0  0  0  0  0
    5.4640   13.2720   17.6060 H   0  0  0  0  0  0  0  0  0  0  0  0
    4.2680   10.2410   18.8740 H   0  0  0  0  0  0  0  0  0  0  0  0
    3.0980   10.0510   21.0320 H   0  0  0  0  0  0  0  0  0  0  0  0
    0.5140   14.0390   21.1900 H   0  0  0  0  0  0  0  0  0  0  0  0
   -1.0090   13.1940   17.3760 H   0  0  0  0  0  0  0  0  0  0  0  0
    0.6570   13.8160   17.2880 H   0  0  0  0  0  0  0  0  0  0  0  0
    0.3260   12.3110   18.1670 H   0  0  0  0  0  0  0  0  0  0  0  0
    2.1540   13.9020   18.1420 H   0  0  0  0  0  0  0  0  0  0  0  0
  1  2  1  0
  2  3  1  0
  3  4  2  0
  3  5  1  0
  5  6  2  0
  6  7  1  0
  7  8  2  0
  8  9  1  0
  8 10  1  0
 10 11  1  0
 11 12  1  0
 12 13  1  0
 12 14  2  0
 10 15  2  0
 15  5  1  0
  1 16  1  0
  1 17  1  0
  1 18  1  0
  2 19  1  0
  6 20  1  0
  7 21  1  0
 11 22  1  0
 13 23  1  0
 13 24  1  0
 13 25  1  0
 15 26  1  0
A    1
 C1 
A    2
 N1 
A    3
 C2 
A    4
 O1 
A    5
 C3 
A    6
 C4 
A    7
 C5 
A    8
 C6 
A    9
 F1 
A   10
 C7 
A   11
 N2 
A   12
 C8 
A   13
 C9 
A   14
 O2 
A   15
 C10
A   16
 H1 
A   17
 H2 
A   18
 H3 
A   19
 H4 
A   20
 H5 
A   21
 H6 
A   22
 H7 
A   23
 H8 
A   24
 H9 
A   25
 H10
A   26
 H11
M  END
>  <ref_pdb>  (74) 
x0310_0A

>  <ref_mols>  (74) 
x0310_0A,x0911_0A

>  <original SMILES>  (74) 
CNC(=O)c1ccc(F)c(NC(C)=O)c1

>  <rationale>  (74) 
info halogenbond:N129; hbond:T126+N129; hydroph_interaction:T126+L100+L131; 

>  <intxn_cluster>  (74) 
205

>  <intxn_cluster_rank>  (74) 
22

>  <N_interactions>  (74) 
7

>  <∆∆G>  (74) 
-5.295867

>  <$/mg>  (74) 
nan

>  <comRMSD>  (74) 
0.860972

>  <N_rotatable_bonds>  (74) 
4

>  <N_analogues_07>  (74) 
4

>  <deep_P1_sidechain>  (74) 
False

>  <farthest_distance_to_substrate>  (74) 
4.456295

>  <hbond:SER:7>  (74) 
hbond:SER:7    0
hbond:SER:7    0
Name: 73, dtype: object

>  <halogenbond:SER:7>  (74) 
halogenbond:SER:7    0
halogenbond:SER:7    0
Name: 73, dtype: object

>  <hbond:GLY:8>  (74) 
hbond:GLY:8    0
hbond:GLY:8    0
Name: 73, dtype: object

>  <hydroph_interaction:ASN:19>  (74) 
hydroph_interaction:ASN:19    0
hydroph_interaction:ASN:19    0
Name: 73, dtype: object

>  <hbond:ASN:19>  (74) 
hbond:ASN:19    0
hbond:ASN:19    0
Name: 73, dtype: object

>  <halogenbond:ASN:19>  (74) 
halogenbond:ASN:19    0
halogenbond:ASN:19    0
Name: 73, dtype: object

>  <hbond:ARG:20>  (74) 
hbond:ARG:20    0
hbond:ARG:20    0
Name: 73, dtype: object

>  <hydroph_interaction:ARG:20>  (74) 
hydroph_interaction:ARG:20    0
hydroph_interaction:ARG:20    0
Name: 73, dtype: object

>  <saltbridge:ARG:20>  (74) 
saltbridge:ARG:20    0
saltbridge:ARG:20    0
Name: 73, dtype: object

>  <halogenbond:ARG:20>  (74) 
halogenbond:ARG:20    0
halogenbond:ARG:20    0
Name: 73, dtype: object

>  <pication:ARG:20>  (74) 
pication:ARG:20    0
pication:ARG:20    0
Name: 73, dtype: object

>  <hbond:HIS:21>  (74) 
hbond:HIS:21    0
hbond:HIS:21    0
Name: 73, dtype: object

>  <hydroph_interaction:HIS:21>  (74) 
hydroph_interaction:HIS:21    0
hydroph_interaction:HIS:21    0
Name: 73, dtype: object

>  <saltbridge:HIS:21>  (74) 
saltbridge:HIS:21    0
saltbridge:HIS:21    0
Name: 73, dtype: object

>  <pistack:HIS:21>  (74) 
pistack:HIS:21    0
pistack:HIS:21    0
Name: 73, dtype: object

>  <pication:HIS:21>  (74) 
pication:HIS:21    0
pication:HIS:21    0
Name: 73, dtype: object

>  <halogenbond:HIS:21>  (74) 
halogenbond:HIS:21    0
halogenbond:HIS:21    0
Name: 73, dtype: object

>  <hydroph_interaction:LEU:22>  (74) 
hydroph_interaction:LEU:22    0
hydroph_interaction:LEU:22    0
Name: 73, dtype: object

>  <hbond:LEU:22>  (74) 
hbond:LEU:22    0
hbond:LEU:22    0
Name: 73, dtype: object

>  <hydroph_interaction:TRP:28>  (74) 
hydroph_interaction:TRP:28    0
hydroph_interaction:TRP:28    0
Name: 73, dtype: object

>  <hbond:SER:36>  (74) 
hbond:SER:36    0
hbond:SER:36    0
Name: 73, dtype: object

>  <halogenbond:SER:36>  (74) 
halogenbond:SER:36    0
halogenbond:SER:36    0
Name: 73, dtype: object

>  <hbond:ARG:38>  (74) 
hbond:ARG:38    0
hbond:ARG:38    0
Name: 73, dtype: object

>  <halogenbond:ARG:38>  (74) 
halogenbond:ARG:38    0
halogenbond:ARG:38    0
Name: 73, dtype: object

>  <hbond:ASP:39>  (74) 
hbond:ASP:39    0
hbond:ASP:39    0
Name: 73, dtype: object

>  <saltbridge:ASP:39>  (74) 
saltbridge:ASP:39    0
saltbridge:ASP:39    0
Name: 73, dtype: object

>  <hydroph_interaction:ASP:39>  (74) 
hydroph_interaction:ASP:39    0
hydroph_interaction:ASP:39    0
Name: 73, dtype: object

>  <halogenbond:ASP:39>  (74) 
halogenbond:ASP:39    0
halogenbond:ASP:39    0
Name: 73, dtype: object

>  <hydroph_interaction:LEU:40>  (74) 
hydroph_interaction:LEU:40    0
hydroph_interaction:LEU:40    0
Name: 73, dtype: object

>  <hydroph_interaction:TYR:63>  (74) 
hydroph_interaction:TYR:63    0
hydroph_interaction:TYR:63    0
Name: 73, dtype: object

>  <pistack:TYR:63>  (74) 
pistack:TYR:63    0
pistack:TYR:63    0
Name: 73, dtype: object

>  <hbond:TYR:63>  (74) 
hbond:TYR:63    0
hbond:TYR:63    0
Name: 73, dtype: object

>  <hbond:TYR:64>  (74) 
hbond:TYR:64    0
hbond:TYR:64    0
Name: 73, dtype: object

>  <halogenbond:TYR:64>  (74) 
halogenbond:TYR:64    0
halogenbond:TYR:64    0
Name: 73, dtype: object

>  <hydroph_interaction:TYR:64>  (74) 
hydroph_interaction:TYR:64    0
hydroph_interaction:TYR:64    0
Name: 73, dtype: object

>  <hbond:CYS:65>  (74) 
hbond:CYS:65    0
hbond:CYS:65    0
Name: 73, dtype: object

>  <halogenbond:CYS:65>  (74) 
halogenbond:CYS:65    0
halogenbond:CYS:65    0
Name: 73, dtype: object

>  <hbond:SER:66>  (74) 
hbond:SER:66    0
hbond:SER:66    0
Name: 73, dtype: object

>  <hbond:SER:67>  (74) 
hbond:SER:67    0
hbond:SER:67    0
Name: 73, dtype: object

>  <halogenbond:SER:67>  (74) 
halogenbond:SER:67    0
halogenbond:SER:67    0
Name: 73, dtype: object

>  <hydroph_interaction:ARG:68>  (74) 
hydroph_interaction:ARG:68    0
hydroph_interaction:ARG:68    0
Name: 73, dtype: object

>  <hbond:ARG:68>  (74) 
hbond:ARG:68    0
hbond:ARG:68    0
Name: 73, dtype: object

>  <saltbridge:ARG:68>  (74) 
saltbridge:ARG:68    0
saltbridge:ARG:68    0
Name: 73, dtype: object

>  <pication:ARG:68>  (74) 
pication:ARG:68    0
pication:ARG:68    0
Name: 73, dtype: object

>  <hydroph_interaction:TYR:72>  (74) 
hydroph_interaction:TYR:72    0
hydroph_interaction:TYR:72    0
Name: 73, dtype: object

>  <hydroph_interaction:VAL:74>  (74) 
hydroph_interaction:VAL:74    0
hydroph_interaction:VAL:74    0
Name: 73, dtype: object

>  <hydroph_interaction:PHE:76>  (74) 
hydroph_interaction:PHE:76    0
hydroph_interaction:PHE:76    0
Name: 73, dtype: object

>  <hbond:SER:77>  (74) 
hbond:SER:77    0
hbond:SER:77    0
Name: 73, dtype: object

>  <hbond:SER:80>  (74) 
hbond:SER:80    0
hbond:SER:80    0
Name: 73, dtype: object

>  <hbond:LEU:81>  (74) 
hbond:LEU:81    0
hbond:LEU:81    0
Name: 73, dtype: object

>  <halogenbond:LEU:81>  (74) 
halogenbond:LEU:81    0
halogenbond:LEU:81    0
Name: 73, dtype: object

>  <hydroph_interaction:LEU:81>  (74) 
hydroph_interaction:LEU:81    0
hydroph_interaction:LEU:81    0
Name: 73, dtype: object

>  <hydroph_interaction:ILE:82>  (74) 
hydroph_interaction:ILE:82    0
hydroph_interaction:ILE:82    0
Name: 73, dtype: object

>  <hbond:ILE:82>  (74) 
hbond:ILE:82    0
hbond:ILE:82    0
Name: 73, dtype: object

>  <hydroph_interaction:PHE:83>  (74) 
hydroph_interaction:PHE:83    0
hydroph_interaction:PHE:83    0
Name: 73, dtype: object

>  <hbond:PHE:83>  (74) 
hbond:PHE:83    0
hbond:PHE:83    0
Name: 73, dtype: object

>  <halogenbond:PHE:83>  (74) 
halogenbond:PHE:83    0
halogenbond:PHE:83    0
Name: 73, dtype: object

>  <pistack:PHE:83>  (74) 
pistack:PHE:83    0
pistack:PHE:83    0
Name: 73, dtype: object

>  <hydroph_interaction:VAL:84>  (74) 
hydroph_interaction:VAL:84    0
hydroph_interaction:VAL:84    0
Name: 73, dtype: object

>  <hbond:VAL:84>  (74) 
hbond:VAL:84    0
hbond:VAL:84    0
Name: 73, dtype: object

>  <halogenbond:VAL:84>  (74) 
halogenbond:VAL:84    0
halogenbond:VAL:84    0
Name: 73, dtype: object

>  <hydroph_interaction:GLU:85>  (74) 
hydroph_interaction:GLU:85    0
hydroph_interaction:GLU:85    0
Name: 73, dtype: object

>  <hbond:GLU:85>  (74) 
hbond:GLU:85    0
hbond:GLU:85    0
Name: 73, dtype: object

>  <saltbridge:GLU:85>  (74) 
saltbridge:GLU:85    0
saltbridge:GLU:85    0
Name: 73, dtype: object

>  <halogenbond:GLU:85>  (74) 
halogenbond:GLU:85    0
halogenbond:GLU:85    0
Name: 73, dtype: object

>  <hbond:ALA:86>  (74) 
hbond:ALA:86    0
hbond:ALA:86    0
Name: 73, dtype: object

>  <halogenbond:ALA:86>  (74) 
halogenbond:ALA:86    0
halogenbond:ALA:86    0
Name: 73, dtype: object

>  <hydroph_interaction:ALA:86>  (74) 
hydroph_interaction:ALA:86    0
hydroph_interaction:ALA:86    0
Name: 73, dtype: object

>  <hbond:SER:87>  (74) 
hbond:SER:87    0
hbond:SER:87    0
Name: 73, dtype: object

>  <halogenbond:SER:87>  (74) 
halogenbond:SER:87    0
halogenbond:SER:87    0
Name: 73, dtype: object

>  <hbond:GLU:88>  (74) 
hbond:GLU:88    0
hbond:GLU:88    0
Name: 73, dtype: object

>  <hydroph_interaction:GLU:88>  (74) 
hydroph_interaction:GLU:88    0
hydroph_interaction:GLU:88    0
Name: 73, dtype: object

>  <halogenbond:GLU:88>  (74) 
halogenbond:GLU:88    0
halogenbond:GLU:88    0
Name: 73, dtype: object

>  <saltbridge:GLU:88>  (74) 
saltbridge:GLU:88    0
saltbridge:GLU:88    0
Name: 73, dtype: object

>  <hydroph_interaction:TYR:89>  (74) 
hydroph_interaction:TYR:89    0
hydroph_interaction:TYR:89    0
Name: 73, dtype: object

>  <pistack:TYR:89>  (74) 
pistack:TYR:89    0
pistack:TYR:89    0
Name: 73, dtype: object

>  <hbond:TYR:89>  (74) 
hbond:TYR:89    0
hbond:TYR:89    0
Name: 73, dtype: object

>  <halogenbond:TYR:89>  (74) 
halogenbond:TYR:89    0
halogenbond:TYR:89    0
Name: 73, dtype: object

>  <hbond:TYR:90>  (74) 
hbond:TYR:90    0
hbond:TYR:90    0
Name: 73, dtype: object

>  <hydroph_interaction:TYR:90>  (74) 
hydroph_interaction:TYR:90    0
hydroph_interaction:TYR:90    0
Name: 73, dtype: object

>  <pistack:TYR:90>  (74) 
pistack:TYR:90    0
pistack:TYR:90    0
Name: 73, dtype: object

>  <halogenbond:TYR:90>  (74) 
halogenbond:TYR:90    0
halogenbond:TYR:90    0
Name: 73, dtype: object

>  <pication:TYR:90>  (74) 
pication:TYR:90    0
pication:TYR:90    0
Name: 73, dtype: object

>  <hydroph_interaction:PRO:91>  (74) 
hydroph_interaction:PRO:91    0
hydroph_interaction:PRO:91    0
Name: 73, dtype: object

>  <halogenbond:PRO:91>  (74) 
halogenbond:PRO:91    0
halogenbond:PRO:91    0
Name: 73, dtype: object

>  <hbond:PRO:91>  (74) 
hbond:PRO:91    0
hbond:PRO:91    0
Name: 73, dtype: object

>  <hydroph_interaction:ALA:92>  (74) 
hydroph_interaction:ALA:92    0
hydroph_interaction:ALA:92    0
Name: 73, dtype: object

>  <hbond:ARG:93>  (74) 
hbond:ARG:93    0
hbond:ARG:93    0
Name: 73, dtype: object

>  <pication:ARG:93>  (74) 
pication:ARG:93    0
pication:ARG:93    0
Name: 73, dtype: object

>  <saltbridge:ARG:93>  (74) 
saltbridge:ARG:93    0
saltbridge:ARG:93    0
Name: 73, dtype: object

>  <hydroph_interaction:ARG:93>  (74) 
hydroph_interaction:ARG:93    0
hydroph_interaction:ARG:93    0
Name: 73, dtype: object

>  <halogenbond:ARG:93>  (74) 
halogenbond:ARG:93    0
halogenbond:ARG:93    0
Name: 73, dtype: object

>  <hydroph_interaction:TYR:94>  (74) 
hydroph_interaction:TYR:94    0
hydroph_interaction:TYR:94    0
Name: 73, dtype: object

>  <hbond:TYR:94>  (74) 
hbond:TYR:94    0
hbond:TYR:94    0
Name: 73, dtype: object

>  <halogenbond:GLN:95>  (74) 
halogenbond:GLN:95    0
halogenbond:GLN:95    0
Name: 73, dtype: object

>  <hbond:GLN:95>  (74) 
hbond:GLN:95    0
hbond:GLN:95    0
Name: 73, dtype: object

>  <hydroph_interaction:GLN:95>  (74) 
hydroph_interaction:GLN:95    0
hydroph_interaction:GLN:95    0
Name: 73, dtype: object

>  <hbond:SER:96>  (74) 
hbond:SER:96    0
hbond:SER:96    0
Name: 73, dtype: object

>  <hydroph_interaction:LEU:98>  (74) 
hydroph_interaction:LEU:98    0
hydroph_interaction:LEU:98    0
Name: 73, dtype: object

>  <hbond:LEU:98>  (74) 
hbond:LEU:98    0
hbond:LEU:98    0
Name: 73, dtype: object

>  <hbond:MET:99>  (74) 
hbond:MET:99    0
hbond:MET:99    0
Name: 73, dtype: object

>  <hydroph_interaction:MET:99>  (74) 
hydroph_interaction:MET:99    0
hydroph_interaction:MET:99    0
Name: 73, dtype: object

>  <halogenbond:MET:99>  (74) 
halogenbond:MET:99    0
halogenbond:MET:99    0
Name: 73, dtype: object

>  <hydroph_interaction:LEU:100>  (74) 
hydroph_interaction:LEU:100    1
hydroph_interaction:LEU:100    1
Name: 73, dtype: object

>  <hbond:LEU:100>  (74) 
hbond:LEU:100    0
hbond:LEU:100    0
Name: 73, dtype: object

>  <hbond:ALA:101>  (74) 
hbond:ALA:101    0
hbond:ALA:101    0
Name: 73, dtype: object

>  <hydroph_interaction:ALA:101>  (74) 
hydroph_interaction:ALA:101    0
hydroph_interaction:ALA:101    0
Name: 73, dtype: object

>  <hydroph_interaction:VAL:102>  (74) 
hydroph_interaction:VAL:102    0
hydroph_interaction:VAL:102    0
Name: 73, dtype: object

>  <hbond:VAL:102>  (74) 
hbond:VAL:102    0
hbond:VAL:102    0
Name: 73, dtype: object

>  <hbond:GLY:103>  (74) 
hbond:GLY:103    0
hbond:GLY:103    0
Name: 73, dtype: object

>  <halogenbond:GLY:103>  (74) 
halogenbond:GLY:103    0
halogenbond:GLY:103    0
Name: 73, dtype: object

>  <hydroph_interaction:HIS:104>  (74) 
hydroph_interaction:HIS:104    0
hydroph_interaction:HIS:104    0
Name: 73, dtype: object

>  <hbond:HIS:104>  (74) 
hbond:HIS:104    0
hbond:HIS:104    0
Name: 73, dtype: object

>  <saltbridge:HIS:104>  (74) 
saltbridge:HIS:104    0
saltbridge:HIS:104    0
Name: 73, dtype: object

>  <pication:HIS:104>  (74) 
pication:HIS:104    0
pication:HIS:104    0
Name: 73, dtype: object

>  <pistack:HIS:104>  (74) 
pistack:HIS:104    0
pistack:HIS:104    0
Name: 73, dtype: object

>  <halogenbond:HIS:104>  (74) 
halogenbond:HIS:104    0
halogenbond:HIS:104    0
Name: 73, dtype: object

>  <hbond:SER:105>  (74) 
hbond:SER:105    0
hbond:SER:105    0
Name: 73, dtype: object

>  <halogenbond:SER:105>  (74) 
halogenbond:SER:105    0
halogenbond:SER:105    0
Name: 73, dtype: object

>  <hbond:GLU:106>  (74) 
hbond:GLU:106    0
hbond:GLU:106    0
Name: 73, dtype: object

>  <hydroph_interaction:GLU:106>  (74) 
hydroph_interaction:GLU:106    0
hydroph_interaction:GLU:106    0
Name: 73, dtype: object

>  <saltbridge:GLU:106>  (74) 
saltbridge:GLU:106    0
saltbridge:GLU:106    0
Name: 73, dtype: object

>  <halogenbond:GLU:106>  (74) 
halogenbond:GLU:106    0
halogenbond:GLU:106    0
Name: 73, dtype: object

>  <hydroph_interaction:PRO:107>  (74) 
hydroph_interaction:PRO:107    0
hydroph_interaction:PRO:107    0
Name: 73, dtype: object

>  <hbond:PRO:107>  (74) 
hbond:PRO:107    0
hbond:PRO:107    0
Name: 73, dtype: object

>  <halogenbond:PRO:107>  (74) 
halogenbond:PRO:107    0
halogenbond:PRO:107    0
Name: 73, dtype: object

>  <hbond:GLY:108>  (74) 
hbond:GLY:108    0
hbond:GLY:108    0
Name: 73, dtype: object

>  <halogenbond:GLY:108>  (74) 
halogenbond:GLY:108    0
halogenbond:GLY:108    0
Name: 73, dtype: object

>  <hbond:ASP:109>  (74) 
hbond:ASP:109    0
hbond:ASP:109    0
Name: 73, dtype: object

>  <hydroph_interaction:ASP:109>  (74) 
hydroph_interaction:ASP:109    0
hydroph_interaction:ASP:109    0
Name: 73, dtype: object

>  <saltbridge:ASP:109>  (74) 
saltbridge:ASP:109    0
saltbridge:ASP:109    0
Name: 73, dtype: object

>  <hbond:CYS:110>  (74) 
hbond:CYS:110    0
hbond:CYS:110    0
Name: 73, dtype: object

>  <halogenbond:CYS:110>  (74) 
halogenbond:CYS:110    0
halogenbond:CYS:110    0
Name: 73, dtype: object

>  <hbond:GLY:111>  (74) 
hbond:GLY:111    0
hbond:GLY:111    0
Name: 73, dtype: object

>  <hbond:GLY:112>  (74) 
hbond:GLY:112    0
hbond:GLY:112    0
Name: 73, dtype: object

>  <hbond:ILE:113>  (74) 
hbond:ILE:113    0
hbond:ILE:113    0
Name: 73, dtype: object

>  <hydroph_interaction:LEU:114>  (74) 
hydroph_interaction:LEU:114    0
hydroph_interaction:LEU:114    0
Name: 73, dtype: object

>  <hbond:LEU:114>  (74) 
hbond:LEU:114    0
hbond:LEU:114    0
Name: 73, dtype: object

>  <hydroph_interaction:ILE:123>  (74) 
hydroph_interaction:ILE:123    0
hydroph_interaction:ILE:123    0
Name: 73, dtype: object

>  <hbond:ILE:123>  (74) 
hbond:ILE:123    0
hbond:ILE:123    0
Name: 73, dtype: object

>  <hydroph_interaction:VAL:124>  (74) 
hydroph_interaction:VAL:124    0
hydroph_interaction:VAL:124    0
Name: 73, dtype: object

>  <hbond:VAL:124>  (74) 
hbond:VAL:124    0
hbond:VAL:124    0
Name: 73, dtype: object

>  <halogenbond:VAL:124>  (74) 
halogenbond:VAL:124    0
halogenbond:VAL:124    0
Name: 73, dtype: object

>  <hbond:SER:125>  (74) 
hbond:SER:125    0
hbond:SER:125    0
Name: 73, dtype: object

>  <halogenbond:SER:125>  (74) 
halogenbond:SER:125    0
halogenbond:SER:125    0
Name: 73, dtype: object

>  <hydroph_interaction:THR:126>  (74) 
hydroph_interaction:THR:126    1
hydroph_interaction:THR:126    1
Name: 73, dtype: object

>  <hbond:THR:126>  (74) 
hbond:THR:126    2
hbond:THR:126    2
Name: 73, dtype: object

>  <halogenbond:THR:126>  (74) 
halogenbond:THR:126    0
halogenbond:THR:126    0
Name: 73, dtype: object

>  <hbond:GLY:127>  (74) 
hbond:GLY:127    0
hbond:GLY:127    0
Name: 73, dtype: object

>  <halogenbond:GLY:127>  (74) 
halogenbond:GLY:127    0
halogenbond:GLY:127    0
Name: 73, dtype: object

>  <hydroph_interaction:GLY:127>  (74) 
hydroph_interaction:GLY:127    0
hydroph_interaction:GLY:127    0
Name: 73, dtype: object

>  <hbond:GLY:128>  (74) 
hbond:GLY:128    0
hbond:GLY:128    0
Name: 73, dtype: object

>  <halogenbond:GLY:128>  (74) 
halogenbond:GLY:128    0
halogenbond:GLY:128    0
Name: 73, dtype: object

>  <hydroph_interaction:GLY:128>  (74) 
hydroph_interaction:GLY:128    0
hydroph_interaction:GLY:128    0
Name: 73, dtype: object

>  <hbond:ASN:129>  (74) 
hbond:ASN:129    1
hbond:ASN:129    1
Name: 73, dtype: object

>  <hydroph_interaction:ASN:129>  (74) 
hydroph_interaction:ASN:129    0
hydroph_interaction:ASN:129    0
Name: 73, dtype: object

>  <halogenbond:ASN:129>  (74) 
halogenbond:ASN:129    1
halogenbond:ASN:129    1
Name: 73, dtype: object

>  <hbond:GLY:130>  (74) 
hbond:GLY:130    0
hbond:GLY:130    0
Name: 73, dtype: object

>  <hydroph_interaction:LEU:131>  (74) 
hydroph_interaction:LEU:131    1
hydroph_interaction:LEU:131    1
Name: 73, dtype: object

>  <hbond:LEU:131>  (74) 
hbond:LEU:131    0
hbond:LEU:131    0
Name: 73, dtype: object

>  <halogenbond:LEU:131>  (74) 
halogenbond:LEU:131    0
halogenbond:LEU:131    0
Name: 73, dtype: object

>  <hydroph_interaction:VAL:132>  (74) 
hydroph_interaction:VAL:132    0
hydroph_interaction:VAL:132    0
Name: 73, dtype: object

>  <hbond:VAL:132>  (74) 
hbond:VAL:132    0
hbond:VAL:132    0
Name: 73, dtype: object

>  <hbond:GLY:133>  (74) 
hbond:GLY:133    0
hbond:GLY:133    0
Name: 73, dtype: object

>  <halogenbond:GLY:133>  (74) 
halogenbond:GLY:133    0
halogenbond:GLY:133    0
Name: 73, dtype: object

>  <hydroph_interaction:PHE:134>  (74) 
hydroph_interaction:PHE:134    0
hydroph_interaction:PHE:134    0
Name: 73, dtype: object

>  <hbond:PHE:134>  (74) 
hbond:PHE:134    0
hbond:PHE:134    0
Name: 73, dtype: object

>  <pistack:PHE:134>  (74) 
pistack:PHE:134    0
pistack:PHE:134    0
Name: 73, dtype: object

>  <pication:PHE:134>  (74) 
pication:PHE:134    0
pication:PHE:134    0
Name: 73, dtype: object

>  <hydroph_interaction:ALA:135>  (74) 
hydroph_interaction:ALA:135    0
hydroph_interaction:ALA:135    0
Name: 73, dtype: object

>  <hbond:ALA:135>  (74) 
hbond:ALA:135    0
hbond:ALA:135    0
Name: 73, dtype: object

$$$$
Z3381408443
     RDKit          3D

 39 40  0  0  0  0  0  0  0  0999 V2000
    6.9380   14.2650   23.6990 C   0  0  0  0  0  0  0  0  0  0  0  0
    8.2340   13.9430   24.2090 O   0  0  0  0  0  0  0  0  0  0  0  0
    8.4730   12.5280   24.1620 C   0  0  0  0  0  0  0  0  0  0  0  0
    9.5220   12.0310   23.2220 C   0  0  0  0  0  0  0  0  0  0  0  0
   10.2350   12.9140   22.4510 N   0  0  0  0  0  0  0  0  0  0  0  0
   11.0730   13.7980   23.0950 C   0  0  0  0  0  0  0  0  0  0  0  0
   10.7350   14.4520   24.0600 O   0  0  0  0  0  0  0  0  0  0  0  0
   12.4860   13.8280   22.6110 C   0  0  0  0  0  0  0  0  0  0  0  0
   13.5170   14.4040   23.4800 C   0  0  0  0  0  0  0  0  0  0  0  0
   12.9540   14.9800   24.6890 C   0  0  0  0  0  0  0  0  0  0  0  0
   14.8200   14.2100   22.8900 N   0  0  0  0  0  0  0  0  0  0  0  0
   16.0620   14.4750   23.2780 N   0  0  0  0  0  0  0  0  0  0  0  0
   14.5360   13.5660   21.6080 C   0  0  0  0  0  0  0  0  0  0  0  0
   15.6260   13.1780   20.7170 C   0  0  0  0  0  0  0  0  0  0  0  0
   13.1820   13.3930   21.4510 C   0  0  0  0  0  0  0  0  0  0  0  0
    9.4630   10.6170   23.4270 C   0  0  0  0  0  0  0  0  0  0  0  0
   10.2690    9.5810   22.7430 C   0  0  0  0  0  0  0  0  0  0  0  0
    8.5310   10.3030   24.3680 N   0  0  0  0  0  0  0  0  0  0  0  0
    7.9490   11.4540   24.7940 N   0  0  0  0  0  0  0  0  0  0  0  0
    6.9150   11.4070   25.7910 C   0  0  0  0  0  0  0  0  0  0  0  0
    6.7930   15.3500   23.6710 H   0  0  0  0  0  0  0  0  0  0  0  0
    6.1500   13.7980   24.2970 H   0  0  0  0  0  0  0  0  0  0  0  0
    6.8640   13.8840   22.6760 H   0  0  0  0  0  0  0  0  0  0  0  0
    9.6900   13.3460   21.7100 H   0  0  0  0  0  0  0  0  0  0  0  0
   13.7360   15.2380   25.4100 H   0  0  0  0  0  0  0  0  0  0  0  0
   12.3760   15.8720   24.4470 H   0  0  0  0  0  0  0  0  0  0  0  0
   12.2380   14.3180   25.1560 H   0  0  0  0  0  0  0  0  0  0  0  0
   16.5690   13.6240   23.4780 H   0  0  0  0  0  0  0  0  0  0  0  0
   16.5810   14.9610   22.5600 H   0  0  0  0  0  0  0  0  0  0  0  0
   15.6700   13.7800   19.8130 H   0  0  0  0  0  0  0  0  0  0  0  0
   16.5760   13.2140   21.2230 H   0  0  0  0  0  0  0  0  0  0  0  0
   15.4620   12.1490   20.3990 H   0  0  0  0  0  0  0  0  0  0  0  0
   12.7700   12.9520   20.5840 H   0  0  0  0  0  0  0  0  0  0  0  0
   10.9560    9.0770   23.4240 H   0  0  0  0  0  0  0  0  0  0  0  0
    9.6240    8.8200   22.3070 H   0  0  0  0  0  0  0  0  0  0  0  0
   10.8200   10.0230   21.9130 H   0  0  0  0  0  0  0  0  0  0  0  0
    7.2300   11.9410   26.6770 H   0  0  0  0  0  0  0  0  0  0  0  0
    6.7190   10.3670   26.0250 H   0  0  0  0  0  0  0  0  0  0  0  0
    6.0180   11.8830   25.3910 H   0  0  0  0  0  0  0  0  0  0  0  0
  1  2  1  0
  2  3  1  0
  3  4  2  0
  4  5  1  0
  5  6  1  0
  6  7  2  0
  6  8  1  0
  8  9  2  0
  9 10  1  0
  9 11  1  0
 11 12  1  0
 11 13  1  0
 13 14  1  0
 13 15  2  0
  4 16  1  0
 16 17  1  0
 16 18  2  0
 18 19  1  0
 19 20  1  0
 19  3  1  0
 15  8  1  0
  1 21  1  0
  1 22  1  0
  1 23  1  0
  5 24  1  0
 10 25  1  0
 10 26  1  0
 10 27  1  0
 12 28  1  0
 12 29  1  0
 14 30  1  0
 14 31  1  0
 14 32  1  0
 15 33  1  0
 17 34  1  0
 17 35  1  0
 17 36  1  0
 20 37  1  0
 20 38  1  0
 20 39  1  0
A    1
 C1 
A    2
 O1 
A    3
 C2 
A    4
 C3 
A    5
 N1 
A    6
 C4 
A    7
 O2 
A    8
 C5 
A    9
 C6 
A   10
 C7 
A   11
 N2 
A   12
 N3 
A   13
 C8 
A   14
 C9 
A   15
 C10
A   16
 C11
A   17
 C12
A   18
 N4 
A   19
 N5 
A   20
 C13
A   21
 H1 
A   22
 H2 
A   23
 H3 
A   24
 H4 
A   25
 H5 
A   26
 H6 
A   27
 H7 
A   28
 H8 
A   29
 H9 
A   30
 H10
A   31
 H11
A   32
 H12
A   33
 H13
A   34
 H14
A   35
 H15
A   36
 H16
A   37
 H17
A   38
 H18
A   39
 H19
M  END
>  <ref_pdb>  (75) 
x0310_0A

>  <ref_mols>  (75) 
x0310_0A,x0451_0A,x0365_0A

>  <original SMILES>  (75) 
COc1c(NC(=O)c2cc(C)n(N)c2C)c(C)nn1C

>  <rationale>  (75) 
info hbond:S125+S87; hydroph_interaction:P107+V124+Y90+H21+N19; 

>  <intxn_cluster>  (75) 
103

>  <intxn_cluster_rank>  (75) 
24

>  <N_interactions>  (75) 
7

>  <∆∆G>  (75) 
-10.061979

>  <$/mg>  (75) 
nan

>  <comRMSD>  (75) 
0.991079

>  <N_rotatable_bonds>  (75) 
9

>  <N_analogues_07>  (75) 
0

>  <deep_P1_sidechain>  (75) 
True

>  <farthest_distance_to_substrate>  (75) 
3.271389

>  <hbond:SER:7>  (75) 
hbond:SER:7    0
hbond:SER:7    0
Name: 74, dtype: object

>  <halogenbond:SER:7>  (75) 
halogenbond:SER:7    0
halogenbond:SER:7    0
Name: 74, dtype: object

>  <hbond:GLY:8>  (75) 
hbond:GLY:8    0
hbond:GLY:8    0
Name: 74, dtype: object

>  <hydroph_interaction:ASN:19>  (75) 
hydroph_interaction:ASN:19    1
hydroph_interaction:ASN:19    1
Name: 74, dtype: object

>  <hbond:ASN:19>  (75) 
hbond:ASN:19    0
hbond:ASN:19    0
Name: 74, dtype: object

>  <halogenbond:ASN:19>  (75) 
halogenbond:ASN:19    0
halogenbond:ASN:19    0
Name: 74, dtype: object

>  <hbond:ARG:20>  (75) 
hbond:ARG:20    0
hbond:ARG:20    0
Name: 74, dtype: object

>  <hydroph_interaction:ARG:20>  (75) 
hydroph_interaction:ARG:20    0
hydroph_interaction:ARG:20    0
Name: 74, dtype: object

>  <saltbridge:ARG:20>  (75) 
saltbridge:ARG:20    0
saltbridge:ARG:20    0
Name: 74, dtype: object

>  <halogenbond:ARG:20>  (75) 
halogenbond:ARG:20    0
halogenbond:ARG:20    0
Name: 74, dtype: object

>  <pication:ARG:20>  (75) 
pication:ARG:20    0
pication:ARG:20    0
Name: 74, dtype: object

>  <hbond:HIS:21>  (75) 
hbond:HIS:21    0
hbond:HIS:21    0
Name: 74, dtype: object

>  <hydroph_interaction:HIS:21>  (75) 
hydroph_interaction:HIS:21    1
hydroph_interaction:HIS:21    1
Name: 74, dtype: object

>  <saltbridge:HIS:21>  (75) 
saltbridge:HIS:21    0
saltbridge:HIS:21    0
Name: 74, dtype: object

>  <pistack:HIS:21>  (75) 
pistack:HIS:21    0
pistack:HIS:21    0
Name: 74, dtype: object

>  <pication:HIS:21>  (75) 
pication:HIS:21    0
pication:HIS:21    0
Name: 74, dtype: object

>  <halogenbond:HIS:21>  (75) 
halogenbond:HIS:21    0
halogenbond:HIS:21    0
Name: 74, dtype: object

>  <hydroph_interaction:LEU:22>  (75) 
hydroph_interaction:LEU:22    0
hydroph_interaction:LEU:22    0
Name: 74, dtype: object

>  <hbond:LEU:22>  (75) 
hbond:LEU:22    0
hbond:LEU:22    0
Name: 74, dtype: object

>  <hydroph_interaction:TRP:28>  (75) 
hydroph_interaction:TRP:28    0
hydroph_interaction:TRP:28    0
Name: 74, dtype: object

>  <hbond:SER:36>  (75) 
hbond:SER:36    0
hbond:SER:36    0
Name: 74, dtype: object

>  <halogenbond:SER:36>  (75) 
halogenbond:SER:36    0
halogenbond:SER:36    0
Name: 74, dtype: object

>  <hbond:ARG:38>  (75) 
hbond:ARG:38    0
hbond:ARG:38    0
Name: 74, dtype: object

>  <halogenbond:ARG:38>  (75) 
halogenbond:ARG:38    0
halogenbond:ARG:38    0
Name: 74, dtype: object

>  <hbond:ASP:39>  (75) 
hbond:ASP:39    0
hbond:ASP:39    0
Name: 74, dtype: object

>  <saltbridge:ASP:39>  (75) 
saltbridge:ASP:39    0
saltbridge:ASP:39    0
Name: 74, dtype: object

>  <hydroph_interaction:ASP:39>  (75) 
hydroph_interaction:ASP:39    0
hydroph_interaction:ASP:39    0
Name: 74, dtype: object

>  <halogenbond:ASP:39>  (75) 
halogenbond:ASP:39    0
halogenbond:ASP:39    0
Name: 74, dtype: object

>  <hydroph_interaction:LEU:40>  (75) 
hydroph_interaction:LEU:40    0
hydroph_interaction:LEU:40    0
Name: 74, dtype: object

>  <hydroph_interaction:TYR:63>  (75) 
hydroph_interaction:TYR:63    0
hydroph_interaction:TYR:63    0
Name: 74, dtype: object

>  <pistack:TYR:63>  (75) 
pistack:TYR:63    0
pistack:TYR:63    0
Name: 74, dtype: object

>  <hbond:TYR:63>  (75) 
hbond:TYR:63    0
hbond:TYR:63    0
Name: 74, dtype: object

>  <hbond:TYR:64>  (75) 
hbond:TYR:64    0
hbond:TYR:64    0
Name: 74, dtype: object

>  <halogenbond:TYR:64>  (75) 
halogenbond:TYR:64    0
halogenbond:TYR:64    0
Name: 74, dtype: object

>  <hydroph_interaction:TYR:64>  (75) 
hydroph_interaction:TYR:64    0
hydroph_interaction:TYR:64    0
Name: 74, dtype: object

>  <hbond:CYS:65>  (75) 
hbond:CYS:65    0
hbond:CYS:65    0
Name: 74, dtype: object

>  <halogenbond:CYS:65>  (75) 
halogenbond:CYS:65    0
halogenbond:CYS:65    0
Name: 74, dtype: object

>  <hbond:SER:66>  (75) 
hbond:SER:66    0
hbond:SER:66    0
Name: 74, dtype: object

>  <hbond:SER:67>  (75) 
hbond:SER:67    0
hbond:SER:67    0
Name: 74, dtype: object

>  <halogenbond:SER:67>  (75) 
halogenbond:SER:67    0
halogenbond:SER:67    0
Name: 74, dtype: object

>  <hydroph_interaction:ARG:68>  (75) 
hydroph_interaction:ARG:68    0
hydroph_interaction:ARG:68    0
Name: 74, dtype: object

>  <hbond:ARG:68>  (75) 
hbond:ARG:68    0
hbond:ARG:68    0
Name: 74, dtype: object

>  <saltbridge:ARG:68>  (75) 
saltbridge:ARG:68    0
saltbridge:ARG:68    0
Name: 74, dtype: object

>  <pication:ARG:68>  (75) 
pication:ARG:68    0
pication:ARG:68    0
Name: 74, dtype: object

>  <hydroph_interaction:TYR:72>  (75) 
hydroph_interaction:TYR:72    0
hydroph_interaction:TYR:72    0
Name: 74, dtype: object

>  <hydroph_interaction:VAL:74>  (75) 
hydroph_interaction:VAL:74    0
hydroph_interaction:VAL:74    0
Name: 74, dtype: object

>  <hydroph_interaction:PHE:76>  (75) 
hydroph_interaction:PHE:76    0
hydroph_interaction:PHE:76    0
Name: 74, dtype: object

>  <hbond:SER:77>  (75) 
hbond:SER:77    0
hbond:SER:77    0
Name: 74, dtype: object

>  <hbond:SER:80>  (75) 
hbond:SER:80    0
hbond:SER:80    0
Name: 74, dtype: object

>  <hbond:LEU:81>  (75) 
hbond:LEU:81    0
hbond:LEU:81    0
Name: 74, dtype: object

>  <halogenbond:LEU:81>  (75) 
halogenbond:LEU:81    0
halogenbond:LEU:81    0
Name: 74, dtype: object

>  <hydroph_interaction:LEU:81>  (75) 
hydroph_interaction:LEU:81    0
hydroph_interaction:LEU:81    0
Name: 74, dtype: object

>  <hydroph_interaction:ILE:82>  (75) 
hydroph_interaction:ILE:82    0
hydroph_interaction:ILE:82    0
Name: 74, dtype: object

>  <hbond:ILE:82>  (75) 
hbond:ILE:82    0
hbond:ILE:82    0
Name: 74, dtype: object

>  <hydroph_interaction:PHE:83>  (75) 
hydroph_interaction:PHE:83    0
hydroph_interaction:PHE:83    0
Name: 74, dtype: object

>  <hbond:PHE:83>  (75) 
hbond:PHE:83    0
hbond:PHE:83    0
Name: 74, dtype: object

>  <halogenbond:PHE:83>  (75) 
halogenbond:PHE:83    0
halogenbond:PHE:83    0
Name: 74, dtype: object

>  <pistack:PHE:83>  (75) 
pistack:PHE:83    0
pistack:PHE:83    0
Name: 74, dtype: object

>  <hydroph_interaction:VAL:84>  (75) 
hydroph_interaction:VAL:84    0
hydroph_interaction:VAL:84    0
Name: 74, dtype: object

>  <hbond:VAL:84>  (75) 
hbond:VAL:84    0
hbond:VAL:84    0
Name: 74, dtype: object

>  <halogenbond:VAL:84>  (75) 
halogenbond:VAL:84    0
halogenbond:VAL:84    0
Name: 74, dtype: object

>  <hydroph_interaction:GLU:85>  (75) 
hydroph_interaction:GLU:85    0
hydroph_interaction:GLU:85    0
Name: 74, dtype: object

>  <hbond:GLU:85>  (75) 
hbond:GLU:85    0
hbond:GLU:85    0
Name: 74, dtype: object

>  <saltbridge:GLU:85>  (75) 
saltbridge:GLU:85    0
saltbridge:GLU:85    0
Name: 74, dtype: object

>  <halogenbond:GLU:85>  (75) 
halogenbond:GLU:85    0
halogenbond:GLU:85    0
Name: 74, dtype: object

>  <hbond:ALA:86>  (75) 
hbond:ALA:86    0
hbond:ALA:86    0
Name: 74, dtype: object

>  <halogenbond:ALA:86>  (75) 
halogenbond:ALA:86    0
halogenbond:ALA:86    0
Name: 74, dtype: object

>  <hydroph_interaction:ALA:86>  (75) 
hydroph_interaction:ALA:86    0
hydroph_interaction:ALA:86    0
Name: 74, dtype: object

>  <hbond:SER:87>  (75) 
hbond:SER:87    1
hbond:SER:87    1
Name: 74, dtype: object

>  <halogenbond:SER:87>  (75) 
halogenbond:SER:87    0
halogenbond:SER:87    0
Name: 74, dtype: object

>  <hbond:GLU:88>  (75) 
hbond:GLU:88    0
hbond:GLU:88    0
Name: 74, dtype: object

>  <hydroph_interaction:GLU:88>  (75) 
hydroph_interaction:GLU:88    0
hydroph_interaction:GLU:88    0
Name: 74, dtype: object

>  <halogenbond:GLU:88>  (75) 
halogenbond:GLU:88    0
halogenbond:GLU:88    0
Name: 74, dtype: object

>  <saltbridge:GLU:88>  (75) 
saltbridge:GLU:88    0
saltbridge:GLU:88    0
Name: 74, dtype: object

>  <hydroph_interaction:TYR:89>  (75) 
hydroph_interaction:TYR:89    0
hydroph_interaction:TYR:89    0
Name: 74, dtype: object

>  <pistack:TYR:89>  (75) 
pistack:TYR:89    0
pistack:TYR:89    0
Name: 74, dtype: object

>  <hbond:TYR:89>  (75) 
hbond:TYR:89    0
hbond:TYR:89    0
Name: 74, dtype: object

>  <halogenbond:TYR:89>  (75) 
halogenbond:TYR:89    0
halogenbond:TYR:89    0
Name: 74, dtype: object

>  <hbond:TYR:90>  (75) 
hbond:TYR:90    0
hbond:TYR:90    0
Name: 74, dtype: object

>  <hydroph_interaction:TYR:90>  (75) 
hydroph_interaction:TYR:90    1
hydroph_interaction:TYR:90    1
Name: 74, dtype: object

>  <pistack:TYR:90>  (75) 
pistack:TYR:90    0
pistack:TYR:90    0
Name: 74, dtype: object

>  <halogenbond:TYR:90>  (75) 
halogenbond:TYR:90    0
halogenbond:TYR:90    0
Name: 74, dtype: object

>  <pication:TYR:90>  (75) 
pication:TYR:90    0
pication:TYR:90    0
Name: 74, dtype: object

>  <hydroph_interaction:PRO:91>  (75) 
hydroph_interaction:PRO:91    0
hydroph_interaction:PRO:91    0
Name: 74, dtype: object

>  <halogenbond:PRO:91>  (75) 
halogenbond:PRO:91    0
halogenbond:PRO:91    0
Name: 74, dtype: object

>  <hbond:PRO:91>  (75) 
hbond:PRO:91    0
hbond:PRO:91    0
Name: 74, dtype: object

>  <hydroph_interaction:ALA:92>  (75) 
hydroph_interaction:ALA:92    0
hydroph_interaction:ALA:92    0
Name: 74, dtype: object

>  <hbond:ARG:93>  (75) 
hbond:ARG:93    0
hbond:ARG:93    0
Name: 74, dtype: object

>  <pication:ARG:93>  (75) 
pication:ARG:93    0
pication:ARG:93    0
Name: 74, dtype: object

>  <saltbridge:ARG:93>  (75) 
saltbridge:ARG:93    0
saltbridge:ARG:93    0
Name: 74, dtype: object

>  <hydroph_interaction:ARG:93>  (75) 
hydroph_interaction:ARG:93    0
hydroph_interaction:ARG:93    0
Name: 74, dtype: object

>  <halogenbond:ARG:93>  (75) 
halogenbond:ARG:93    0
halogenbond:ARG:93    0
Name: 74, dtype: object

>  <hydroph_interaction:TYR:94>  (75) 
hydroph_interaction:TYR:94    0
hydroph_interaction:TYR:94    0
Name: 74, dtype: object

>  <hbond:TYR:94>  (75) 
hbond:TYR:94    0
hbond:TYR:94    0
Name: 74, dtype: object

>  <halogenbond:GLN:95>  (75) 
halogenbond:GLN:95    0
halogenbond:GLN:95    0
Name: 74, dtype: object

>  <hbond:GLN:95>  (75) 
hbond:GLN:95    0
hbond:GLN:95    0
Name: 74, dtype: object

>  <hydroph_interaction:GLN:95>  (75) 
hydroph_interaction:GLN:95    0
hydroph_interaction:GLN:95    0
Name: 74, dtype: object

>  <hbond:SER:96>  (75) 
hbond:SER:96    0
hbond:SER:96    0
Name: 74, dtype: object

>  <hydroph_interaction:LEU:98>  (75) 
hydroph_interaction:LEU:98    0
hydroph_interaction:LEU:98    0
Name: 74, dtype: object

>  <hbond:LEU:98>  (75) 
hbond:LEU:98    0
hbond:LEU:98    0
Name: 74, dtype: object

>  <hbond:MET:99>  (75) 
hbond:MET:99    0
hbond:MET:99    0
Name: 74, dtype: object

>  <hydroph_interaction:MET:99>  (75) 
hydroph_interaction:MET:99    0
hydroph_interaction:MET:99    0
Name: 74, dtype: object

>  <halogenbond:MET:99>  (75) 
halogenbond:MET:99    0
halogenbond:MET:99    0
Name: 74, dtype: object

>  <hydroph_interaction:LEU:100>  (75) 
hydroph_interaction:LEU:100    0
hydroph_interaction:LEU:100    0
Name: 74, dtype: object

>  <hbond:LEU:100>  (75) 
hbond:LEU:100    0
hbond:LEU:100    0
Name: 74, dtype: object

>  <hbond:ALA:101>  (75) 
hbond:ALA:101    0
hbond:ALA:101    0
Name: 74, dtype: object

>  <hydroph_interaction:ALA:101>  (75) 
hydroph_interaction:ALA:101    0
hydroph_interaction:ALA:101    0
Name: 74, dtype: object

>  <hydroph_interaction:VAL:102>  (75) 
hydroph_interaction:VAL:102    0
hydroph_interaction:VAL:102    0
Name: 74, dtype: object

>  <hbond:VAL:102>  (75) 
hbond:VAL:102    0
hbond:VAL:102    0
Name: 74, dtype: object

>  <hbond:GLY:103>  (75) 
hbond:GLY:103    0
hbond:GLY:103    0
Name: 74, dtype: object

>  <halogenbond:GLY:103>  (75) 
halogenbond:GLY:103    0
halogenbond:GLY:103    0
Name: 74, dtype: object

>  <hydroph_interaction:HIS:104>  (75) 
hydroph_interaction:HIS:104    0
hydroph_interaction:HIS:104    0
Name: 74, dtype: object

>  <hbond:HIS:104>  (75) 
hbond:HIS:104    0
hbond:HIS:104    0
Name: 74, dtype: object

>  <saltbridge:HIS:104>  (75) 
saltbridge:HIS:104    0
saltbridge:HIS:104    0
Name: 74, dtype: object

>  <pication:HIS:104>  (75) 
pication:HIS:104    0
pication:HIS:104    0
Name: 74, dtype: object

>  <pistack:HIS:104>  (75) 
pistack:HIS:104    0
pistack:HIS:104    0
Name: 74, dtype: object

>  <halogenbond:HIS:104>  (75) 
halogenbond:HIS:104    0
halogenbond:HIS:104    0
Name: 74, dtype: object

>  <hbond:SER:105>  (75) 
hbond:SER:105    0
hbond:SER:105    0
Name: 74, dtype: object

>  <halogenbond:SER:105>  (75) 
halogenbond:SER:105    0
halogenbond:SER:105    0
Name: 74, dtype: object

>  <hbond:GLU:106>  (75) 
hbond:GLU:106    0
hbond:GLU:106    0
Name: 74, dtype: object

>  <hydroph_interaction:GLU:106>  (75) 
hydroph_interaction:GLU:106    0
hydroph_interaction:GLU:106    0
Name: 74, dtype: object

>  <saltbridge:GLU:106>  (75) 
saltbridge:GLU:106    0
saltbridge:GLU:106    0
Name: 74, dtype: object

>  <halogenbond:GLU:106>  (75) 
halogenbond:GLU:106    0
halogenbond:GLU:106    0
Name: 74, dtype: object

>  <hydroph_interaction:PRO:107>  (75) 
hydroph_interaction:PRO:107    1
hydroph_interaction:PRO:107    1
Name: 74, dtype: object

>  <hbond:PRO:107>  (75) 
hbond:PRO:107    0
hbond:PRO:107    0
Name: 74, dtype: object

>  <halogenbond:PRO:107>  (75) 
halogenbond:PRO:107    0
halogenbond:PRO:107    0
Name: 74, dtype: object

>  <hbond:GLY:108>  (75) 
hbond:GLY:108    0
hbond:GLY:108    0
Name: 74, dtype: object

>  <halogenbond:GLY:108>  (75) 
halogenbond:GLY:108    0
halogenbond:GLY:108    0
Name: 74, dtype: object

>  <hbond:ASP:109>  (75) 
hbond:ASP:109    0
hbond:ASP:109    0
Name: 74, dtype: object

>  <hydroph_interaction:ASP:109>  (75) 
hydroph_interaction:ASP:109    0
hydroph_interaction:ASP:109    0
Name: 74, dtype: object

>  <saltbridge:ASP:109>  (75) 
saltbridge:ASP:109    0
saltbridge:ASP:109    0
Name: 74, dtype: object

>  <hbond:CYS:110>  (75) 
hbond:CYS:110    0
hbond:CYS:110    0
Name: 74, dtype: object

>  <halogenbond:CYS:110>  (75) 
halogenbond:CYS:110    0
halogenbond:CYS:110    0
Name: 74, dtype: object

>  <hbond:GLY:111>  (75) 
hbond:GLY:111    0
hbond:GLY:111    0
Name: 74, dtype: object

>  <hbond:GLY:112>  (75) 
hbond:GLY:112    0
hbond:GLY:112    0
Name: 74, dtype: object

>  <hbond:ILE:113>  (75) 
hbond:ILE:113    0
hbond:ILE:113    0
Name: 74, dtype: object

>  <hydroph_interaction:LEU:114>  (75) 
hydroph_interaction:LEU:114    0
hydroph_interaction:LEU:114    0
Name: 74, dtype: object

>  <hbond:LEU:114>  (75) 
hbond:LEU:114    0
hbond:LEU:114    0
Name: 74, dtype: object

>  <hydroph_interaction:ILE:123>  (75) 
hydroph_interaction:ILE:123    0
hydroph_interaction:ILE:123    0
Name: 74, dtype: object

>  <hbond:ILE:123>  (75) 
hbond:ILE:123    0
hbond:ILE:123    0
Name: 74, dtype: object

>  <hydroph_interaction:VAL:124>  (75) 
hydroph_interaction:VAL:124    1
hydroph_interaction:VAL:124    1
Name: 74, dtype: object

>  <hbond:VAL:124>  (75) 
hbond:VAL:124    0
hbond:VAL:124    0
Name: 74, dtype: object

>  <halogenbond:VAL:124>  (75) 
halogenbond:VAL:124    0
halogenbond:VAL:124    0
Name: 74, dtype: object

>  <hbond:SER:125>  (75) 
hbond:SER:125    1
hbond:SER:125    1
Name: 74, dtype: object

>  <halogenbond:SER:125>  (75) 
halogenbond:SER:125    0
halogenbond:SER:125    0
Name: 74, dtype: object

>  <hydroph_interaction:THR:126>  (75) 
hydroph_interaction:THR:126    0
hydroph_interaction:THR:126    0
Name: 74, dtype: object

>  <hbond:THR:126>  (75) 
hbond:THR:126    0
hbond:THR:126    0
Name: 74, dtype: object

>  <halogenbond:THR:126>  (75) 
halogenbond:THR:126    0
halogenbond:THR:126    0
Name: 74, dtype: object

>  <hbond:GLY:127>  (75) 
hbond:GLY:127    0
hbond:GLY:127    0
Name: 74, dtype: object

>  <halogenbond:GLY:127>  (75) 
halogenbond:GLY:127    0
halogenbond:GLY:127    0
Name: 74, dtype: object

>  <hydroph_interaction:GLY:127>  (75) 
hydroph_interaction:GLY:127    0
hydroph_interaction:GLY:127    0
Name: 74, dtype: object

>  <hbond:GLY:128>  (75) 
hbond:GLY:128    0
hbond:GLY:128    0
Name: 74, dtype: object

>  <halogenbond:GLY:128>  (75) 
halogenbond:GLY:128    0
halogenbond:GLY:128    0
Name: 74, dtype: object

>  <hydroph_interaction:GLY:128>  (75) 
hydroph_interaction:GLY:128    0
hydroph_interaction:GLY:128    0
Name: 74, dtype: object

>  <hbond:ASN:129>  (75) 
hbond:ASN:129    0
hbond:ASN:129    0
Name: 74, dtype: object

>  <hydroph_interaction:ASN:129>  (75) 
hydroph_interaction:ASN:129    0
hydroph_interaction:ASN:129    0
Name: 74, dtype: object

>  <halogenbond:ASN:129>  (75) 
halogenbond:ASN:129    0
halogenbond:ASN:129    0
Name: 74, dtype: object

>  <hbond:GLY:130>  (75) 
hbond:GLY:130    0
hbond:GLY:130    0
Name: 74, dtype: object

>  <hydroph_interaction:LEU:131>  (75) 
hydroph_interaction:LEU:131    0
hydroph_interaction:LEU:131    0
Name: 74, dtype: object

>  <hbond:LEU:131>  (75) 
hbond:LEU:131    0
hbond:LEU:131    0
Name: 74, dtype: object

>  <halogenbond:LEU:131>  (75) 
halogenbond:LEU:131    0
halogenbond:LEU:131    0
Name: 74, dtype: object

>  <hydroph_interaction:VAL:132>  (75) 
hydroph_interaction:VAL:132    0
hydroph_interaction:VAL:132    0
Name: 74, dtype: object

>  <hbond:VAL:132>  (75) 
hbond:VAL:132    0
hbond:VAL:132    0
Name: 74, dtype: object

>  <hbond:GLY:133>  (75) 
hbond:GLY:133    0
hbond:GLY:133    0
Name: 74, dtype: object

>  <halogenbond:GLY:133>  (75) 
halogenbond:GLY:133    0
halogenbond:GLY:133    0
Name: 74, dtype: object

>  <hydroph_interaction:PHE:134>  (75) 
hydroph_interaction:PHE:134    0
hydroph_interaction:PHE:134    0
Name: 74, dtype: object

>  <hbond:PHE:134>  (75) 
hbond:PHE:134    0
hbond:PHE:134    0
Name: 74, dtype: object

>  <pistack:PHE:134>  (75) 
pistack:PHE:134    0
pistack:PHE:134    0
Name: 74, dtype: object

>  <pication:PHE:134>  (75) 
pication:PHE:134    0
pication:PHE:134    0
Name: 74, dtype: object

>  <hydroph_interaction:ALA:135>  (75) 
hydroph_interaction:ALA:135    0
hydroph_interaction:ALA:135    0
Name: 74, dtype: object

>  <hbond:ALA:135>  (75) 
hbond:ALA:135    0
hbond:ALA:135    0
Name: 74, dtype: object

$$$$
PV_002709605377
     RDKit          3D

 30 31  0  0  0  0  0  0  0  0999 V2000
    0.0700   13.7380   22.9130 F   0  0  0  0  0  0  0  0  0  0  0  0
   -0.9400   13.7930   21.9970 C   0  0  0  0  0  0  0  0  0  0  0  0
   -0.6210   12.8480   20.8210 C   0  0  1  0  0  0  0  0  0  0  0  0
   -1.8870   12.1900   20.2640 C   0  0  0  0  0  0  0  0  0  0  0  0
   -1.8350   12.3430   18.7470 C   0  0  0  0  0  0  0  0  0  0  0  0
   -0.3960   12.7010   18.4560 C   0  0  0  0  0  0  0  0  0  0  0  0
   -0.0930   13.5200   19.6220 N   0  0  0  0  0  0  0  0  0  0  0  0
    1.2880   13.9210   19.7360 C   0  0  0  0  0  0  0  0  0  0  0  0
    2.2290   12.8080   19.3670 C   0  0  0  0  0  0  0  0  0  0  0  0
    2.9250   12.8670   18.1630 C   0  0  0  0  0  0  0  0  0  0  0  0
    3.7930   11.8540   17.8180 C   0  0  0  0  0  0  0  0  0  0  0  0
    3.9750   10.7620   18.6670 C   0  0  0  0  0  0  0  0  0  0  0  0
    3.2880   10.6940   19.8570 C   0  0  0  0  0  0  0  0  0  0  0  0
    2.4170   11.7090   20.2160 C   0  0  0  0  0  0  0  0  0  0  0  0
   -1.8700   13.5290   22.5070 H   0  0  0  0  0  0  0  0  0  0  0  0
   -1.0070   14.8330   21.6660 H   0  0  0  0  0  0  0  0  0  0  0  0
    0.0730   12.0710   21.1690 H   0  0  0  0  0  0  0  0  0  0  0  0
   -2.8060   12.6170   20.6740 H   0  0  0  0  0  0  0  0  0  0  0  0
   -1.8850   11.1210   20.5140 H   0  0  0  0  0  0  0  0  0  0  0  0
   -2.4980   13.1530   18.4220 H   0  0  0  0  0  0  0  0  0  0  0  0
   -2.1550   11.4270   18.2410 H   0  0  0  0  0  0  0  0  0  0  0  0
    0.2530   11.8240   18.3810 H   0  0  0  0  0  0  0  0  0  0  0  0
   -0.3320   13.2670   17.5180 H   0  0  0  0  0  0  0  0  0  0  0  0
    1.4930   14.8080   19.1240 H   0  0  0  0  0  0  0  0  0  0  0  0
    1.5150   14.1990   20.7740 H   0  0  0  0  0  0  0  0  0  0  0  0
    2.7880   13.7120   17.4920 H   0  0  0  0  0  0  0  0  0  0  0  0
    4.3250   11.9190   16.8840 H   0  0  0  0  0  0  0  0  0  0  0  0
    4.6560    9.9630   18.3950 H   0  0  0  0  0  0  0  0  0  0  0  0
    3.4270    9.8470   20.5140 H   0  0  0  0  0  0  0  0  0  0  0  0
    1.8860   11.6380   21.1610 H   0  0  0  0  0  0  0  0  0  0  0  0
  1  2  1  0
  2  3  1  0
  3  4  1  0
  4  5  1  0
  5  6  1  0
  6  7  1  0
  7  8  1  0
  8  9  1  0
  9 10  2  0
 10 11  1  0
 11 12  2  0
 12 13  1  0
 13 14  2  0
  7  3  1  0
 14  9  1  0
  2 15  1  0
  2 16  1  0
  3 17  1  6
  4 18  1  0
  4 19  1  0
  5 20  1  0
  5 21  1  0
  6 22  1  0
  6 23  1  0
  8 24  1  0
  8 25  1  0
 10 26  1  0
 11 27  1  0
 12 28  1  0
 13 29  1  0
 14 30  1  0
A    1
 F1 
A    2
 C1 
A    3
 C2 
A    4
 C3 
A    5
 C4 
A    6
 C5 
A    7
 N1 
A    8
 C6 
A    9
 C7 
A   10
 C8 
A   11
 C9 
A   12
 C10
A   13
 C11
A   14
 C12
A   15
 H1 
A   16
 H2 
A   17
 H3 
A   18
 H4 
A   19
 H5 
A   20
 H6 
A   21
 H7 
A   22
 H8 
A   23
 H9 
A   24
 H10
A   25
 H11
A   26
 H12
A   27
 H13
A   28
 H14
A   29
 H15
A   30
 H16
M  END
>  <ref_pdb>  (76) 
x0310_0A

>  <ref_mols>  (76) 
x0473_0A,x0526_0A

>  <original SMILES>  (76) 
FC[C@@H]1CCCN1Cc1ccccc1

>  <rationale>  (76) 
info hydroph_interaction:V84+L100+L131+L98+N129; 

>  <intxn_cluster>  (76) 
206

>  <intxn_cluster_rank>  (76) 
24

>  <N_interactions>  (76) 
6

>  <∆∆G>  (76) 
-6.124825

>  <$/mg>  (76) 
163.0

>  <comRMSD>  (76) 
0.776841

>  <N_rotatable_bonds>  (76) 
3

>  <N_analogues_07>  (76) 
0

>  <deep_P1_sidechain>  (76) 
False

>  <farthest_distance_to_substrate>  (76) 
3.612379

>  <hbond:SER:7>  (76) 
hbond:SER:7    0
hbond:SER:7    0
Name: 75, dtype: object

>  <halogenbond:SER:7>  (76) 
halogenbond:SER:7    0
halogenbond:SER:7    0
Name: 75, dtype: object

>  <hbond:GLY:8>  (76) 
hbond:GLY:8    0
hbond:GLY:8    0
Name: 75, dtype: object

>  <hydroph_interaction:ASN:19>  (76) 
hydroph_interaction:ASN:19    0
hydroph_interaction:ASN:19    0
Name: 75, dtype: object

>  <hbond:ASN:19>  (76) 
hbond:ASN:19    0
hbond:ASN:19    0
Name: 75, dtype: object

>  <halogenbond:ASN:19>  (76) 
halogenbond:ASN:19    0
halogenbond:ASN:19    0
Name: 75, dtype: object

>  <hbond:ARG:20>  (76) 
hbond:ARG:20    0
hbond:ARG:20    0
Name: 75, dtype: object

>  <hydroph_interaction:ARG:20>  (76) 
hydroph_interaction:ARG:20    0
hydroph_interaction:ARG:20    0
Name: 75, dtype: object

>  <saltbridge:ARG:20>  (76) 
saltbridge:ARG:20    0
saltbridge:ARG:20    0
Name: 75, dtype: object

>  <halogenbond:ARG:20>  (76) 
halogenbond:ARG:20    0
halogenbond:ARG:20    0
Name: 75, dtype: object

>  <pication:ARG:20>  (76) 
pication:ARG:20    0
pication:ARG:20    0
Name: 75, dtype: object

>  <hbond:HIS:21>  (76) 
hbond:HIS:21    0
hbond:HIS:21    0
Name: 75, dtype: object

>  <hydroph_interaction:HIS:21>  (76) 
hydroph_interaction:HIS:21    0
hydroph_interaction:HIS:21    0
Name: 75, dtype: object

>  <saltbridge:HIS:21>  (76) 
saltbridge:HIS:21    0
saltbridge:HIS:21    0
Name: 75, dtype: object

>  <pistack:HIS:21>  (76) 
pistack:HIS:21    0
pistack:HIS:21    0
Name: 75, dtype: object

>  <pication:HIS:21>  (76) 
pication:HIS:21    0
pication:HIS:21    0
Name: 75, dtype: object

>  <halogenbond:HIS:21>  (76) 
halogenbond:HIS:21    0
halogenbond:HIS:21    0
Name: 75, dtype: object

>  <hydroph_interaction:LEU:22>  (76) 
hydroph_interaction:LEU:22    0
hydroph_interaction:LEU:22    0
Name: 75, dtype: object

>  <hbond:LEU:22>  (76) 
hbond:LEU:22    0
hbond:LEU:22    0
Name: 75, dtype: object

>  <hydroph_interaction:TRP:28>  (76) 
hydroph_interaction:TRP:28    0
hydroph_interaction:TRP:28    0
Name: 75, dtype: object

>  <hbond:SER:36>  (76) 
hbond:SER:36    0
hbond:SER:36    0
Name: 75, dtype: object

>  <halogenbond:SER:36>  (76) 
halogenbond:SER:36    0
halogenbond:SER:36    0
Name: 75, dtype: object

>  <hbond:ARG:38>  (76) 
hbond:ARG:38    0
hbond:ARG:38    0
Name: 75, dtype: object

>  <halogenbond:ARG:38>  (76) 
halogenbond:ARG:38    0
halogenbond:ARG:38    0
Name: 75, dtype: object

>  <hbond:ASP:39>  (76) 
hbond:ASP:39    0
hbond:ASP:39    0
Name: 75, dtype: object

>  <saltbridge:ASP:39>  (76) 
saltbridge:ASP:39    0
saltbridge:ASP:39    0
Name: 75, dtype: object

>  <hydroph_interaction:ASP:39>  (76) 
hydroph_interaction:ASP:39    0
hydroph_interaction:ASP:39    0
Name: 75, dtype: object

>  <halogenbond:ASP:39>  (76) 
halogenbond:ASP:39    0
halogenbond:ASP:39    0
Name: 75, dtype: object

>  <hydroph_interaction:LEU:40>  (76) 
hydroph_interaction:LEU:40    0
hydroph_interaction:LEU:40    0
Name: 75, dtype: object

>  <hydroph_interaction:TYR:63>  (76) 
hydroph_interaction:TYR:63    0
hydroph_interaction:TYR:63    0
Name: 75, dtype: object

>  <pistack:TYR:63>  (76) 
pistack:TYR:63    0
pistack:TYR:63    0
Name: 75, dtype: object

>  <hbond:TYR:63>  (76) 
hbond:TYR:63    0
hbond:TYR:63    0
Name: 75, dtype: object

>  <hbond:TYR:64>  (76) 
hbond:TYR:64    0
hbond:TYR:64    0
Name: 75, dtype: object

>  <halogenbond:TYR:64>  (76) 
halogenbond:TYR:64    0
halogenbond:TYR:64    0
Name: 75, dtype: object

>  <hydroph_interaction:TYR:64>  (76) 
hydroph_interaction:TYR:64    0
hydroph_interaction:TYR:64    0
Name: 75, dtype: object

>  <hbond:CYS:65>  (76) 
hbond:CYS:65    0
hbond:CYS:65    0
Name: 75, dtype: object

>  <halogenbond:CYS:65>  (76) 
halogenbond:CYS:65    0
halogenbond:CYS:65    0
Name: 75, dtype: object

>  <hbond:SER:66>  (76) 
hbond:SER:66    0
hbond:SER:66    0
Name: 75, dtype: object

>  <hbond:SER:67>  (76) 
hbond:SER:67    0
hbond:SER:67    0
Name: 75, dtype: object

>  <halogenbond:SER:67>  (76) 
halogenbond:SER:67    0
halogenbond:SER:67    0
Name: 75, dtype: object

>  <hydroph_interaction:ARG:68>  (76) 
hydroph_interaction:ARG:68    0
hydroph_interaction:ARG:68    0
Name: 75, dtype: object

>  <hbond:ARG:68>  (76) 
hbond:ARG:68    0
hbond:ARG:68    0
Name: 75, dtype: object

>  <saltbridge:ARG:68>  (76) 
saltbridge:ARG:68    0
saltbridge:ARG:68    0
Name: 75, dtype: object

>  <pication:ARG:68>  (76) 
pication:ARG:68    0
pication:ARG:68    0
Name: 75, dtype: object

>  <hydroph_interaction:TYR:72>  (76) 
hydroph_interaction:TYR:72    0
hydroph_interaction:TYR:72    0
Name: 75, dtype: object

>  <hydroph_interaction:VAL:74>  (76) 
hydroph_interaction:VAL:74    0
hydroph_interaction:VAL:74    0
Name: 75, dtype: object

>  <hydroph_interaction:PHE:76>  (76) 
hydroph_interaction:PHE:76    0
hydroph_interaction:PHE:76    0
Name: 75, dtype: object

>  <hbond:SER:77>  (76) 
hbond:SER:77    0
hbond:SER:77    0
Name: 75, dtype: object

>  <hbond:SER:80>  (76) 
hbond:SER:80    0
hbond:SER:80    0
Name: 75, dtype: object

>  <hbond:LEU:81>  (76) 
hbond:LEU:81    0
hbond:LEU:81    0
Name: 75, dtype: object

>  <halogenbond:LEU:81>  (76) 
halogenbond:LEU:81    0
halogenbond:LEU:81    0
Name: 75, dtype: object

>  <hydroph_interaction:LEU:81>  (76) 
hydroph_interaction:LEU:81    0
hydroph_interaction:LEU:81    0
Name: 75, dtype: object

>  <hydroph_interaction:ILE:82>  (76) 
hydroph_interaction:ILE:82    0
hydroph_interaction:ILE:82    0
Name: 75, dtype: object

>  <hbond:ILE:82>  (76) 
hbond:ILE:82    0
hbond:ILE:82    0
Name: 75, dtype: object

>  <hydroph_interaction:PHE:83>  (76) 
hydroph_interaction:PHE:83    0
hydroph_interaction:PHE:83    0
Name: 75, dtype: object

>  <hbond:PHE:83>  (76) 
hbond:PHE:83    0
hbond:PHE:83    0
Name: 75, dtype: object

>  <halogenbond:PHE:83>  (76) 
halogenbond:PHE:83    0
halogenbond:PHE:83    0
Name: 75, dtype: object

>  <pistack:PHE:83>  (76) 
pistack:PHE:83    0
pistack:PHE:83    0
Name: 75, dtype: object

>  <hydroph_interaction:VAL:84>  (76) 
hydroph_interaction:VAL:84    1
hydroph_interaction:VAL:84    1
Name: 75, dtype: object

>  <hbond:VAL:84>  (76) 
hbond:VAL:84    0
hbond:VAL:84    0
Name: 75, dtype: object

>  <halogenbond:VAL:84>  (76) 
halogenbond:VAL:84    0
halogenbond:VAL:84    0
Name: 75, dtype: object

>  <hydroph_interaction:GLU:85>  (76) 
hydroph_interaction:GLU:85    0
hydroph_interaction:GLU:85    0
Name: 75, dtype: object

>  <hbond:GLU:85>  (76) 
hbond:GLU:85    0
hbond:GLU:85    0
Name: 75, dtype: object

>  <saltbridge:GLU:85>  (76) 
saltbridge:GLU:85    0
saltbridge:GLU:85    0
Name: 75, dtype: object

>  <halogenbond:GLU:85>  (76) 
halogenbond:GLU:85    0
halogenbond:GLU:85    0
Name: 75, dtype: object

>  <hbond:ALA:86>  (76) 
hbond:ALA:86    0
hbond:ALA:86    0
Name: 75, dtype: object

>  <halogenbond:ALA:86>  (76) 
halogenbond:ALA:86    0
halogenbond:ALA:86    0
Name: 75, dtype: object

>  <hydroph_interaction:ALA:86>  (76) 
hydroph_interaction:ALA:86    0
hydroph_interaction:ALA:86    0
Name: 75, dtype: object

>  <hbond:SER:87>  (76) 
hbond:SER:87    0
hbond:SER:87    0
Name: 75, dtype: object

>  <halogenbond:SER:87>  (76) 
halogenbond:SER:87    0
halogenbond:SER:87    0
Name: 75, dtype: object

>  <hbond:GLU:88>  (76) 
hbond:GLU:88    0
hbond:GLU:88    0
Name: 75, dtype: object

>  <hydroph_interaction:GLU:88>  (76) 
hydroph_interaction:GLU:88    0
hydroph_interaction:GLU:88    0
Name: 75, dtype: object

>  <halogenbond:GLU:88>  (76) 
halogenbond:GLU:88    0
halogenbond:GLU:88    0
Name: 75, dtype: object

>  <saltbridge:GLU:88>  (76) 
saltbridge:GLU:88    0
saltbridge:GLU:88    0
Name: 75, dtype: object

>  <hydroph_interaction:TYR:89>  (76) 
hydroph_interaction:TYR:89    0
hydroph_interaction:TYR:89    0
Name: 75, dtype: object

>  <pistack:TYR:89>  (76) 
pistack:TYR:89    0
pistack:TYR:89    0
Name: 75, dtype: object

>  <hbond:TYR:89>  (76) 
hbond:TYR:89    0
hbond:TYR:89    0
Name: 75, dtype: object

>  <halogenbond:TYR:89>  (76) 
halogenbond:TYR:89    0
halogenbond:TYR:89    0
Name: 75, dtype: object

>  <hbond:TYR:90>  (76) 
hbond:TYR:90    0
hbond:TYR:90    0
Name: 75, dtype: object

>  <hydroph_interaction:TYR:90>  (76) 
hydroph_interaction:TYR:90    0
hydroph_interaction:TYR:90    0
Name: 75, dtype: object

>  <pistack:TYR:90>  (76) 
pistack:TYR:90    0
pistack:TYR:90    0
Name: 75, dtype: object

>  <halogenbond:TYR:90>  (76) 
halogenbond:TYR:90    0
halogenbond:TYR:90    0
Name: 75, dtype: object

>  <pication:TYR:90>  (76) 
pication:TYR:90    0
pication:TYR:90    0
Name: 75, dtype: object

>  <hydroph_interaction:PRO:91>  (76) 
hydroph_interaction:PRO:91    0
hydroph_interaction:PRO:91    0
Name: 75, dtype: object

>  <halogenbond:PRO:91>  (76) 
halogenbond:PRO:91    0
halogenbond:PRO:91    0
Name: 75, dtype: object

>  <hbond:PRO:91>  (76) 
hbond:PRO:91    0
hbond:PRO:91    0
Name: 75, dtype: object

>  <hydroph_interaction:ALA:92>  (76) 
hydroph_interaction:ALA:92    0
hydroph_interaction:ALA:92    0
Name: 75, dtype: object

>  <hbond:ARG:93>  (76) 
hbond:ARG:93    0
hbond:ARG:93    0
Name: 75, dtype: object

>  <pication:ARG:93>  (76) 
pication:ARG:93    0
pication:ARG:93    0
Name: 75, dtype: object

>  <saltbridge:ARG:93>  (76) 
saltbridge:ARG:93    0
saltbridge:ARG:93    0
Name: 75, dtype: object

>  <hydroph_interaction:ARG:93>  (76) 
hydroph_interaction:ARG:93    0
hydroph_interaction:ARG:93    0
Name: 75, dtype: object

>  <halogenbond:ARG:93>  (76) 
halogenbond:ARG:93    0
halogenbond:ARG:93    0
Name: 75, dtype: object

>  <hydroph_interaction:TYR:94>  (76) 
hydroph_interaction:TYR:94    0
hydroph_interaction:TYR:94    0
Name: 75, dtype: object

>  <hbond:TYR:94>  (76) 
hbond:TYR:94    0
hbond:TYR:94    0
Name: 75, dtype: object

>  <halogenbond:GLN:95>  (76) 
halogenbond:GLN:95    0
halogenbond:GLN:95    0
Name: 75, dtype: object

>  <hbond:GLN:95>  (76) 
hbond:GLN:95    0
hbond:GLN:95    0
Name: 75, dtype: object

>  <hydroph_interaction:GLN:95>  (76) 
hydroph_interaction:GLN:95    0
hydroph_interaction:GLN:95    0
Name: 75, dtype: object

>  <hbond:SER:96>  (76) 
hbond:SER:96    0
hbond:SER:96    0
Name: 75, dtype: object

>  <hydroph_interaction:LEU:98>  (76) 
hydroph_interaction:LEU:98    1
hydroph_interaction:LEU:98    1
Name: 75, dtype: object

>  <hbond:LEU:98>  (76) 
hbond:LEU:98    0
hbond:LEU:98    0
Name: 75, dtype: object

>  <hbond:MET:99>  (76) 
hbond:MET:99    0
hbond:MET:99    0
Name: 75, dtype: object

>  <hydroph_interaction:MET:99>  (76) 
hydroph_interaction:MET:99    0
hydroph_interaction:MET:99    0
Name: 75, dtype: object

>  <halogenbond:MET:99>  (76) 
halogenbond:MET:99    0
halogenbond:MET:99    0
Name: 75, dtype: object

>  <hydroph_interaction:LEU:100>  (76) 
hydroph_interaction:LEU:100    1
hydroph_interaction:LEU:100    1
Name: 75, dtype: object

>  <hbond:LEU:100>  (76) 
hbond:LEU:100    0
hbond:LEU:100    0
Name: 75, dtype: object

>  <hbond:ALA:101>  (76) 
hbond:ALA:101    0
hbond:ALA:101    0
Name: 75, dtype: object

>  <hydroph_interaction:ALA:101>  (76) 
hydroph_interaction:ALA:101    0
hydroph_interaction:ALA:101    0
Name: 75, dtype: object

>  <hydroph_interaction:VAL:102>  (76) 
hydroph_interaction:VAL:102    0
hydroph_interaction:VAL:102    0
Name: 75, dtype: object

>  <hbond:VAL:102>  (76) 
hbond:VAL:102    0
hbond:VAL:102    0
Name: 75, dtype: object

>  <hbond:GLY:103>  (76) 
hbond:GLY:103    0
hbond:GLY:103    0
Name: 75, dtype: object

>  <halogenbond:GLY:103>  (76) 
halogenbond:GLY:103    0
halogenbond:GLY:103    0
Name: 75, dtype: object

>  <hydroph_interaction:HIS:104>  (76) 
hydroph_interaction:HIS:104    0
hydroph_interaction:HIS:104    0
Name: 75, dtype: object

>  <hbond:HIS:104>  (76) 
hbond:HIS:104    0
hbond:HIS:104    0
Name: 75, dtype: object

>  <saltbridge:HIS:104>  (76) 
saltbridge:HIS:104    0
saltbridge:HIS:104    0
Name: 75, dtype: object

>  <pication:HIS:104>  (76) 
pication:HIS:104    0
pication:HIS:104    0
Name: 75, dtype: object

>  <pistack:HIS:104>  (76) 
pistack:HIS:104    0
pistack:HIS:104    0
Name: 75, dtype: object

>  <halogenbond:HIS:104>  (76) 
halogenbond:HIS:104    0
halogenbond:HIS:104    0
Name: 75, dtype: object

>  <hbond:SER:105>  (76) 
hbond:SER:105    0
hbond:SER:105    0
Name: 75, dtype: object

>  <halogenbond:SER:105>  (76) 
halogenbond:SER:105    0
halogenbond:SER:105    0
Name: 75, dtype: object

>  <hbond:GLU:106>  (76) 
hbond:GLU:106    0
hbond:GLU:106    0
Name: 75, dtype: object

>  <hydroph_interaction:GLU:106>  (76) 
hydroph_interaction:GLU:106    0
hydroph_interaction:GLU:106    0
Name: 75, dtype: object

>  <saltbridge:GLU:106>  (76) 
saltbridge:GLU:106    0
saltbridge:GLU:106    0
Name: 75, dtype: object

>  <halogenbond:GLU:106>  (76) 
halogenbond:GLU:106    0
halogenbond:GLU:106    0
Name: 75, dtype: object

>  <hydroph_interaction:PRO:107>  (76) 
hydroph_interaction:PRO:107    0
hydroph_interaction:PRO:107    0
Name: 75, dtype: object

>  <hbond:PRO:107>  (76) 
hbond:PRO:107    0
hbond:PRO:107    0
Name: 75, dtype: object

>  <halogenbond:PRO:107>  (76) 
halogenbond:PRO:107    0
halogenbond:PRO:107    0
Name: 75, dtype: object

>  <hbond:GLY:108>  (76) 
hbond:GLY:108    0
hbond:GLY:108    0
Name: 75, dtype: object

>  <halogenbond:GLY:108>  (76) 
halogenbond:GLY:108    0
halogenbond:GLY:108    0
Name: 75, dtype: object

>  <hbond:ASP:109>  (76) 
hbond:ASP:109    0
hbond:ASP:109    0
Name: 75, dtype: object

>  <hydroph_interaction:ASP:109>  (76) 
hydroph_interaction:ASP:109    0
hydroph_interaction:ASP:109    0
Name: 75, dtype: object

>  <saltbridge:ASP:109>  (76) 
saltbridge:ASP:109    0
saltbridge:ASP:109    0
Name: 75, dtype: object

>  <hbond:CYS:110>  (76) 
hbond:CYS:110    0
hbond:CYS:110    0
Name: 75, dtype: object

>  <halogenbond:CYS:110>  (76) 
halogenbond:CYS:110    0
halogenbond:CYS:110    0
Name: 75, dtype: object

>  <hbond:GLY:111>  (76) 
hbond:GLY:111    0
hbond:GLY:111    0
Name: 75, dtype: object

>  <hbond:GLY:112>  (76) 
hbond:GLY:112    0
hbond:GLY:112    0
Name: 75, dtype: object

>  <hbond:ILE:113>  (76) 
hbond:ILE:113    0
hbond:ILE:113    0
Name: 75, dtype: object

>  <hydroph_interaction:LEU:114>  (76) 
hydroph_interaction:LEU:114    0
hydroph_interaction:LEU:114    0
Name: 75, dtype: object

>  <hbond:LEU:114>  (76) 
hbond:LEU:114    0
hbond:LEU:114    0
Name: 75, dtype: object

>  <hydroph_interaction:ILE:123>  (76) 
hydroph_interaction:ILE:123    0
hydroph_interaction:ILE:123    0
Name: 75, dtype: object

>  <hbond:ILE:123>  (76) 
hbond:ILE:123    0
hbond:ILE:123    0
Name: 75, dtype: object

>  <hydroph_interaction:VAL:124>  (76) 
hydroph_interaction:VAL:124    0
hydroph_interaction:VAL:124    0
Name: 75, dtype: object

>  <hbond:VAL:124>  (76) 
hbond:VAL:124    0
hbond:VAL:124    0
Name: 75, dtype: object

>  <halogenbond:VAL:124>  (76) 
halogenbond:VAL:124    0
halogenbond:VAL:124    0
Name: 75, dtype: object

>  <hbond:SER:125>  (76) 
hbond:SER:125    0
hbond:SER:125    0
Name: 75, dtype: object

>  <halogenbond:SER:125>  (76) 
halogenbond:SER:125    0
halogenbond:SER:125    0
Name: 75, dtype: object

>  <hydroph_interaction:THR:126>  (76) 
hydroph_interaction:THR:126    0
hydroph_interaction:THR:126    0
Name: 75, dtype: object

>  <hbond:THR:126>  (76) 
hbond:THR:126    0
hbond:THR:126    0
Name: 75, dtype: object

>  <halogenbond:THR:126>  (76) 
halogenbond:THR:126    0
halogenbond:THR:126    0
Name: 75, dtype: object

>  <hbond:GLY:127>  (76) 
hbond:GLY:127    0
hbond:GLY:127    0
Name: 75, dtype: object

>  <halogenbond:GLY:127>  (76) 
halogenbond:GLY:127    0
halogenbond:GLY:127    0
Name: 75, dtype: object

>  <hydroph_interaction:GLY:127>  (76) 
hydroph_interaction:GLY:127    0
hydroph_interaction:GLY:127    0
Name: 75, dtype: object

>  <hbond:GLY:128>  (76) 
hbond:GLY:128    0
hbond:GLY:128    0
Name: 75, dtype: object

>  <halogenbond:GLY:128>  (76) 
halogenbond:GLY:128    0
halogenbond:GLY:128    0
Name: 75, dtype: object

>  <hydroph_interaction:GLY:128>  (76) 
hydroph_interaction:GLY:128    0
hydroph_interaction:GLY:128    0
Name: 75, dtype: object

>  <hbond:ASN:129>  (76) 
hbond:ASN:129    0
hbond:ASN:129    0
Name: 75, dtype: object

>  <hydroph_interaction:ASN:129>  (76) 
hydroph_interaction:ASN:129    1
hydroph_interaction:ASN:129    1
Name: 75, dtype: object

>  <halogenbond:ASN:129>  (76) 
halogenbond:ASN:129    0
halogenbond:ASN:129    0
Name: 75, dtype: object

>  <hbond:GLY:130>  (76) 
hbond:GLY:130    0
hbond:GLY:130    0
Name: 75, dtype: object

>  <hydroph_interaction:LEU:131>  (76) 
hydroph_interaction:LEU:131    2
hydroph_interaction:LEU:131    2
Name: 75, dtype: object

>  <hbond:LEU:131>  (76) 
hbond:LEU:131    0
hbond:LEU:131    0
Name: 75, dtype: object

>  <halogenbond:LEU:131>  (76) 
halogenbond:LEU:131    0
halogenbond:LEU:131    0
Name: 75, dtype: object

>  <hydroph_interaction:VAL:132>  (76) 
hydroph_interaction:VAL:132    0
hydroph_interaction:VAL:132    0
Name: 75, dtype: object

>  <hbond:VAL:132>  (76) 
hbond:VAL:132    0
hbond:VAL:132    0
Name: 75, dtype: object

>  <hbond:GLY:133>  (76) 
hbond:GLY:133    0
hbond:GLY:133    0
Name: 75, dtype: object

>  <halogenbond:GLY:133>  (76) 
halogenbond:GLY:133    0
halogenbond:GLY:133    0
Name: 75, dtype: object

>  <hydroph_interaction:PHE:134>  (76) 
hydroph_interaction:PHE:134    0
hydroph_interaction:PHE:134    0
Name: 75, dtype: object

>  <hbond:PHE:134>  (76) 
hbond:PHE:134    0
hbond:PHE:134    0
Name: 75, dtype: object

>  <pistack:PHE:134>  (76) 
pistack:PHE:134    0
pistack:PHE:134    0
Name: 75, dtype: object

>  <pication:PHE:134>  (76) 
pication:PHE:134    0
pication:PHE:134    0
Name: 75, dtype: object

>  <hydroph_interaction:ALA:135>  (76) 
hydroph_interaction:ALA:135    0
hydroph_interaction:ALA:135    0
Name: 75, dtype: object

>  <hbond:ALA:135>  (76) 
hbond:ALA:135    0
hbond:ALA:135    0
Name: 75, dtype: object

$$$$
Z1153180291
     RDKit          3D

 38 38  0  0  0  0  0  0  0  0999 V2000
    7.5940   12.9680   24.6410 C   0  0  0  0  0  0  0  0  0  0  0  0
    8.6860   12.1860   24.0310 C   0  0  0  0  0  0  0  0  0  0  0  0
    8.5730   10.8550   23.9720 N   0  0  0  0  0  0  0  0  0  0  0  0
    9.7240   10.4600   23.3780 N   0  0  0  0  0  0  0  0  0  0  0  0
   10.0350    9.0720   23.1300 C   0  0  0  0  0  0  0  0  0  0  0  0
    9.6280    8.6130   21.9480 F   0  0  0  0  0  0  0  0  0  0  0  0
   11.3810    8.8830   23.1080 F   0  0  0  0  0  0  0  0  0  0  0  0
   10.5480   11.4870   23.0690 C   0  0  0  0  0  0  0  0  0  0  0  0
   11.9090   11.2400   22.4340 C   0  0  0  0  0  0  0  0  0  0  0  0
    9.9200   12.6270   23.4660 C   0  0  0  0  0  0  0  0  0  0  0  0
   10.3960   14.0610   23.3700 C   0  0  0  0  0  0  0  0  0  0  0  0
   11.3980   14.4350   22.2690 C   0  0  0  0  0  0  0  0  0  0  0  0
   12.5170   13.9880   22.0710 O   0  0  0  0  0  0  0  0  0  0  0  0
   10.8540   15.4180   21.5050 O   0  0  0  0  0  0  0  0  0  0  0  0
   10.0010   14.8810   20.5180 C   0  0  0  0  0  0  0  0  0  0  0  0
    9.5760   15.9920   19.5980 C   0  0  0  0  0  0  0  0  0  0  0  0
    8.6960   16.7670   19.9130 O   0  0  0  0  0  0  0  0  0  0  0  0
   10.0660   16.3550   18.2640 C   0  0  0  0  0  0  0  0  0  0  0  0
   11.0570   15.3540   17.8000 C   0  0  0  0  0  0  0  0  0  0  0  0
    8.9770   16.5920   17.2940 C   0  0  0  0  0  0  0  0  0  0  0  0
    7.0670   13.5480   23.8780 H   0  0  0  0  0  0  0  0  0  0  0  0
    6.8600   12.3180   25.1330 H   0  0  0  0  0  0  0  0  0  0  0  0
    7.9930   13.6590   25.3890 H   0  0  0  0  0  0  0  0  0  0  0  0
    9.5910    8.4780   23.9170 H   0  0  0  0  0  0  0  0  0  0  0  0
   11.9170   10.3720   21.7680 H   0  0  0  0  0  0  0  0  0  0  0  0
   12.6240   11.0580   23.2260 H   0  0  0  0  0  0  0  0  0  0  0  0
   12.2630   12.1080   21.8790 H   0  0  0  0  0  0  0  0  0  0  0  0
    9.5110   14.6600   23.1940 H   0  0  0  0  0  0  0  0  0  0  0  0
   10.8220   14.3550   24.3350 H   0  0  0  0  0  0  0  0  0  0  0  0
    9.1120   14.5050   21.0460 H   0  0  0  0  0  0  0  0  0  0  0  0
   10.5160   14.0200   20.1090 H   0  0  0  0  0  0  0  0  0  0  0  0
   10.5300   17.2980   18.3060 H   0  0  0  0  0  0  0  0  0  0  0  0
   11.8300   15.1740   18.5540 H   0  0  0  0  0  0  0  0  0  0  0  0
   10.5960   14.3940   17.5950 H   0  0  0  0  0  0  0  0  0  0  0  0
   11.5470   15.7200   16.9000 H   0  0  0  0  0  0  0  0  0  0  0  0
    9.4120   16.9530   16.3730 H   0  0  0  0  0  0  0  0  0  0  0  0
    8.2760   17.3510   17.6500 H   0  0  0  0  0  0  0  0  0  0  0  0
    8.4490   15.6750   17.0870 H   0  0  0  0  0  0  0  0  0  0  0  0
  1  2  1  0
  2  3  2  0
  3  4  1  0
  4  5  1  0
  5  6  1  0
  5  7  1  0
  4  8  1  0
  8  9  1  0
  8 10  2  0
 10 11  1  0
 11 12  1  0
 12 13  2  0
 12 14  1  0
 14 15  1  0
 15 16  1  0
 16 17  2  0
 16 18  1  0
 18 19  1  0
 18 20  1  0
 10  2  1  0
  1 21  1  0
  1 22  1  0
  1 23  1  0
  5 24  1  0
  9 25  1  0
  9 26  1  0
  9 27  1  0
 11 28  1  0
 11 29  1  0
 15 30  1  0
 15 31  1  0
 18 32  1  0
 19 33  1  0
 19 34  1  0
 19 35  1  0
 20 36  1  0
 20 37  1  0
 20 38  1  0
A    1
 C1 
A    2
 C2 
A    3
 N1 
A    4
 N2 
A    5
 C3 
A    6
 F1 
A    7
 F2 
A    8
 C4 
A    9
 C5 
A   10
 C6 
A   11
 C7 
A   12
 C8 
A   13
 O1 
A   14
 O2 
A   15
 C9 
A   16
 C10
A   17
 O3 
A   18
 C11
A   19
 C12
A   20
 C13
A   21
 H1 
A   22
 H2 
A   23
 H3 
A   24
 H4 
A   25
 H5 
A   26
 H6 
A   27
 H7 
A   28
 H8 
A   29
 H9 
A   30
 H10
A   31
 H11
A   32
 H12
A   33
 H13
A   34
 H14
A   35
 H15
A   36
 H16
A   37
 H17
A   38
 H18
M  END
>  <ref_pdb>  (77) 
x0310_0A

>  <ref_mols>  (77) 
x0451_0A,x0416_0A

>  <original SMILES>  (77) 
Cc1nn(C(F)F)c(C)c1CC(=O)OCC(=O)C(C)C

>  <rationale>  (77) 
info halogenbond:T126; hbond:S87; hydroph_interaction:Y90+T126+V84+D39+Q95; saltbridge:H21; 

>  <intxn_cluster>  (77) 
204

>  <intxn_cluster_rank>  (77) 
24

>  <N_interactions>  (77) 
8

>  <∆∆G>  (77) 
-5.648663

>  <$/mg>  (77) 
nan

>  <comRMSD>  (77) 
0.735709

>  <N_rotatable_bonds>  (77) 
10

>  <N_analogues_07>  (77) 
3

>  <deep_P1_sidechain>  (77) 
False

>  <farthest_distance_to_substrate>  (77) 
3.207479

>  <hbond:SER:7>  (77) 
hbond:SER:7    0
hbond:SER:7    0
Name: 76, dtype: object

>  <halogenbond:SER:7>  (77) 
halogenbond:SER:7    0
halogenbond:SER:7    0
Name: 76, dtype: object

>  <hbond:GLY:8>  (77) 
hbond:GLY:8    0
hbond:GLY:8    0
Name: 76, dtype: object

>  <hydroph_interaction:ASN:19>  (77) 
hydroph_interaction:ASN:19    0
hydroph_interaction:ASN:19    0
Name: 76, dtype: object

>  <hbond:ASN:19>  (77) 
hbond:ASN:19    0
hbond:ASN:19    0
Name: 76, dtype: object

>  <halogenbond:ASN:19>  (77) 
halogenbond:ASN:19    0
halogenbond:ASN:19    0
Name: 76, dtype: object

>  <hbond:ARG:20>  (77) 
hbond:ARG:20    0
hbond:ARG:20    0
Name: 76, dtype: object

>  <hydroph_interaction:ARG:20>  (77) 
hydroph_interaction:ARG:20    0
hydroph_interaction:ARG:20    0
Name: 76, dtype: object

>  <saltbridge:ARG:20>  (77) 
saltbridge:ARG:20    0
saltbridge:ARG:20    0
Name: 76, dtype: object

>  <halogenbond:ARG:20>  (77) 
halogenbond:ARG:20    0
halogenbond:ARG:20    0
Name: 76, dtype: object

>  <pication:ARG:20>  (77) 
pication:ARG:20    0
pication:ARG:20    0
Name: 76, dtype: object

>  <hbond:HIS:21>  (77) 
hbond:HIS:21    0
hbond:HIS:21    0
Name: 76, dtype: object

>  <hydroph_interaction:HIS:21>  (77) 
hydroph_interaction:HIS:21    0
hydroph_interaction:HIS:21    0
Name: 76, dtype: object

>  <saltbridge:HIS:21>  (77) 
saltbridge:HIS:21    1
saltbridge:HIS:21    1
Name: 76, dtype: object

>  <pistack:HIS:21>  (77) 
pistack:HIS:21    0
pistack:HIS:21    0
Name: 76, dtype: object

>  <pication:HIS:21>  (77) 
pication:HIS:21    0
pication:HIS:21    0
Name: 76, dtype: object

>  <halogenbond:HIS:21>  (77) 
halogenbond:HIS:21    0
halogenbond:HIS:21    0
Name: 76, dtype: object

>  <hydroph_interaction:LEU:22>  (77) 
hydroph_interaction:LEU:22    0
hydroph_interaction:LEU:22    0
Name: 76, dtype: object

>  <hbond:LEU:22>  (77) 
hbond:LEU:22    0
hbond:LEU:22    0
Name: 76, dtype: object

>  <hydroph_interaction:TRP:28>  (77) 
hydroph_interaction:TRP:28    0
hydroph_interaction:TRP:28    0
Name: 76, dtype: object

>  <hbond:SER:36>  (77) 
hbond:SER:36    0
hbond:SER:36    0
Name: 76, dtype: object

>  <halogenbond:SER:36>  (77) 
halogenbond:SER:36    0
halogenbond:SER:36    0
Name: 76, dtype: object

>  <hbond:ARG:38>  (77) 
hbond:ARG:38    0
hbond:ARG:38    0
Name: 76, dtype: object

>  <halogenbond:ARG:38>  (77) 
halogenbond:ARG:38    0
halogenbond:ARG:38    0
Name: 76, dtype: object

>  <hbond:ASP:39>  (77) 
hbond:ASP:39    0
hbond:ASP:39    0
Name: 76, dtype: object

>  <saltbridge:ASP:39>  (77) 
saltbridge:ASP:39    0
saltbridge:ASP:39    0
Name: 76, dtype: object

>  <hydroph_interaction:ASP:39>  (77) 
hydroph_interaction:ASP:39    1
hydroph_interaction:ASP:39    1
Name: 76, dtype: object

>  <halogenbond:ASP:39>  (77) 
halogenbond:ASP:39    0
halogenbond:ASP:39    0
Name: 76, dtype: object

>  <hydroph_interaction:LEU:40>  (77) 
hydroph_interaction:LEU:40    0
hydroph_interaction:LEU:40    0
Name: 76, dtype: object

>  <hydroph_interaction:TYR:63>  (77) 
hydroph_interaction:TYR:63    0
hydroph_interaction:TYR:63    0
Name: 76, dtype: object

>  <pistack:TYR:63>  (77) 
pistack:TYR:63    0
pistack:TYR:63    0
Name: 76, dtype: object

>  <hbond:TYR:63>  (77) 
hbond:TYR:63    0
hbond:TYR:63    0
Name: 76, dtype: object

>  <hbond:TYR:64>  (77) 
hbond:TYR:64    0
hbond:TYR:64    0
Name: 76, dtype: object

>  <halogenbond:TYR:64>  (77) 
halogenbond:TYR:64    0
halogenbond:TYR:64    0
Name: 76, dtype: object

>  <hydroph_interaction:TYR:64>  (77) 
hydroph_interaction:TYR:64    0
hydroph_interaction:TYR:64    0
Name: 76, dtype: object

>  <hbond:CYS:65>  (77) 
hbond:CYS:65    0
hbond:CYS:65    0
Name: 76, dtype: object

>  <halogenbond:CYS:65>  (77) 
halogenbond:CYS:65    0
halogenbond:CYS:65    0
Name: 76, dtype: object

>  <hbond:SER:66>  (77) 
hbond:SER:66    0
hbond:SER:66    0
Name: 76, dtype: object

>  <hbond:SER:67>  (77) 
hbond:SER:67    0
hbond:SER:67    0
Name: 76, dtype: object

>  <halogenbond:SER:67>  (77) 
halogenbond:SER:67    0
halogenbond:SER:67    0
Name: 76, dtype: object

>  <hydroph_interaction:ARG:68>  (77) 
hydroph_interaction:ARG:68    0
hydroph_interaction:ARG:68    0
Name: 76, dtype: object

>  <hbond:ARG:68>  (77) 
hbond:ARG:68    0
hbond:ARG:68    0
Name: 76, dtype: object

>  <saltbridge:ARG:68>  (77) 
saltbridge:ARG:68    0
saltbridge:ARG:68    0
Name: 76, dtype: object

>  <pication:ARG:68>  (77) 
pication:ARG:68    0
pication:ARG:68    0
Name: 76, dtype: object

>  <hydroph_interaction:TYR:72>  (77) 
hydroph_interaction:TYR:72    0
hydroph_interaction:TYR:72    0
Name: 76, dtype: object

>  <hydroph_interaction:VAL:74>  (77) 
hydroph_interaction:VAL:74    0
hydroph_interaction:VAL:74    0
Name: 76, dtype: object

>  <hydroph_interaction:PHE:76>  (77) 
hydroph_interaction:PHE:76    0
hydroph_interaction:PHE:76    0
Name: 76, dtype: object

>  <hbond:SER:77>  (77) 
hbond:SER:77    0
hbond:SER:77    0
Name: 76, dtype: object

>  <hbond:SER:80>  (77) 
hbond:SER:80    0
hbond:SER:80    0
Name: 76, dtype: object

>  <hbond:LEU:81>  (77) 
hbond:LEU:81    0
hbond:LEU:81    0
Name: 76, dtype: object

>  <halogenbond:LEU:81>  (77) 
halogenbond:LEU:81    0
halogenbond:LEU:81    0
Name: 76, dtype: object

>  <hydroph_interaction:LEU:81>  (77) 
hydroph_interaction:LEU:81    0
hydroph_interaction:LEU:81    0
Name: 76, dtype: object

>  <hydroph_interaction:ILE:82>  (77) 
hydroph_interaction:ILE:82    0
hydroph_interaction:ILE:82    0
Name: 76, dtype: object

>  <hbond:ILE:82>  (77) 
hbond:ILE:82    0
hbond:ILE:82    0
Name: 76, dtype: object

>  <hydroph_interaction:PHE:83>  (77) 
hydroph_interaction:PHE:83    0
hydroph_interaction:PHE:83    0
Name: 76, dtype: object

>  <hbond:PHE:83>  (77) 
hbond:PHE:83    0
hbond:PHE:83    0
Name: 76, dtype: object

>  <halogenbond:PHE:83>  (77) 
halogenbond:PHE:83    0
halogenbond:PHE:83    0
Name: 76, dtype: object

>  <pistack:PHE:83>  (77) 
pistack:PHE:83    0
pistack:PHE:83    0
Name: 76, dtype: object

>  <hydroph_interaction:VAL:84>  (77) 
hydroph_interaction:VAL:84    1
hydroph_interaction:VAL:84    1
Name: 76, dtype: object

>  <hbond:VAL:84>  (77) 
hbond:VAL:84    0
hbond:VAL:84    0
Name: 76, dtype: object

>  <halogenbond:VAL:84>  (77) 
halogenbond:VAL:84    0
halogenbond:VAL:84    0
Name: 76, dtype: object

>  <hydroph_interaction:GLU:85>  (77) 
hydroph_interaction:GLU:85    0
hydroph_interaction:GLU:85    0
Name: 76, dtype: object

>  <hbond:GLU:85>  (77) 
hbond:GLU:85    0
hbond:GLU:85    0
Name: 76, dtype: object

>  <saltbridge:GLU:85>  (77) 
saltbridge:GLU:85    0
saltbridge:GLU:85    0
Name: 76, dtype: object

>  <halogenbond:GLU:85>  (77) 
halogenbond:GLU:85    0
halogenbond:GLU:85    0
Name: 76, dtype: object

>  <hbond:ALA:86>  (77) 
hbond:ALA:86    0
hbond:ALA:86    0
Name: 76, dtype: object

>  <halogenbond:ALA:86>  (77) 
halogenbond:ALA:86    0
halogenbond:ALA:86    0
Name: 76, dtype: object

>  <hydroph_interaction:ALA:86>  (77) 
hydroph_interaction:ALA:86    0
hydroph_interaction:ALA:86    0
Name: 76, dtype: object

>  <hbond:SER:87>  (77) 
hbond:SER:87    1
hbond:SER:87    1
Name: 76, dtype: object

>  <halogenbond:SER:87>  (77) 
halogenbond:SER:87    0
halogenbond:SER:87    0
Name: 76, dtype: object

>  <hbond:GLU:88>  (77) 
hbond:GLU:88    0
hbond:GLU:88    0
Name: 76, dtype: object

>  <hydroph_interaction:GLU:88>  (77) 
hydroph_interaction:GLU:88    0
hydroph_interaction:GLU:88    0
Name: 76, dtype: object

>  <halogenbond:GLU:88>  (77) 
halogenbond:GLU:88    0
halogenbond:GLU:88    0
Name: 76, dtype: object

>  <saltbridge:GLU:88>  (77) 
saltbridge:GLU:88    0
saltbridge:GLU:88    0
Name: 76, dtype: object

>  <hydroph_interaction:TYR:89>  (77) 
hydroph_interaction:TYR:89    0
hydroph_interaction:TYR:89    0
Name: 76, dtype: object

>  <pistack:TYR:89>  (77) 
pistack:TYR:89    0
pistack:TYR:89    0
Name: 76, dtype: object

>  <hbond:TYR:89>  (77) 
hbond:TYR:89    0
hbond:TYR:89    0
Name: 76, dtype: object

>  <halogenbond:TYR:89>  (77) 
halogenbond:TYR:89    0
halogenbond:TYR:89    0
Name: 76, dtype: object

>  <hbond:TYR:90>  (77) 
hbond:TYR:90    0
hbond:TYR:90    0
Name: 76, dtype: object

>  <hydroph_interaction:TYR:90>  (77) 
hydroph_interaction:TYR:90    1
hydroph_interaction:TYR:90    1
Name: 76, dtype: object

>  <pistack:TYR:90>  (77) 
pistack:TYR:90    0
pistack:TYR:90    0
Name: 76, dtype: object

>  <halogenbond:TYR:90>  (77) 
halogenbond:TYR:90    0
halogenbond:TYR:90    0
Name: 76, dtype: object

>  <pication:TYR:90>  (77) 
pication:TYR:90    0
pication:TYR:90    0
Name: 76, dtype: object

>  <hydroph_interaction:PRO:91>  (77) 
hydroph_interaction:PRO:91    0
hydroph_interaction:PRO:91    0
Name: 76, dtype: object

>  <halogenbond:PRO:91>  (77) 
halogenbond:PRO:91    0
halogenbond:PRO:91    0
Name: 76, dtype: object

>  <hbond:PRO:91>  (77) 
hbond:PRO:91    0
hbond:PRO:91    0
Name: 76, dtype: object

>  <hydroph_interaction:ALA:92>  (77) 
hydroph_interaction:ALA:92    0
hydroph_interaction:ALA:92    0
Name: 76, dtype: object

>  <hbond:ARG:93>  (77) 
hbond:ARG:93    0
hbond:ARG:93    0
Name: 76, dtype: object

>  <pication:ARG:93>  (77) 
pication:ARG:93    0
pication:ARG:93    0
Name: 76, dtype: object

>  <saltbridge:ARG:93>  (77) 
saltbridge:ARG:93    0
saltbridge:ARG:93    0
Name: 76, dtype: object

>  <hydroph_interaction:ARG:93>  (77) 
hydroph_interaction:ARG:93    0
hydroph_interaction:ARG:93    0
Name: 76, dtype: object

>  <halogenbond:ARG:93>  (77) 
halogenbond:ARG:93    0
halogenbond:ARG:93    0
Name: 76, dtype: object

>  <hydroph_interaction:TYR:94>  (77) 
hydroph_interaction:TYR:94    0
hydroph_interaction:TYR:94    0
Name: 76, dtype: object

>  <hbond:TYR:94>  (77) 
hbond:TYR:94    0
hbond:TYR:94    0
Name: 76, dtype: object

>  <halogenbond:GLN:95>  (77) 
halogenbond:GLN:95    0
halogenbond:GLN:95    0
Name: 76, dtype: object

>  <hbond:GLN:95>  (77) 
hbond:GLN:95    0
hbond:GLN:95    0
Name: 76, dtype: object

>  <hydroph_interaction:GLN:95>  (77) 
hydroph_interaction:GLN:95    1
hydroph_interaction:GLN:95    1
Name: 76, dtype: object

>  <hbond:SER:96>  (77) 
hbond:SER:96    0
hbond:SER:96    0
Name: 76, dtype: object

>  <hydroph_interaction:LEU:98>  (77) 
hydroph_interaction:LEU:98    0
hydroph_interaction:LEU:98    0
Name: 76, dtype: object

>  <hbond:LEU:98>  (77) 
hbond:LEU:98    0
hbond:LEU:98    0
Name: 76, dtype: object

>  <hbond:MET:99>  (77) 
hbond:MET:99    0
hbond:MET:99    0
Name: 76, dtype: object

>  <hydroph_interaction:MET:99>  (77) 
hydroph_interaction:MET:99    0
hydroph_interaction:MET:99    0
Name: 76, dtype: object

>  <halogenbond:MET:99>  (77) 
halogenbond:MET:99    0
halogenbond:MET:99    0
Name: 76, dtype: object

>  <hydroph_interaction:LEU:100>  (77) 
hydroph_interaction:LEU:100    0
hydroph_interaction:LEU:100    0
Name: 76, dtype: object

>  <hbond:LEU:100>  (77) 
hbond:LEU:100    0
hbond:LEU:100    0
Name: 76, dtype: object

>  <hbond:ALA:101>  (77) 
hbond:ALA:101    0
hbond:ALA:101    0
Name: 76, dtype: object

>  <hydroph_interaction:ALA:101>  (77) 
hydroph_interaction:ALA:101    0
hydroph_interaction:ALA:101    0
Name: 76, dtype: object

>  <hydroph_interaction:VAL:102>  (77) 
hydroph_interaction:VAL:102    0
hydroph_interaction:VAL:102    0
Name: 76, dtype: object

>  <hbond:VAL:102>  (77) 
hbond:VAL:102    0
hbond:VAL:102    0
Name: 76, dtype: object

>  <hbond:GLY:103>  (77) 
hbond:GLY:103    0
hbond:GLY:103    0
Name: 76, dtype: object

>  <halogenbond:GLY:103>  (77) 
halogenbond:GLY:103    0
halogenbond:GLY:103    0
Name: 76, dtype: object

>  <hydroph_interaction:HIS:104>  (77) 
hydroph_interaction:HIS:104    0
hydroph_interaction:HIS:104    0
Name: 76, dtype: object

>  <hbond:HIS:104>  (77) 
hbond:HIS:104    0
hbond:HIS:104    0
Name: 76, dtype: object

>  <saltbridge:HIS:104>  (77) 
saltbridge:HIS:104    0
saltbridge:HIS:104    0
Name: 76, dtype: object

>  <pication:HIS:104>  (77) 
pication:HIS:104    0
pication:HIS:104    0
Name: 76, dtype: object

>  <pistack:HIS:104>  (77) 
pistack:HIS:104    0
pistack:HIS:104    0
Name: 76, dtype: object

>  <halogenbond:HIS:104>  (77) 
halogenbond:HIS:104    0
halogenbond:HIS:104    0
Name: 76, dtype: object

>  <hbond:SER:105>  (77) 
hbond:SER:105    0
hbond:SER:105    0
Name: 76, dtype: object

>  <halogenbond:SER:105>  (77) 
halogenbond:SER:105    0
halogenbond:SER:105    0
Name: 76, dtype: object

>  <hbond:GLU:106>  (77) 
hbond:GLU:106    0
hbond:GLU:106    0
Name: 76, dtype: object

>  <hydroph_interaction:GLU:106>  (77) 
hydroph_interaction:GLU:106    0
hydroph_interaction:GLU:106    0
Name: 76, dtype: object

>  <saltbridge:GLU:106>  (77) 
saltbridge:GLU:106    0
saltbridge:GLU:106    0
Name: 76, dtype: object

>  <halogenbond:GLU:106>  (77) 
halogenbond:GLU:106    0
halogenbond:GLU:106    0
Name: 76, dtype: object

>  <hydroph_interaction:PRO:107>  (77) 
hydroph_interaction:PRO:107    0
hydroph_interaction:PRO:107    0
Name: 76, dtype: object

>  <hbond:PRO:107>  (77) 
hbond:PRO:107    0
hbond:PRO:107    0
Name: 76, dtype: object

>  <halogenbond:PRO:107>  (77) 
halogenbond:PRO:107    0
halogenbond:PRO:107    0
Name: 76, dtype: object

>  <hbond:GLY:108>  (77) 
hbond:GLY:108    0
hbond:GLY:108    0
Name: 76, dtype: object

>  <halogenbond:GLY:108>  (77) 
halogenbond:GLY:108    0
halogenbond:GLY:108    0
Name: 76, dtype: object

>  <hbond:ASP:109>  (77) 
hbond:ASP:109    0
hbond:ASP:109    0
Name: 76, dtype: object

>  <hydroph_interaction:ASP:109>  (77) 
hydroph_interaction:ASP:109    0
hydroph_interaction:ASP:109    0
Name: 76, dtype: object

>  <saltbridge:ASP:109>  (77) 
saltbridge:ASP:109    0
saltbridge:ASP:109    0
Name: 76, dtype: object

>  <hbond:CYS:110>  (77) 
hbond:CYS:110    0
hbond:CYS:110    0
Name: 76, dtype: object

>  <halogenbond:CYS:110>  (77) 
halogenbond:CYS:110    0
halogenbond:CYS:110    0
Name: 76, dtype: object

>  <hbond:GLY:111>  (77) 
hbond:GLY:111    0
hbond:GLY:111    0
Name: 76, dtype: object

>  <hbond:GLY:112>  (77) 
hbond:GLY:112    0
hbond:GLY:112    0
Name: 76, dtype: object

>  <hbond:ILE:113>  (77) 
hbond:ILE:113    0
hbond:ILE:113    0
Name: 76, dtype: object

>  <hydroph_interaction:LEU:114>  (77) 
hydroph_interaction:LEU:114    0
hydroph_interaction:LEU:114    0
Name: 76, dtype: object

>  <hbond:LEU:114>  (77) 
hbond:LEU:114    0
hbond:LEU:114    0
Name: 76, dtype: object

>  <hydroph_interaction:ILE:123>  (77) 
hydroph_interaction:ILE:123    0
hydroph_interaction:ILE:123    0
Name: 76, dtype: object

>  <hbond:ILE:123>  (77) 
hbond:ILE:123    0
hbond:ILE:123    0
Name: 76, dtype: object

>  <hydroph_interaction:VAL:124>  (77) 
hydroph_interaction:VAL:124    0
hydroph_interaction:VAL:124    0
Name: 76, dtype: object

>  <hbond:VAL:124>  (77) 
hbond:VAL:124    0
hbond:VAL:124    0
Name: 76, dtype: object

>  <halogenbond:VAL:124>  (77) 
halogenbond:VAL:124    0
halogenbond:VAL:124    0
Name: 76, dtype: object

>  <hbond:SER:125>  (77) 
hbond:SER:125    0
hbond:SER:125    0
Name: 76, dtype: object

>  <halogenbond:SER:125>  (77) 
halogenbond:SER:125    0
halogenbond:SER:125    0
Name: 76, dtype: object

>  <hydroph_interaction:THR:126>  (77) 
hydroph_interaction:THR:126    1
hydroph_interaction:THR:126    1
Name: 76, dtype: object

>  <hbond:THR:126>  (77) 
hbond:THR:126    0
hbond:THR:126    0
Name: 76, dtype: object

>  <halogenbond:THR:126>  (77) 
halogenbond:THR:126    1
halogenbond:THR:126    1
Name: 76, dtype: object

>  <hbond:GLY:127>  (77) 
hbond:GLY:127    0
hbond:GLY:127    0
Name: 76, dtype: object

>  <halogenbond:GLY:127>  (77) 
halogenbond:GLY:127    0
halogenbond:GLY:127    0
Name: 76, dtype: object

>  <hydroph_interaction:GLY:127>  (77) 
hydroph_interaction:GLY:127    0
hydroph_interaction:GLY:127    0
Name: 76, dtype: object

>  <hbond:GLY:128>  (77) 
hbond:GLY:128    0
hbond:GLY:128    0
Name: 76, dtype: object

>  <halogenbond:GLY:128>  (77) 
halogenbond:GLY:128    0
halogenbond:GLY:128    0
Name: 76, dtype: object

>  <hydroph_interaction:GLY:128>  (77) 
hydroph_interaction:GLY:128    0
hydroph_interaction:GLY:128    0
Name: 76, dtype: object

>  <hbond:ASN:129>  (77) 
hbond:ASN:129    0
hbond:ASN:129    0
Name: 76, dtype: object

>  <hydroph_interaction:ASN:129>  (77) 
hydroph_interaction:ASN:129    0
hydroph_interaction:ASN:129    0
Name: 76, dtype: object

>  <halogenbond:ASN:129>  (77) 
halogenbond:ASN:129    0
halogenbond:ASN:129    0
Name: 76, dtype: object

>  <hbond:GLY:130>  (77) 
hbond:GLY:130    0
hbond:GLY:130    0
Name: 76, dtype: object

>  <hydroph_interaction:LEU:131>  (77) 
hydroph_interaction:LEU:131    0
hydroph_interaction:LEU:131    0
Name: 76, dtype: object

>  <hbond:LEU:131>  (77) 
hbond:LEU:131    0
hbond:LEU:131    0
Name: 76, dtype: object

>  <halogenbond:LEU:131>  (77) 
halogenbond:LEU:131    0
halogenbond:LEU:131    0
Name: 76, dtype: object

>  <hydroph_interaction:VAL:132>  (77) 
hydroph_interaction:VAL:132    0
hydroph_interaction:VAL:132    0
Name: 76, dtype: object

>  <hbond:VAL:132>  (77) 
hbond:VAL:132    0
hbond:VAL:132    0
Name: 76, dtype: object

>  <hbond:GLY:133>  (77) 
hbond:GLY:133    0
hbond:GLY:133    0
Name: 76, dtype: object

>  <halogenbond:GLY:133>  (77) 
halogenbond:GLY:133    0
halogenbond:GLY:133    0
Name: 76, dtype: object

>  <hydroph_interaction:PHE:134>  (77) 
hydroph_interaction:PHE:134    0
hydroph_interaction:PHE:134    0
Name: 76, dtype: object

>  <hbond:PHE:134>  (77) 
hbond:PHE:134    0
hbond:PHE:134    0
Name: 76, dtype: object

>  <pistack:PHE:134>  (77) 
pistack:PHE:134    0
pistack:PHE:134    0
Name: 76, dtype: object

>  <pication:PHE:134>  (77) 
pication:PHE:134    0
pication:PHE:134    0
Name: 76, dtype: object

>  <hydroph_interaction:ALA:135>  (77) 
hydroph_interaction:ALA:135    0
hydroph_interaction:ALA:135    0
Name: 76, dtype: object

>  <hbond:ALA:135>  (77) 
hbond:ALA:135    0
hbond:ALA:135    0
Name: 76, dtype: object

$$$$
PV_006956424022
     RDKit          3D

 26 27  0  0  0  0  0  0  0  0999 V2000
   12.5920   16.0150   21.8590 C   0  0  0  0  0  0  0  0  0  0  0  0
   12.4040   14.5470   21.8250 C   0  0  0  0  0  0  0  0  0  0  0  0
   12.9240   13.8300   20.8220 F   0  0  0  0  0  0  0  0  0  0  0  0
   11.6170   13.9330   22.9300 C   0  0  0  0  0  0  0  0  0  0  0  0
   10.3570   13.5930   22.3330 N   0  0  0  0  0  0  0  0  0  0  0  0
    9.4310   13.1340   23.2390 C   0  0  0  0  0  0  0  0  0  0  0  0
    8.5230   13.9810   24.0290 N   0  0  0  0  0  0  0  0  0  0  0  0
    7.6040   13.2970   24.9420 C   0  0  0  0  0  0  0  0  0  0  0  0
    6.7280   14.1120   25.6990 C   0  0  0  0  0  0  0  0  0  0  0  0
    7.5660   11.9210   25.0780 C   0  0  0  0  0  0  0  0  0  0  0  0
    8.4740   11.2360   24.2770 C   0  0  0  0  0  0  0  0  0  0  0  0
    9.3510   11.8200   23.4130 C   0  0  0  0  0  0  0  0  0  0  0  0
   10.0690   10.6420   22.8240 C   0  0  0  0  0  0  0  0  0  0  0  0
    9.7600    9.3830   23.2040 C   0  0  0  0  0  0  0  0  0  0  0  0
    8.5290    9.5480   24.3390 S   0  0  0  0  0  0  0  0  0  0  0  0
   13.1590   16.5020   21.0690 H   0  0  0  0  0  0  0  0  0  0  0  0
   12.1720   16.6200   22.6690 H   0  0  0  0  0  0  0  0  0  0  0  0
   11.4970   14.6660   23.7360 H   0  0  0  0  0  0  0  0  0  0  0  0
   12.1270   13.0490   23.3270 H   0  0  0  0  0  0  0  0  0  0  0  0
   10.4550   12.9900   21.5060 H   0  0  0  0  0  0  0  0  0  0  0  0
    6.8970   15.1730   25.5400 H   0  0  0  0  0  0  0  0  0  0  0  0
    5.6710   13.9660   25.5030 H   0  0  0  0  0  0  0  0  0  0  0  0
    6.8090   13.9990   26.7720 H   0  0  0  0  0  0  0  0  0  0  0  0
    6.8890   11.4090   25.7490 H   0  0  0  0  0  0  0  0  0  0  0  0
   10.8480   10.8080   22.0780 H   0  0  0  0  0  0  0  0  0  0  0  0
   10.2050    8.4590   22.8540 H   0  0  0  0  0  0  0  0  0  0  0  0
  1  2  2  0
  2  3  1  0
  2  4  1  0
  4  5  1  0
  5  6  1  0
  6  7  2  0
  7  8  1  0
  8  9  1  0
  8 10  2  0
 10 11  1  0
 11 12  2  0
 12 13  1  0
 13 14  2  0
 14 15  1  0
 12  6  1  0
 15 11  1  0
  1 16  1  0
  1 17  1  0
  4 18  1  0
  4 19  1  0
  5 20  1  0
  9 21  1  0
  9 22  1  0
  9 23  1  0
 10 24  1  0
 13 25  1  0
 14 26  1  0
A    1
 C1 
A    2
 C2 
A    3
 F1 
A    4
 C3 
A    5
 N1 
A    6
 C4 
A    7
 N2 
A    8
 C5 
A    9
 C6 
A   10
 C7 
A   11
 C8 
A   12
 C9 
A   13
 C10
A   14
 C11
A   15
 S1 
A   16
 H1 
A   17
 H2 
A   18
 H3 
A   19
 H4 
A   20
 H5 
A   21
 H6 
A   22
 H7 
A   23
 H8 
A   24
 H9 
A   25
 H10
A   26
 H11
M  END
>  <ref_pdb>  (78) 
x0310_0A

>  <ref_mols>  (78) 
x0554_0A,x0739_0A

>  <original SMILES>  (78) 
C=C(F)CNc1nc(C)cc2sccc12

>  <rationale>  (78) 
info halogenbond:D39; hbond:S125; hydroph_interaction:Y89+Y90; 

>  <intxn_cluster>  (78) 
205

>  <intxn_cluster_rank>  (78) 
25

>  <N_interactions>  (78) 
4

>  <∆∆G>  (78) 
-6.383276

>  <$/mg>  (78) 
nan

>  <comRMSD>  (78) 
0.795771

>  <N_rotatable_bonds>  (78) 
4

>  <N_analogues_07>  (78) 
1

>  <deep_P1_sidechain>  (78) 
False

>  <farthest_distance_to_substrate>  (78) 
2.426109

>  <hbond:SER:7>  (78) 
hbond:SER:7    0
hbond:SER:7    0
Name: 77, dtype: object

>  <halogenbond:SER:7>  (78) 
halogenbond:SER:7    0
halogenbond:SER:7    0
Name: 77, dtype: object

>  <hbond:GLY:8>  (78) 
hbond:GLY:8    0
hbond:GLY:8    0
Name: 77, dtype: object

>  <hydroph_interaction:ASN:19>  (78) 
hydroph_interaction:ASN:19    0
hydroph_interaction:ASN:19    0
Name: 77, dtype: object

>  <hbond:ASN:19>  (78) 
hbond:ASN:19    0
hbond:ASN:19    0
Name: 77, dtype: object

>  <halogenbond:ASN:19>  (78) 
halogenbond:ASN:19    0
halogenbond:ASN:19    0
Name: 77, dtype: object

>  <hbond:ARG:20>  (78) 
hbond:ARG:20    0
hbond:ARG:20    0
Name: 77, dtype: object

>  <hydroph_interaction:ARG:20>  (78) 
hydroph_interaction:ARG:20    0
hydroph_interaction:ARG:20    0
Name: 77, dtype: object

>  <saltbridge:ARG:20>  (78) 
saltbridge:ARG:20    0
saltbridge:ARG:20    0
Name: 77, dtype: object

>  <halogenbond:ARG:20>  (78) 
halogenbond:ARG:20    0
halogenbond:ARG:20    0
Name: 77, dtype: object

>  <pication:ARG:20>  (78) 
pication:ARG:20    0
pication:ARG:20    0
Name: 77, dtype: object

>  <hbond:HIS:21>  (78) 
hbond:HIS:21    0
hbond:HIS:21    0
Name: 77, dtype: object

>  <hydroph_interaction:HIS:21>  (78) 
hydroph_interaction:HIS:21    0
hydroph_interaction:HIS:21    0
Name: 77, dtype: object

>  <saltbridge:HIS:21>  (78) 
saltbridge:HIS:21    0
saltbridge:HIS:21    0
Name: 77, dtype: object

>  <pistack:HIS:21>  (78) 
pistack:HIS:21    0
pistack:HIS:21    0
Name: 77, dtype: object

>  <pication:HIS:21>  (78) 
pication:HIS:21    0
pication:HIS:21    0
Name: 77, dtype: object

>  <halogenbond:HIS:21>  (78) 
halogenbond:HIS:21    0
halogenbond:HIS:21    0
Name: 77, dtype: object

>  <hydroph_interaction:LEU:22>  (78) 
hydroph_interaction:LEU:22    0
hydroph_interaction:LEU:22    0
Name: 77, dtype: object

>  <hbond:LEU:22>  (78) 
hbond:LEU:22    0
hbond:LEU:22    0
Name: 77, dtype: object

>  <hydroph_interaction:TRP:28>  (78) 
hydroph_interaction:TRP:28    0
hydroph_interaction:TRP:28    0
Name: 77, dtype: object

>  <hbond:SER:36>  (78) 
hbond:SER:36    0
hbond:SER:36    0
Name: 77, dtype: object

>  <halogenbond:SER:36>  (78) 
halogenbond:SER:36    0
halogenbond:SER:36    0
Name: 77, dtype: object

>  <hbond:ARG:38>  (78) 
hbond:ARG:38    0
hbond:ARG:38    0
Name: 77, dtype: object

>  <halogenbond:ARG:38>  (78) 
halogenbond:ARG:38    0
halogenbond:ARG:38    0
Name: 77, dtype: object

>  <hbond:ASP:39>  (78) 
hbond:ASP:39    0
hbond:ASP:39    0
Name: 77, dtype: object

>  <saltbridge:ASP:39>  (78) 
saltbridge:ASP:39    0
saltbridge:ASP:39    0
Name: 77, dtype: object

>  <hydroph_interaction:ASP:39>  (78) 
hydroph_interaction:ASP:39    0
hydroph_interaction:ASP:39    0
Name: 77, dtype: object

>  <halogenbond:ASP:39>  (78) 
halogenbond:ASP:39    1
halogenbond:ASP:39    1
Name: 77, dtype: object

>  <hydroph_interaction:LEU:40>  (78) 
hydroph_interaction:LEU:40    0
hydroph_interaction:LEU:40    0
Name: 77, dtype: object

>  <hydroph_interaction:TYR:63>  (78) 
hydroph_interaction:TYR:63    0
hydroph_interaction:TYR:63    0
Name: 77, dtype: object

>  <pistack:TYR:63>  (78) 
pistack:TYR:63    0
pistack:TYR:63    0
Name: 77, dtype: object

>  <hbond:TYR:63>  (78) 
hbond:TYR:63    0
hbond:TYR:63    0
Name: 77, dtype: object

>  <hbond:TYR:64>  (78) 
hbond:TYR:64    0
hbond:TYR:64    0
Name: 77, dtype: object

>  <halogenbond:TYR:64>  (78) 
halogenbond:TYR:64    0
halogenbond:TYR:64    0
Name: 77, dtype: object

>  <hydroph_interaction:TYR:64>  (78) 
hydroph_interaction:TYR:64    0
hydroph_interaction:TYR:64    0
Name: 77, dtype: object

>  <hbond:CYS:65>  (78) 
hbond:CYS:65    0
hbond:CYS:65    0
Name: 77, dtype: object

>  <halogenbond:CYS:65>  (78) 
halogenbond:CYS:65    0
halogenbond:CYS:65    0
Name: 77, dtype: object

>  <hbond:SER:66>  (78) 
hbond:SER:66    0
hbond:SER:66    0
Name: 77, dtype: object

>  <hbond:SER:67>  (78) 
hbond:SER:67    0
hbond:SER:67    0
Name: 77, dtype: object

>  <halogenbond:SER:67>  (78) 
halogenbond:SER:67    0
halogenbond:SER:67    0
Name: 77, dtype: object

>  <hydroph_interaction:ARG:68>  (78) 
hydroph_interaction:ARG:68    0
hydroph_interaction:ARG:68    0
Name: 77, dtype: object

>  <hbond:ARG:68>  (78) 
hbond:ARG:68    0
hbond:ARG:68    0
Name: 77, dtype: object

>  <saltbridge:ARG:68>  (78) 
saltbridge:ARG:68    0
saltbridge:ARG:68    0
Name: 77, dtype: object

>  <pication:ARG:68>  (78) 
pication:ARG:68    0
pication:ARG:68    0
Name: 77, dtype: object

>  <hydroph_interaction:TYR:72>  (78) 
hydroph_interaction:TYR:72    0
hydroph_interaction:TYR:72    0
Name: 77, dtype: object

>  <hydroph_interaction:VAL:74>  (78) 
hydroph_interaction:VAL:74    0
hydroph_interaction:VAL:74    0
Name: 77, dtype: object

>  <hydroph_interaction:PHE:76>  (78) 
hydroph_interaction:PHE:76    0
hydroph_interaction:PHE:76    0
Name: 77, dtype: object

>  <hbond:SER:77>  (78) 
hbond:SER:77    0
hbond:SER:77    0
Name: 77, dtype: object

>  <hbond:SER:80>  (78) 
hbond:SER:80    0
hbond:SER:80    0
Name: 77, dtype: object

>  <hbond:LEU:81>  (78) 
hbond:LEU:81    0
hbond:LEU:81    0
Name: 77, dtype: object

>  <halogenbond:LEU:81>  (78) 
halogenbond:LEU:81    0
halogenbond:LEU:81    0
Name: 77, dtype: object

>  <hydroph_interaction:LEU:81>  (78) 
hydroph_interaction:LEU:81    0
hydroph_interaction:LEU:81    0
Name: 77, dtype: object

>  <hydroph_interaction:ILE:82>  (78) 
hydroph_interaction:ILE:82    0
hydroph_interaction:ILE:82    0
Name: 77, dtype: object

>  <hbond:ILE:82>  (78) 
hbond:ILE:82    0
hbond:ILE:82    0
Name: 77, dtype: object

>  <hydroph_interaction:PHE:83>  (78) 
hydroph_interaction:PHE:83    0
hydroph_interaction:PHE:83    0
Name: 77, dtype: object

>  <hbond:PHE:83>  (78) 
hbond:PHE:83    0
hbond:PHE:83    0
Name: 77, dtype: object

>  <halogenbond:PHE:83>  (78) 
halogenbond:PHE:83    0
halogenbond:PHE:83    0
Name: 77, dtype: object

>  <pistack:PHE:83>  (78) 
pistack:PHE:83    0
pistack:PHE:83    0
Name: 77, dtype: object

>  <hydroph_interaction:VAL:84>  (78) 
hydroph_interaction:VAL:84    0
hydroph_interaction:VAL:84    0
Name: 77, dtype: object

>  <hbond:VAL:84>  (78) 
hbond:VAL:84    0
hbond:VAL:84    0
Name: 77, dtype: object

>  <halogenbond:VAL:84>  (78) 
halogenbond:VAL:84    0
halogenbond:VAL:84    0
Name: 77, dtype: object

>  <hydroph_interaction:GLU:85>  (78) 
hydroph_interaction:GLU:85    0
hydroph_interaction:GLU:85    0
Name: 77, dtype: object

>  <hbond:GLU:85>  (78) 
hbond:GLU:85    0
hbond:GLU:85    0
Name: 77, dtype: object

>  <saltbridge:GLU:85>  (78) 
saltbridge:GLU:85    0
saltbridge:GLU:85    0
Name: 77, dtype: object

>  <halogenbond:GLU:85>  (78) 
halogenbond:GLU:85    0
halogenbond:GLU:85    0
Name: 77, dtype: object

>  <hbond:ALA:86>  (78) 
hbond:ALA:86    0
hbond:ALA:86    0
Name: 77, dtype: object

>  <halogenbond:ALA:86>  (78) 
halogenbond:ALA:86    0
halogenbond:ALA:86    0
Name: 77, dtype: object

>  <hydroph_interaction:ALA:86>  (78) 
hydroph_interaction:ALA:86    0
hydroph_interaction:ALA:86    0
Name: 77, dtype: object

>  <hbond:SER:87>  (78) 
hbond:SER:87    0
hbond:SER:87    0
Name: 77, dtype: object

>  <halogenbond:SER:87>  (78) 
halogenbond:SER:87    0
halogenbond:SER:87    0
Name: 77, dtype: object

>  <hbond:GLU:88>  (78) 
hbond:GLU:88    0
hbond:GLU:88    0
Name: 77, dtype: object

>  <hydroph_interaction:GLU:88>  (78) 
hydroph_interaction:GLU:88    0
hydroph_interaction:GLU:88    0
Name: 77, dtype: object

>  <halogenbond:GLU:88>  (78) 
halogenbond:GLU:88    0
halogenbond:GLU:88    0
Name: 77, dtype: object

>  <saltbridge:GLU:88>  (78) 
saltbridge:GLU:88    0
saltbridge:GLU:88    0
Name: 77, dtype: object

>  <hydroph_interaction:TYR:89>  (78) 
hydroph_interaction:TYR:89    1
hydroph_interaction:TYR:89    1
Name: 77, dtype: object

>  <pistack:TYR:89>  (78) 
pistack:TYR:89    0
pistack:TYR:89    0
Name: 77, dtype: object

>  <hbond:TYR:89>  (78) 
hbond:TYR:89    0
hbond:TYR:89    0
Name: 77, dtype: object

>  <halogenbond:TYR:89>  (78) 
halogenbond:TYR:89    0
halogenbond:TYR:89    0
Name: 77, dtype: object

>  <hbond:TYR:90>  (78) 
hbond:TYR:90    0
hbond:TYR:90    0
Name: 77, dtype: object

>  <hydroph_interaction:TYR:90>  (78) 
hydroph_interaction:TYR:90    1
hydroph_interaction:TYR:90    1
Name: 77, dtype: object

>  <pistack:TYR:90>  (78) 
pistack:TYR:90    0
pistack:TYR:90    0
Name: 77, dtype: object

>  <halogenbond:TYR:90>  (78) 
halogenbond:TYR:90    0
halogenbond:TYR:90    0
Name: 77, dtype: object

>  <pication:TYR:90>  (78) 
pication:TYR:90    0
pication:TYR:90    0
Name: 77, dtype: object

>  <hydroph_interaction:PRO:91>  (78) 
hydroph_interaction:PRO:91    0
hydroph_interaction:PRO:91    0
Name: 77, dtype: object

>  <halogenbond:PRO:91>  (78) 
halogenbond:PRO:91    0
halogenbond:PRO:91    0
Name: 77, dtype: object

>  <hbond:PRO:91>  (78) 
hbond:PRO:91    0
hbond:PRO:91    0
Name: 77, dtype: object

>  <hydroph_interaction:ALA:92>  (78) 
hydroph_interaction:ALA:92    0
hydroph_interaction:ALA:92    0
Name: 77, dtype: object

>  <hbond:ARG:93>  (78) 
hbond:ARG:93    0
hbond:ARG:93    0
Name: 77, dtype: object

>  <pication:ARG:93>  (78) 
pication:ARG:93    0
pication:ARG:93    0
Name: 77, dtype: object

>  <saltbridge:ARG:93>  (78) 
saltbridge:ARG:93    0
saltbridge:ARG:93    0
Name: 77, dtype: object

>  <hydroph_interaction:ARG:93>  (78) 
hydroph_interaction:ARG:93    0
hydroph_interaction:ARG:93    0
Name: 77, dtype: object

>  <halogenbond:ARG:93>  (78) 
halogenbond:ARG:93    0
halogenbond:ARG:93    0
Name: 77, dtype: object

>  <hydroph_interaction:TYR:94>  (78) 
hydroph_interaction:TYR:94    0
hydroph_interaction:TYR:94    0
Name: 77, dtype: object

>  <hbond:TYR:94>  (78) 
hbond:TYR:94    0
hbond:TYR:94    0
Name: 77, dtype: object

>  <halogenbond:GLN:95>  (78) 
halogenbond:GLN:95    0
halogenbond:GLN:95    0
Name: 77, dtype: object

>  <hbond:GLN:95>  (78) 
hbond:GLN:95    0
hbond:GLN:95    0
Name: 77, dtype: object

>  <hydroph_interaction:GLN:95>  (78) 
hydroph_interaction:GLN:95    0
hydroph_interaction:GLN:95    0
Name: 77, dtype: object

>  <hbond:SER:96>  (78) 
hbond:SER:96    0
hbond:SER:96    0
Name: 77, dtype: object

>  <hydroph_interaction:LEU:98>  (78) 
hydroph_interaction:LEU:98    0
hydroph_interaction:LEU:98    0
Name: 77, dtype: object

>  <hbond:LEU:98>  (78) 
hbond:LEU:98    0
hbond:LEU:98    0
Name: 77, dtype: object

>  <hbond:MET:99>  (78) 
hbond:MET:99    0
hbond:MET:99    0
Name: 77, dtype: object

>  <hydroph_interaction:MET:99>  (78) 
hydroph_interaction:MET:99    0
hydroph_interaction:MET:99    0
Name: 77, dtype: object

>  <halogenbond:MET:99>  (78) 
halogenbond:MET:99    0
halogenbond:MET:99    0
Name: 77, dtype: object

>  <hydroph_interaction:LEU:100>  (78) 
hydroph_interaction:LEU:100    0
hydroph_interaction:LEU:100    0
Name: 77, dtype: object

>  <hbond:LEU:100>  (78) 
hbond:LEU:100    0
hbond:LEU:100    0
Name: 77, dtype: object

>  <hbond:ALA:101>  (78) 
hbond:ALA:101    0
hbond:ALA:101    0
Name: 77, dtype: object

>  <hydroph_interaction:ALA:101>  (78) 
hydroph_interaction:ALA:101    0
hydroph_interaction:ALA:101    0
Name: 77, dtype: object

>  <hydroph_interaction:VAL:102>  (78) 
hydroph_interaction:VAL:102    0
hydroph_interaction:VAL:102    0
Name: 77, dtype: object

>  <hbond:VAL:102>  (78) 
hbond:VAL:102    0
hbond:VAL:102    0
Name: 77, dtype: object

>  <hbond:GLY:103>  (78) 
hbond:GLY:103    0
hbond:GLY:103    0
Name: 77, dtype: object

>  <halogenbond:GLY:103>  (78) 
halogenbond:GLY:103    0
halogenbond:GLY:103    0
Name: 77, dtype: object

>  <hydroph_interaction:HIS:104>  (78) 
hydroph_interaction:HIS:104    0
hydroph_interaction:HIS:104    0
Name: 77, dtype: object

>  <hbond:HIS:104>  (78) 
hbond:HIS:104    0
hbond:HIS:104    0
Name: 77, dtype: object

>  <saltbridge:HIS:104>  (78) 
saltbridge:HIS:104    0
saltbridge:HIS:104    0
Name: 77, dtype: object

>  <pication:HIS:104>  (78) 
pication:HIS:104    0
pication:HIS:104    0
Name: 77, dtype: object

>  <pistack:HIS:104>  (78) 
pistack:HIS:104    0
pistack:HIS:104    0
Name: 77, dtype: object

>  <halogenbond:HIS:104>  (78) 
halogenbond:HIS:104    0
halogenbond:HIS:104    0
Name: 77, dtype: object

>  <hbond:SER:105>  (78) 
hbond:SER:105    0
hbond:SER:105    0
Name: 77, dtype: object

>  <halogenbond:SER:105>  (78) 
halogenbond:SER:105    0
halogenbond:SER:105    0
Name: 77, dtype: object

>  <hbond:GLU:106>  (78) 
hbond:GLU:106    0
hbond:GLU:106    0
Name: 77, dtype: object

>  <hydroph_interaction:GLU:106>  (78) 
hydroph_interaction:GLU:106    0
hydroph_interaction:GLU:106    0
Name: 77, dtype: object

>  <saltbridge:GLU:106>  (78) 
saltbridge:GLU:106    0
saltbridge:GLU:106    0
Name: 77, dtype: object

>  <halogenbond:GLU:106>  (78) 
halogenbond:GLU:106    0
halogenbond:GLU:106    0
Name: 77, dtype: object

>  <hydroph_interaction:PRO:107>  (78) 
hydroph_interaction:PRO:107    0
hydroph_interaction:PRO:107    0
Name: 77, dtype: object

>  <hbond:PRO:107>  (78) 
hbond:PRO:107    0
hbond:PRO:107    0
Name: 77, dtype: object

>  <halogenbond:PRO:107>  (78) 
halogenbond:PRO:107    0
halogenbond:PRO:107    0
Name: 77, dtype: object

>  <hbond:GLY:108>  (78) 
hbond:GLY:108    0
hbond:GLY:108    0
Name: 77, dtype: object

>  <halogenbond:GLY:108>  (78) 
halogenbond:GLY:108    0
halogenbond:GLY:108    0
Name: 77, dtype: object

>  <hbond:ASP:109>  (78) 
hbond:ASP:109    0
hbond:ASP:109    0
Name: 77, dtype: object

>  <hydroph_interaction:ASP:109>  (78) 
hydroph_interaction:ASP:109    0
hydroph_interaction:ASP:109    0
Name: 77, dtype: object

>  <saltbridge:ASP:109>  (78) 
saltbridge:ASP:109    0
saltbridge:ASP:109    0
Name: 77, dtype: object

>  <hbond:CYS:110>  (78) 
hbond:CYS:110    0
hbond:CYS:110    0
Name: 77, dtype: object

>  <halogenbond:CYS:110>  (78) 
halogenbond:CYS:110    0
halogenbond:CYS:110    0
Name: 77, dtype: object

>  <hbond:GLY:111>  (78) 
hbond:GLY:111    0
hbond:GLY:111    0
Name: 77, dtype: object

>  <hbond:GLY:112>  (78) 
hbond:GLY:112    0
hbond:GLY:112    0
Name: 77, dtype: object

>  <hbond:ILE:113>  (78) 
hbond:ILE:113    0
hbond:ILE:113    0
Name: 77, dtype: object

>  <hydroph_interaction:LEU:114>  (78) 
hydroph_interaction:LEU:114    0
hydroph_interaction:LEU:114    0
Name: 77, dtype: object

>  <hbond:LEU:114>  (78) 
hbond:LEU:114    0
hbond:LEU:114    0
Name: 77, dtype: object

>  <hydroph_interaction:ILE:123>  (78) 
hydroph_interaction:ILE:123    0
hydroph_interaction:ILE:123    0
Name: 77, dtype: object

>  <hbond:ILE:123>  (78) 
hbond:ILE:123    0
hbond:ILE:123    0
Name: 77, dtype: object

>  <hydroph_interaction:VAL:124>  (78) 
hydroph_interaction:VAL:124    0
hydroph_interaction:VAL:124    0
Name: 77, dtype: object

>  <hbond:VAL:124>  (78) 
hbond:VAL:124    0
hbond:VAL:124    0
Name: 77, dtype: object

>  <halogenbond:VAL:124>  (78) 
halogenbond:VAL:124    0
halogenbond:VAL:124    0
Name: 77, dtype: object

>  <hbond:SER:125>  (78) 
hbond:SER:125    1
hbond:SER:125    1
Name: 77, dtype: object

>  <halogenbond:SER:125>  (78) 
halogenbond:SER:125    0
halogenbond:SER:125    0
Name: 77, dtype: object

>  <hydroph_interaction:THR:126>  (78) 
hydroph_interaction:THR:126    0
hydroph_interaction:THR:126    0
Name: 77, dtype: object

>  <hbond:THR:126>  (78) 
hbond:THR:126    0
hbond:THR:126    0
Name: 77, dtype: object

>  <halogenbond:THR:126>  (78) 
halogenbond:THR:126    0
halogenbond:THR:126    0
Name: 77, dtype: object

>  <hbond:GLY:127>  (78) 
hbond:GLY:127    0
hbond:GLY:127    0
Name: 77, dtype: object

>  <halogenbond:GLY:127>  (78) 
halogenbond:GLY:127    0
halogenbond:GLY:127    0
Name: 77, dtype: object

>  <hydroph_interaction:GLY:127>  (78) 
hydroph_interaction:GLY:127    0
hydroph_interaction:GLY:127    0
Name: 77, dtype: object

>  <hbond:GLY:128>  (78) 
hbond:GLY:128    0
hbond:GLY:128    0
Name: 77, dtype: object

>  <halogenbond:GLY:128>  (78) 
halogenbond:GLY:128    0
halogenbond:GLY:128    0
Name: 77, dtype: object

>  <hydroph_interaction:GLY:128>  (78) 
hydroph_interaction:GLY:128    0
hydroph_interaction:GLY:128    0
Name: 77, dtype: object

>  <hbond:ASN:129>  (78) 
hbond:ASN:129    0
hbond:ASN:129    0
Name: 77, dtype: object

>  <hydroph_interaction:ASN:129>  (78) 
hydroph_interaction:ASN:129    0
hydroph_interaction:ASN:129    0
Name: 77, dtype: object

>  <halogenbond:ASN:129>  (78) 
halogenbond:ASN:129    0
halogenbond:ASN:129    0
Name: 77, dtype: object

>  <hbond:GLY:130>  (78) 
hbond:GLY:130    0
hbond:GLY:130    0
Name: 77, dtype: object

>  <hydroph_interaction:LEU:131>  (78) 
hydroph_interaction:LEU:131    0
hydroph_interaction:LEU:131    0
Name: 77, dtype: object

>  <hbond:LEU:131>  (78) 
hbond:LEU:131    0
hbond:LEU:131    0
Name: 77, dtype: object

>  <halogenbond:LEU:131>  (78) 
halogenbond:LEU:131    0
halogenbond:LEU:131    0
Name: 77, dtype: object

>  <hydroph_interaction:VAL:132>  (78) 
hydroph_interaction:VAL:132    0
hydroph_interaction:VAL:132    0
Name: 77, dtype: object

>  <hbond:VAL:132>  (78) 
hbond:VAL:132    0
hbond:VAL:132    0
Name: 77, dtype: object

>  <hbond:GLY:133>  (78) 
hbond:GLY:133    0
hbond:GLY:133    0
Name: 77, dtype: object

>  <halogenbond:GLY:133>  (78) 
halogenbond:GLY:133    0
halogenbond:GLY:133    0
Name: 77, dtype: object

>  <hydroph_interaction:PHE:134>  (78) 
hydroph_interaction:PHE:134    0
hydroph_interaction:PHE:134    0
Name: 77, dtype: object

>  <hbond:PHE:134>  (78) 
hbond:PHE:134    0
hbond:PHE:134    0
Name: 77, dtype: object

>  <pistack:PHE:134>  (78) 
pistack:PHE:134    0
pistack:PHE:134    0
Name: 77, dtype: object

>  <pication:PHE:134>  (78) 
pication:PHE:134    0
pication:PHE:134    0
Name: 77, dtype: object

>  <hydroph_interaction:ALA:135>  (78) 
hydroph_interaction:ALA:135    0
hydroph_interaction:ALA:135    0
Name: 77, dtype: object

>  <hbond:ALA:135>  (78) 
hbond:ALA:135    0
hbond:ALA:135    0
Name: 77, dtype: object

$$$$
Z5058629705
     RDKit          3D

 33 35  0  0  0  0  0  0  0  0999 V2000
    8.5090   14.7690   21.0890 C   0  0  0  0  0  0  0  0  0  0  0  0
    9.9590   14.5340   21.3710 C   0  0  0  0  0  0  0  0  0  0  0  0
   10.4900   13.5940   22.1410 C   0  0  0  0  0  0  0  0  0  0  0  0
    9.8680   12.5220   22.8690 C   0  0  0  0  0  0  0  0  0  0  0  0
   10.2900   11.2970   22.5770 N   0  0  0  0  0  0  0  0  0  0  0  0
    9.5790   10.4900   23.3280 N   0  0  0  0  0  0  0  0  0  0  0  0
    9.8320    9.0940   23.1930 C   0  0  0  0  0  0  0  0  0  0  0  0
    8.6820   11.1140   24.1380 C   0  0  0  0  0  0  0  0  0  0  0  0
    7.7560   10.6420   25.0590 C   0  0  0  0  0  0  0  0  0  0  0  0
    6.9950   11.5900   25.7130 C   0  0  0  0  0  0  0  0  0  0  0  0
    7.1990   12.9270   25.4180 C   0  0  0  0  0  0  0  0  0  0  0  0
    8.0950   13.4160   24.5230 N   0  0  0  0  0  0  0  0  0  0  0  0
    8.8400   12.4740   23.8780 C   0  0  0  0  0  0  0  0  0  0  0  0
   11.9810   13.5930   22.2680 C   0  0  0  0  0  0  0  0  0  0  0  0
   12.5100   14.9140   22.6010 N   0  0  0  0  0  0  0  0  0  0  0  0
   12.2380   15.8100   21.4760 C   0  0  0  0  0  0  0  0  0  0  0  0
   10.9550   15.4390   20.6750 C   0  0  0  0  0  0  0  0  0  0  0  0
    7.9200   14.6490   22.0040 H   0  0  0  0  0  0  0  0  0  0  0  0
    8.1430   14.0650   20.3650 H   0  0  0  0  0  0  0  0  0  0  0  0
    8.3090   15.7560   20.6700 H   0  0  0  0  0  0  0  0  0  0  0  0
    9.3030    8.5850   23.9910 H   0  0  0  0  0  0  0  0  0  0  0  0
   10.9060    8.9040   23.2800 H   0  0  0  0  0  0  0  0  0  0  0  0
    9.4660    8.7670   22.2200 H   0  0  0  0  0  0  0  0  0  0  0  0
    7.6310    9.5950   25.2540 H   0  0  0  0  0  0  0  0  0  0  0  0
    6.2510   11.2930   26.4450 H   0  0  0  0  0  0  0  0  0  0  0  0
    6.6100   13.6880   25.9250 H   0  0  0  0  0  0  0  0  0  0  0  0
   12.4540   13.2590   21.3410 H   0  0  0  0  0  0  0  0  0  0  0  0
   12.2960   12.9220   23.0730 H   0  0  0  0  0  0  0  0  0  0  0  0
   13.5220   14.8160   22.7070 H   0  0  0  0  0  0  0  0  0  0  0  0
   13.1110   15.8170   20.8080 H   0  0  0  0  0  0  0  0  0  0  0  0
   12.1580   16.8340   21.8590 H   0  0  0  0  0  0  0  0  0  0  0  0
   10.4290   16.3350   20.3390 H   0  0  0  0  0  0  0  0  0  0  0  0
   11.2920   14.9300   19.7630 H   0  0  0  0  0  0  0  0  0  0  0  0
  1  2  1  0
  2  3  2  0
  3  4  1  0
  4  5  2  0
  5  6  1  0
  6  7  1  0
  6  8  1  0
  8  9  2  0
  9 10  1  0
 10 11  2  0
 11 12  1  0
 12 13  2  0
  3 14  1  0
 14 15  1  0
 15 16  1  0
 16 17  1  0
 17  2  1  0
 13  4  1  0
 13  8  1  0
  1 18  1  0
  1 19  1  0
  1 20  1  0
  7 21  1  0
  7 22  1  0
  7 23  1  0
  9 24  1  0
 10 25  1  0
 11 26  1  0
 14 27  1  0
 14 28  1  0
 15 29  1  0
 16 30  1  0
 16 31  1  0
 17 32  1  0
 17 33  1  0
A    1
 C1 
A    2
 C2 
A    3
 C3 
A    4
 C4 
A    5
 N1 
A    6
 N2 
A    7
 C5 
A    8
 C6 
A    9
 C7 
A   10
 C8 
A   11
 C9 
A   12
 N3 
A   13
 C10
A   14
 C11
A   15
 N4 
A   16
 C12
A   17
 C13
A   18
 H1 
A   19
 H2 
A   20
 H3 
A   21
 H4 
A   22
 H5 
A   23
 H6 
A   24
 H7 
A   25
 H8 
A   26
 H9 
A   27
 H10
A   28
 H11
A   29
 H12
A   30
 H13
A   31
 H14
A   32
 H15
A   33
 H16
M  END
>  <ref_pdb>  (79) 
x0310_0A

>  <ref_mols>  (79) 
x0451_0A,x0812_0A

>  <original SMILES>  (79) 
CC1=C(c2nn(C)c3cccnc23)CNCC1

>  <rationale>  (79) 
info hbond:E88+S87; hydroph_interaction:Y90+T126+V84; 

>  <intxn_cluster>  (79) 
206

>  <intxn_cluster_rank>  (79) 
25

>  <N_interactions>  (79) 
5

>  <∆∆G>  (79) 
-8.688542

>  <$/mg>  (79) 
0.0

>  <comRMSD>  (79) 
0.7834

>  <N_rotatable_bonds>  (79) 
3

>  <N_analogues_07>  (79) 
0

>  <deep_P1_sidechain>  (79) 
False

>  <farthest_distance_to_substrate>  (79) 
2.557432

>  <hbond:SER:7>  (79) 
hbond:SER:7    0
hbond:SER:7    0
Name: 78, dtype: object

>  <halogenbond:SER:7>  (79) 
halogenbond:SER:7    0
halogenbond:SER:7    0
Name: 78, dtype: object

>  <hbond:GLY:8>  (79) 
hbond:GLY:8    0
hbond:GLY:8    0
Name: 78, dtype: object

>  <hydroph_interaction:ASN:19>  (79) 
hydroph_interaction:ASN:19    0
hydroph_interaction:ASN:19    0
Name: 78, dtype: object

>  <hbond:ASN:19>  (79) 
hbond:ASN:19    0
hbond:ASN:19    0
Name: 78, dtype: object

>  <halogenbond:ASN:19>  (79) 
halogenbond:ASN:19    0
halogenbond:ASN:19    0
Name: 78, dtype: object

>  <hbond:ARG:20>  (79) 
hbond:ARG:20    0
hbond:ARG:20    0
Name: 78, dtype: object

>  <hydroph_interaction:ARG:20>  (79) 
hydroph_interaction:ARG:20    0
hydroph_interaction:ARG:20    0
Name: 78, dtype: object

>  <saltbridge:ARG:20>  (79) 
saltbridge:ARG:20    0
saltbridge:ARG:20    0
Name: 78, dtype: object

>  <halogenbond:ARG:20>  (79) 
halogenbond:ARG:20    0
halogenbond:ARG:20    0
Name: 78, dtype: object

>  <pication:ARG:20>  (79) 
pication:ARG:20    0
pication:ARG:20    0
Name: 78, dtype: object

>  <hbond:HIS:21>  (79) 
hbond:HIS:21    0
hbond:HIS:21    0
Name: 78, dtype: object

>  <hydroph_interaction:HIS:21>  (79) 
hydroph_interaction:HIS:21    0
hydroph_interaction:HIS:21    0
Name: 78, dtype: object

>  <saltbridge:HIS:21>  (79) 
saltbridge:HIS:21    0
saltbridge:HIS:21    0
Name: 78, dtype: object

>  <pistack:HIS:21>  (79) 
pistack:HIS:21    0
pistack:HIS:21    0
Name: 78, dtype: object

>  <pication:HIS:21>  (79) 
pication:HIS:21    0
pication:HIS:21    0
Name: 78, dtype: object

>  <halogenbond:HIS:21>  (79) 
halogenbond:HIS:21    0
halogenbond:HIS:21    0
Name: 78, dtype: object

>  <hydroph_interaction:LEU:22>  (79) 
hydroph_interaction:LEU:22    0
hydroph_interaction:LEU:22    0
Name: 78, dtype: object

>  <hbond:LEU:22>  (79) 
hbond:LEU:22    0
hbond:LEU:22    0
Name: 78, dtype: object

>  <hydroph_interaction:TRP:28>  (79) 
hydroph_interaction:TRP:28    0
hydroph_interaction:TRP:28    0
Name: 78, dtype: object

>  <hbond:SER:36>  (79) 
hbond:SER:36    0
hbond:SER:36    0
Name: 78, dtype: object

>  <halogenbond:SER:36>  (79) 
halogenbond:SER:36    0
halogenbond:SER:36    0
Name: 78, dtype: object

>  <hbond:ARG:38>  (79) 
hbond:ARG:38    0
hbond:ARG:38    0
Name: 78, dtype: object

>  <halogenbond:ARG:38>  (79) 
halogenbond:ARG:38    0
halogenbond:ARG:38    0
Name: 78, dtype: object

>  <hbond:ASP:39>  (79) 
hbond:ASP:39    0
hbond:ASP:39    0
Name: 78, dtype: object

>  <saltbridge:ASP:39>  (79) 
saltbridge:ASP:39    0
saltbridge:ASP:39    0
Name: 78, dtype: object

>  <hydroph_interaction:ASP:39>  (79) 
hydroph_interaction:ASP:39    0
hydroph_interaction:ASP:39    0
Name: 78, dtype: object

>  <halogenbond:ASP:39>  (79) 
halogenbond:ASP:39    0
halogenbond:ASP:39    0
Name: 78, dtype: object

>  <hydroph_interaction:LEU:40>  (79) 
hydroph_interaction:LEU:40    0
hydroph_interaction:LEU:40    0
Name: 78, dtype: object

>  <hydroph_interaction:TYR:63>  (79) 
hydroph_interaction:TYR:63    0
hydroph_interaction:TYR:63    0
Name: 78, dtype: object

>  <pistack:TYR:63>  (79) 
pistack:TYR:63    0
pistack:TYR:63    0
Name: 78, dtype: object

>  <hbond:TYR:63>  (79) 
hbond:TYR:63    0
hbond:TYR:63    0
Name: 78, dtype: object

>  <hbond:TYR:64>  (79) 
hbond:TYR:64    0
hbond:TYR:64    0
Name: 78, dtype: object

>  <halogenbond:TYR:64>  (79) 
halogenbond:TYR:64    0
halogenbond:TYR:64    0
Name: 78, dtype: object

>  <hydroph_interaction:TYR:64>  (79) 
hydroph_interaction:TYR:64    0
hydroph_interaction:TYR:64    0
Name: 78, dtype: object

>  <hbond:CYS:65>  (79) 
hbond:CYS:65    0
hbond:CYS:65    0
Name: 78, dtype: object

>  <halogenbond:CYS:65>  (79) 
halogenbond:CYS:65    0
halogenbond:CYS:65    0
Name: 78, dtype: object

>  <hbond:SER:66>  (79) 
hbond:SER:66    0
hbond:SER:66    0
Name: 78, dtype: object

>  <hbond:SER:67>  (79) 
hbond:SER:67    0
hbond:SER:67    0
Name: 78, dtype: object

>  <halogenbond:SER:67>  (79) 
halogenbond:SER:67    0
halogenbond:SER:67    0
Name: 78, dtype: object

>  <hydroph_interaction:ARG:68>  (79) 
hydroph_interaction:ARG:68    0
hydroph_interaction:ARG:68    0
Name: 78, dtype: object

>  <hbond:ARG:68>  (79) 
hbond:ARG:68    0
hbond:ARG:68    0
Name: 78, dtype: object

>  <saltbridge:ARG:68>  (79) 
saltbridge:ARG:68    0
saltbridge:ARG:68    0
Name: 78, dtype: object

>  <pication:ARG:68>  (79) 
pication:ARG:68    0
pication:ARG:68    0
Name: 78, dtype: object

>  <hydroph_interaction:TYR:72>  (79) 
hydroph_interaction:TYR:72    0
hydroph_interaction:TYR:72    0
Name: 78, dtype: object

>  <hydroph_interaction:VAL:74>  (79) 
hydroph_interaction:VAL:74    0
hydroph_interaction:VAL:74    0
Name: 78, dtype: object

>  <hydroph_interaction:PHE:76>  (79) 
hydroph_interaction:PHE:76    0
hydroph_interaction:PHE:76    0
Name: 78, dtype: object

>  <hbond:SER:77>  (79) 
hbond:SER:77    0
hbond:SER:77    0
Name: 78, dtype: object

>  <hbond:SER:80>  (79) 
hbond:SER:80    0
hbond:SER:80    0
Name: 78, dtype: object

>  <hbond:LEU:81>  (79) 
hbond:LEU:81    0
hbond:LEU:81    0
Name: 78, dtype: object

>  <halogenbond:LEU:81>  (79) 
halogenbond:LEU:81    0
halogenbond:LEU:81    0
Name: 78, dtype: object

>  <hydroph_interaction:LEU:81>  (79) 
hydroph_interaction:LEU:81    0
hydroph_interaction:LEU:81    0
Name: 78, dtype: object

>  <hydroph_interaction:ILE:82>  (79) 
hydroph_interaction:ILE:82    0
hydroph_interaction:ILE:82    0
Name: 78, dtype: object

>  <hbond:ILE:82>  (79) 
hbond:ILE:82    0
hbond:ILE:82    0
Name: 78, dtype: object

>  <hydroph_interaction:PHE:83>  (79) 
hydroph_interaction:PHE:83    0
hydroph_interaction:PHE:83    0
Name: 78, dtype: object

>  <hbond:PHE:83>  (79) 
hbond:PHE:83    0
hbond:PHE:83    0
Name: 78, dtype: object

>  <halogenbond:PHE:83>  (79) 
halogenbond:PHE:83    0
halogenbond:PHE:83    0
Name: 78, dtype: object

>  <pistack:PHE:83>  (79) 
pistack:PHE:83    0
pistack:PHE:83    0
Name: 78, dtype: object

>  <hydroph_interaction:VAL:84>  (79) 
hydroph_interaction:VAL:84    1
hydroph_interaction:VAL:84    1
Name: 78, dtype: object

>  <hbond:VAL:84>  (79) 
hbond:VAL:84    0
hbond:VAL:84    0
Name: 78, dtype: object

>  <halogenbond:VAL:84>  (79) 
halogenbond:VAL:84    0
halogenbond:VAL:84    0
Name: 78, dtype: object

>  <hydroph_interaction:GLU:85>  (79) 
hydroph_interaction:GLU:85    0
hydroph_interaction:GLU:85    0
Name: 78, dtype: object

>  <hbond:GLU:85>  (79) 
hbond:GLU:85    0
hbond:GLU:85    0
Name: 78, dtype: object

>  <saltbridge:GLU:85>  (79) 
saltbridge:GLU:85    0
saltbridge:GLU:85    0
Name: 78, dtype: object

>  <halogenbond:GLU:85>  (79) 
halogenbond:GLU:85    0
halogenbond:GLU:85    0
Name: 78, dtype: object

>  <hbond:ALA:86>  (79) 
hbond:ALA:86    0
hbond:ALA:86    0
Name: 78, dtype: object

>  <halogenbond:ALA:86>  (79) 
halogenbond:ALA:86    0
halogenbond:ALA:86    0
Name: 78, dtype: object

>  <hydroph_interaction:ALA:86>  (79) 
hydroph_interaction:ALA:86    0
hydroph_interaction:ALA:86    0
Name: 78, dtype: object

>  <hbond:SER:87>  (79) 
hbond:SER:87    1
hbond:SER:87    1
Name: 78, dtype: object

>  <halogenbond:SER:87>  (79) 
halogenbond:SER:87    0
halogenbond:SER:87    0
Name: 78, dtype: object

>  <hbond:GLU:88>  (79) 
hbond:GLU:88    1
hbond:GLU:88    1
Name: 78, dtype: object

>  <hydroph_interaction:GLU:88>  (79) 
hydroph_interaction:GLU:88    0
hydroph_interaction:GLU:88    0
Name: 78, dtype: object

>  <halogenbond:GLU:88>  (79) 
halogenbond:GLU:88    0
halogenbond:GLU:88    0
Name: 78, dtype: object

>  <saltbridge:GLU:88>  (79) 
saltbridge:GLU:88    0
saltbridge:GLU:88    0
Name: 78, dtype: object

>  <hydroph_interaction:TYR:89>  (79) 
hydroph_interaction:TYR:89    0
hydroph_interaction:TYR:89    0
Name: 78, dtype: object

>  <pistack:TYR:89>  (79) 
pistack:TYR:89    0
pistack:TYR:89    0
Name: 78, dtype: object

>  <hbond:TYR:89>  (79) 
hbond:TYR:89    0
hbond:TYR:89    0
Name: 78, dtype: object

>  <halogenbond:TYR:89>  (79) 
halogenbond:TYR:89    0
halogenbond:TYR:89    0
Name: 78, dtype: object

>  <hbond:TYR:90>  (79) 
hbond:TYR:90    0
hbond:TYR:90    0
Name: 78, dtype: object

>  <hydroph_interaction:TYR:90>  (79) 
hydroph_interaction:TYR:90    1
hydroph_interaction:TYR:90    1
Name: 78, dtype: object

>  <pistack:TYR:90>  (79) 
pistack:TYR:90    0
pistack:TYR:90    0
Name: 78, dtype: object

>  <halogenbond:TYR:90>  (79) 
halogenbond:TYR:90    0
halogenbond:TYR:90    0
Name: 78, dtype: object

>  <pication:TYR:90>  (79) 
pication:TYR:90    0
pication:TYR:90    0
Name: 78, dtype: object

>  <hydroph_interaction:PRO:91>  (79) 
hydroph_interaction:PRO:91    0
hydroph_interaction:PRO:91    0
Name: 78, dtype: object

>  <halogenbond:PRO:91>  (79) 
halogenbond:PRO:91    0
halogenbond:PRO:91    0
Name: 78, dtype: object

>  <hbond:PRO:91>  (79) 
hbond:PRO:91    0
hbond:PRO:91    0
Name: 78, dtype: object

>  <hydroph_interaction:ALA:92>  (79) 
hydroph_interaction:ALA:92    0
hydroph_interaction:ALA:92    0
Name: 78, dtype: object

>  <hbond:ARG:93>  (79) 
hbond:ARG:93    0
hbond:ARG:93    0
Name: 78, dtype: object

>  <pication:ARG:93>  (79) 
pication:ARG:93    0
pication:ARG:93    0
Name: 78, dtype: object

>  <saltbridge:ARG:93>  (79) 
saltbridge:ARG:93    0
saltbridge:ARG:93    0
Name: 78, dtype: object

>  <hydroph_interaction:ARG:93>  (79) 
hydroph_interaction:ARG:93    0
hydroph_interaction:ARG:93    0
Name: 78, dtype: object

>  <halogenbond:ARG:93>  (79) 
halogenbond:ARG:93    0
halogenbond:ARG:93    0
Name: 78, dtype: object

>  <hydroph_interaction:TYR:94>  (79) 
hydroph_interaction:TYR:94    0
hydroph_interaction:TYR:94    0
Name: 78, dtype: object

>  <hbond:TYR:94>  (79) 
hbond:TYR:94    0
hbond:TYR:94    0
Name: 78, dtype: object

>  <halogenbond:GLN:95>  (79) 
halogenbond:GLN:95    0
halogenbond:GLN:95    0
Name: 78, dtype: object

>  <hbond:GLN:95>  (79) 
hbond:GLN:95    0
hbond:GLN:95    0
Name: 78, dtype: object

>  <hydroph_interaction:GLN:95>  (79) 
hydroph_interaction:GLN:95    0
hydroph_interaction:GLN:95    0
Name: 78, dtype: object

>  <hbond:SER:96>  (79) 
hbond:SER:96    0
hbond:SER:96    0
Name: 78, dtype: object

>  <hydroph_interaction:LEU:98>  (79) 
hydroph_interaction:LEU:98    0
hydroph_interaction:LEU:98    0
Name: 78, dtype: object

>  <hbond:LEU:98>  (79) 
hbond:LEU:98    0
hbond:LEU:98    0
Name: 78, dtype: object

>  <hbond:MET:99>  (79) 
hbond:MET:99    0
hbond:MET:99    0
Name: 78, dtype: object

>  <hydroph_interaction:MET:99>  (79) 
hydroph_interaction:MET:99    0
hydroph_interaction:MET:99    0
Name: 78, dtype: object

>  <halogenbond:MET:99>  (79) 
halogenbond:MET:99    0
halogenbond:MET:99    0
Name: 78, dtype: object

>  <hydroph_interaction:LEU:100>  (79) 
hydroph_interaction:LEU:100    0
hydroph_interaction:LEU:100    0
Name: 78, dtype: object

>  <hbond:LEU:100>  (79) 
hbond:LEU:100    0
hbond:LEU:100    0
Name: 78, dtype: object

>  <hbond:ALA:101>  (79) 
hbond:ALA:101    0
hbond:ALA:101    0
Name: 78, dtype: object

>  <hydroph_interaction:ALA:101>  (79) 
hydroph_interaction:ALA:101    0
hydroph_interaction:ALA:101    0
Name: 78, dtype: object

>  <hydroph_interaction:VAL:102>  (79) 
hydroph_interaction:VAL:102    0
hydroph_interaction:VAL:102    0
Name: 78, dtype: object

>  <hbond:VAL:102>  (79) 
hbond:VAL:102    0
hbond:VAL:102    0
Name: 78, dtype: object

>  <hbond:GLY:103>  (79) 
hbond:GLY:103    0
hbond:GLY:103    0
Name: 78, dtype: object

>  <halogenbond:GLY:103>  (79) 
halogenbond:GLY:103    0
halogenbond:GLY:103    0
Name: 78, dtype: object

>  <hydroph_interaction:HIS:104>  (79) 
hydroph_interaction:HIS:104    0
hydroph_interaction:HIS:104    0
Name: 78, dtype: object

>  <hbond:HIS:104>  (79) 
hbond:HIS:104    0
hbond:HIS:104    0
Name: 78, dtype: object

>  <saltbridge:HIS:104>  (79) 
saltbridge:HIS:104    0
saltbridge:HIS:104    0
Name: 78, dtype: object

>  <pication:HIS:104>  (79) 
pication:HIS:104    0
pication:HIS:104    0
Name: 78, dtype: object

>  <pistack:HIS:104>  (79) 
pistack:HIS:104    0
pistack:HIS:104    0
Name: 78, dtype: object

>  <halogenbond:HIS:104>  (79) 
halogenbond:HIS:104    0
halogenbond:HIS:104    0
Name: 78, dtype: object

>  <hbond:SER:105>  (79) 
hbond:SER:105    0
hbond:SER:105    0
Name: 78, dtype: object

>  <halogenbond:SER:105>  (79) 
halogenbond:SER:105    0
halogenbond:SER:105    0
Name: 78, dtype: object

>  <hbond:GLU:106>  (79) 
hbond:GLU:106    0
hbond:GLU:106    0
Name: 78, dtype: object

>  <hydroph_interaction:GLU:106>  (79) 
hydroph_interaction:GLU:106    0
hydroph_interaction:GLU:106    0
Name: 78, dtype: object

>  <saltbridge:GLU:106>  (79) 
saltbridge:GLU:106    0
saltbridge:GLU:106    0
Name: 78, dtype: object

>  <halogenbond:GLU:106>  (79) 
halogenbond:GLU:106    0
halogenbond:GLU:106    0
Name: 78, dtype: object

>  <hydroph_interaction:PRO:107>  (79) 
hydroph_interaction:PRO:107    0
hydroph_interaction:PRO:107    0
Name: 78, dtype: object

>  <hbond:PRO:107>  (79) 
hbond:PRO:107    0
hbond:PRO:107    0
Name: 78, dtype: object

>  <halogenbond:PRO:107>  (79) 
halogenbond:PRO:107    0
halogenbond:PRO:107    0
Name: 78, dtype: object

>  <hbond:GLY:108>  (79) 
hbond:GLY:108    0
hbond:GLY:108    0
Name: 78, dtype: object

>  <halogenbond:GLY:108>  (79) 
halogenbond:GLY:108    0
halogenbond:GLY:108    0
Name: 78, dtype: object

>  <hbond:ASP:109>  (79) 
hbond:ASP:109    0
hbond:ASP:109    0
Name: 78, dtype: object

>  <hydroph_interaction:ASP:109>  (79) 
hydroph_interaction:ASP:109    0
hydroph_interaction:ASP:109    0
Name: 78, dtype: object

>  <saltbridge:ASP:109>  (79) 
saltbridge:ASP:109    0
saltbridge:ASP:109    0
Name: 78, dtype: object

>  <hbond:CYS:110>  (79) 
hbond:CYS:110    0
hbond:CYS:110    0
Name: 78, dtype: object

>  <halogenbond:CYS:110>  (79) 
halogenbond:CYS:110    0
halogenbond:CYS:110    0
Name: 78, dtype: object

>  <hbond:GLY:111>  (79) 
hbond:GLY:111    0
hbond:GLY:111    0
Name: 78, dtype: object

>  <hbond:GLY:112>  (79) 
hbond:GLY:112    0
hbond:GLY:112    0
Name: 78, dtype: object

>  <hbond:ILE:113>  (79) 
hbond:ILE:113    0
hbond:ILE:113    0
Name: 78, dtype: object

>  <hydroph_interaction:LEU:114>  (79) 
hydroph_interaction:LEU:114    0
hydroph_interaction:LEU:114    0
Name: 78, dtype: object

>  <hbond:LEU:114>  (79) 
hbond:LEU:114    0
hbond:LEU:114    0
Name: 78, dtype: object

>  <hydroph_interaction:ILE:123>  (79) 
hydroph_interaction:ILE:123    0
hydroph_interaction:ILE:123    0
Name: 78, dtype: object

>  <hbond:ILE:123>  (79) 
hbond:ILE:123    0
hbond:ILE:123    0
Name: 78, dtype: object

>  <hydroph_interaction:VAL:124>  (79) 
hydroph_interaction:VAL:124    0
hydroph_interaction:VAL:124    0
Name: 78, dtype: object

>  <hbond:VAL:124>  (79) 
hbond:VAL:124    0
hbond:VAL:124    0
Name: 78, dtype: object

>  <halogenbond:VAL:124>  (79) 
halogenbond:VAL:124    0
halogenbond:VAL:124    0
Name: 78, dtype: object

>  <hbond:SER:125>  (79) 
hbond:SER:125    0
hbond:SER:125    0
Name: 78, dtype: object

>  <halogenbond:SER:125>  (79) 
halogenbond:SER:125    0
halogenbond:SER:125    0
Name: 78, dtype: object

>  <hydroph_interaction:THR:126>  (79) 
hydroph_interaction:THR:126    1
hydroph_interaction:THR:126    1
Name: 78, dtype: object

>  <hbond:THR:126>  (79) 
hbond:THR:126    0
hbond:THR:126    0
Name: 78, dtype: object

>  <halogenbond:THR:126>  (79) 
halogenbond:THR:126    0
halogenbond:THR:126    0
Name: 78, dtype: object

>  <hbond:GLY:127>  (79) 
hbond:GLY:127    0
hbond:GLY:127    0
Name: 78, dtype: object

>  <halogenbond:GLY:127>  (79) 
halogenbond:GLY:127    0
halogenbond:GLY:127    0
Name: 78, dtype: object

>  <hydroph_interaction:GLY:127>  (79) 
hydroph_interaction:GLY:127    0
hydroph_interaction:GLY:127    0
Name: 78, dtype: object

>  <hbond:GLY:128>  (79) 
hbond:GLY:128    0
hbond:GLY:128    0
Name: 78, dtype: object

>  <halogenbond:GLY:128>  (79) 
halogenbond:GLY:128    0
halogenbond:GLY:128    0
Name: 78, dtype: object

>  <hydroph_interaction:GLY:128>  (79) 
hydroph_interaction:GLY:128    0
hydroph_interaction:GLY:128    0
Name: 78, dtype: object

>  <hbond:ASN:129>  (79) 
hbond:ASN:129    0
hbond:ASN:129    0
Name: 78, dtype: object

>  <hydroph_interaction:ASN:129>  (79) 
hydroph_interaction:ASN:129    0
hydroph_interaction:ASN:129    0
Name: 78, dtype: object

>  <halogenbond:ASN:129>  (79) 
halogenbond:ASN:129    0
halogenbond:ASN:129    0
Name: 78, dtype: object

>  <hbond:GLY:130>  (79) 
hbond:GLY:130    0
hbond:GLY:130    0
Name: 78, dtype: object

>  <hydroph_interaction:LEU:131>  (79) 
hydroph_interaction:LEU:131    0
hydroph_interaction:LEU:131    0
Name: 78, dtype: object

>  <hbond:LEU:131>  (79) 
hbond:LEU:131    0
hbond:LEU:131    0
Name: 78, dtype: object

>  <halogenbond:LEU:131>  (79) 
halogenbond:LEU:131    0
halogenbond:LEU:131    0
Name: 78, dtype: object

>  <hydroph_interaction:VAL:132>  (79) 
hydroph_interaction:VAL:132    0
hydroph_interaction:VAL:132    0
Name: 78, dtype: object

>  <hbond:VAL:132>  (79) 
hbond:VAL:132    0
hbond:VAL:132    0
Name: 78, dtype: object

>  <hbond:GLY:133>  (79) 
hbond:GLY:133    0
hbond:GLY:133    0
Name: 78, dtype: object

>  <halogenbond:GLY:133>  (79) 
halogenbond:GLY:133    0
halogenbond:GLY:133    0
Name: 78, dtype: object

>  <hydroph_interaction:PHE:134>  (79) 
hydroph_interaction:PHE:134    0
hydroph_interaction:PHE:134    0
Name: 78, dtype: object

>  <hbond:PHE:134>  (79) 
hbond:PHE:134    0
hbond:PHE:134    0
Name: 78, dtype: object

>  <pistack:PHE:134>  (79) 
pistack:PHE:134    0
pistack:PHE:134    0
Name: 78, dtype: object

>  <pication:PHE:134>  (79) 
pication:PHE:134    0
pication:PHE:134    0
Name: 78, dtype: object

>  <hydroph_interaction:ALA:135>  (79) 
hydroph_interaction:ALA:135    0
hydroph_interaction:ALA:135    0
Name: 78, dtype: object

>  <hbond:ALA:135>  (79) 
hbond:ALA:135    0
hbond:ALA:135    0
Name: 78, dtype: object

$$$$
Z1273675329
     RDKit          3D

 38 39  0  0  0  0  0  0  0  0999 V2000
   14.7450   19.2720   16.6090 C   0  0  0  0  0  0  0  0  0  0  0  0
   13.8050   18.2480   16.2540 N   0  0  0  0  0  0  0  0  0  0  0  0
   13.1690   17.5150   17.2300 C   0  0  0  0  0  0  0  0  0  0  0  0
   13.6930   17.2740   18.3120 O   0  0  0  0  0  0  0  0  0  0  0  0
   11.8940   17.0900   16.8690 N   0  0  0  0  0  0  0  0  0  0  0  0
   11.3060   16.0200   17.5890 N   0  0  0  0  0  0  0  0  0  0  0  0
   10.6470   16.2410   18.7860 C   0  0  0  0  0  0  0  0  0  0  0  0
    9.3250   16.7700   18.8790 O   0  0  0  0  0  0  0  0  0  0  0  0
   11.4990   15.8600   19.9910 C   0  0  0  0  0  0  0  0  0  0  0  0
   10.7360   15.1010   21.0120 C   0  0  0  0  0  0  0  0  0  0  0  0
   11.5180   14.7330   22.1370 C   0  0  0  0  0  0  0  0  0  0  0  0
   10.9130   14.0960   22.9910 O   0  0  0  0  0  0  0  0  0  0  0  0
   10.6090   12.8490   22.4410 C   0  0  0  0  0  0  0  0  0  0  0  0
    9.7680   12.0850   23.2330 C   0  0  0  0  0  0  0  0  0  0  0  0
    9.8740   10.6990   23.0980 C   0  0  0  0  0  0  0  0  0  0  0  0
    8.9880    9.8650   23.9190 C   0  0  0  0  0  0  0  0  0  0  0  0
    8.0280   10.5210   24.8440 C   0  0  0  0  0  0  0  0  0  0  0  0
    7.9790   11.8970   24.9220 C   0  0  0  0  0  0  0  0  0  0  0  0
    8.8400   12.6750   24.1260 C   0  0  0  0  0  0  0  0  0  0  0  0
   12.8560   15.0830   22.2010 C   0  0  0  0  0  0  0  0  0  0  0  0
   13.4140   15.7960   21.1530 C   0  0  0  0  0  0  0  0  0  0  0  0
   12.7870   16.2010   20.0480 N   0  0  0  0  0  0  0  0  0  0  0  0
   15.7500   18.9380   16.3390 H   0  0  0  0  0  0  0  0  0  0  0  0
   14.6820   19.4440   17.6880 H   0  0  0  0  0  0  0  0  0  0  0  0
   14.5100   20.1920   16.0710 H   0  0  0  0  0  0  0  0  0  0  0  0
   13.3960   18.2580   15.3090 H   0  0  0  0  0  0  0  0  0  0  0  0
   11.2390   17.7700   16.4840 H   0  0  0  0  0  0  0  0  0  0  0  0
   11.7620   15.1070   17.4830 H   0  0  0  0  0  0  0  0  0  0  0  0
    9.6910   14.9010   20.8150 H   0  0  0  0  0  0  0  0  0  0  0  0
   11.5550   12.3970   22.2030 H   0  0  0  0  0  0  0  0  0  0  0  0
   10.1820   13.1220   21.4960 H   0  0  0  0  0  0  0  0  0  0  0  0
   10.5860   10.2410   22.4120 H   0  0  0  0  0  0  0  0  0  0  0  0
    8.9430    8.7880   23.9370 H   0  0  0  0  0  0  0  0  0  0  0  0
    7.3190   10.0050   25.5040 H   0  0  0  0  0  0  0  0  0  0  0  0
    7.2770   12.3790   25.5980 H   0  0  0  0  0  0  0  0  0  0  0  0
    8.7870   13.7580   24.2000 H   0  0  0  0  0  0  0  0  0  0  0  0
   13.4850   14.8130   23.0480 H   0  0  0  0  0  0  0  0  0  0  0  0
   14.4500   16.0710   21.1930 H   0  0  0  0  0  0  0  0  0  0  0  0
  1  2  1  0
  2  3  1  0
  3  4  2  0
  3  5  1  0
  5  6  1  0
  6  7  1  0
  7  8  2  0
  7  9  1  0
  9 10  2  0
 10 11  1  0
 11 12  1  0
 12 13  1  0
 13 14  1  0
 14 15  2  0
 15 16  1  0
 16 17  2  0
 17 18  1  0
 18 19  2  0
 11 20  2  0
 20 21  1  0
 21 22  2  0
 22  9  1  0
 19 14  1  0
  1 23  1  0
  1 24  1  0
  1 25  1  0
  2 26  1  0
  5 27  1  0
  6 28  1  0
 10 29  1  0
 13 30  1  0
 13 31  1  0
 15 32  1  0
 16 33  1  0
 17 34  1  0
 18 35  1  0
 19 36  1  0
 20 37  1  0
 21 38  1  0
A    1
 C1 
A    2
 N1 
A    3
 C2 
A    4
 O1 
A    5
 N2 
A    6
 N3 
A    7
 C3 
A    8
 O2 
A    9
 C4 
A   10
 C5 
A   11
 C6 
A   12
 O3 
A   13
 C7 
A   14
 C8 
A   15
 C9 
A   16
 C10
A   17
 C11
A   18
 C12
A   19
 C13
A   20
 C14
A   21
 C15
A   22
 N4 
A   23
 H1 
A   24
 H2 
A   25
 H3 
A   26
 H4 
A   27
 H5 
A   28
 H6 
A   29
 H7 
A   30
 H8 
A   31
 H9 
A   32
 H10
A   33
 H11
A   34
 H12
A   35
 H13
A   36
 H14
A   37
 H15
A   38
 H16
M  END
>  <ref_pdb>  (80) 
x0310_0A

>  <ref_mols>  (80) 
x0554_0A,x0732_0A

>  <original SMILES>  (80) 
CNC(=O)NNC(=O)c1cc(OCc2ccccc2)ccn1

>  <rationale>  (80) 
info hbond:S87+Q95+S36; hydroph_interaction:P107; 

>  <intxn_cluster>  (80) 
204

>  <intxn_cluster_rank>  (80) 
25

>  <N_interactions>  (80) 
5

>  <∆∆G>  (80) 
-8.39108

>  <$/mg>  (80) 
nan

>  <comRMSD>  (80) 
0.814557

>  <N_rotatable_bonds>  (80) 
5

>  <N_analogues_07>  (80) 
0

>  <deep_P1_sidechain>  (80) 
False

>  <farthest_distance_to_substrate>  (80) 
3.541396

>  <hbond:SER:7>  (80) 
hbond:SER:7    0
hbond:SER:7    0
Name: 79, dtype: object

>  <halogenbond:SER:7>  (80) 
halogenbond:SER:7    0
halogenbond:SER:7    0
Name: 79, dtype: object

>  <hbond:GLY:8>  (80) 
hbond:GLY:8    0
hbond:GLY:8    0
Name: 79, dtype: object

>  <hydroph_interaction:ASN:19>  (80) 
hydroph_interaction:ASN:19    0
hydroph_interaction:ASN:19    0
Name: 79, dtype: object

>  <hbond:ASN:19>  (80) 
hbond:ASN:19    0
hbond:ASN:19    0
Name: 79, dtype: object

>  <halogenbond:ASN:19>  (80) 
halogenbond:ASN:19    0
halogenbond:ASN:19    0
Name: 79, dtype: object

>  <hbond:ARG:20>  (80) 
hbond:ARG:20    0
hbond:ARG:20    0
Name: 79, dtype: object

>  <hydroph_interaction:ARG:20>  (80) 
hydroph_interaction:ARG:20    0
hydroph_interaction:ARG:20    0
Name: 79, dtype: object

>  <saltbridge:ARG:20>  (80) 
saltbridge:ARG:20    0
saltbridge:ARG:20    0
Name: 79, dtype: object

>  <halogenbond:ARG:20>  (80) 
halogenbond:ARG:20    0
halogenbond:ARG:20    0
Name: 79, dtype: object

>  <pication:ARG:20>  (80) 
pication:ARG:20    0
pication:ARG:20    0
Name: 79, dtype: object

>  <hbond:HIS:21>  (80) 
hbond:HIS:21    0
hbond:HIS:21    0
Name: 79, dtype: object

>  <hydroph_interaction:HIS:21>  (80) 
hydroph_interaction:HIS:21    0
hydroph_interaction:HIS:21    0
Name: 79, dtype: object

>  <saltbridge:HIS:21>  (80) 
saltbridge:HIS:21    0
saltbridge:HIS:21    0
Name: 79, dtype: object

>  <pistack:HIS:21>  (80) 
pistack:HIS:21    0
pistack:HIS:21    0
Name: 79, dtype: object

>  <pication:HIS:21>  (80) 
pication:HIS:21    0
pication:HIS:21    0
Name: 79, dtype: object

>  <halogenbond:HIS:21>  (80) 
halogenbond:HIS:21    0
halogenbond:HIS:21    0
Name: 79, dtype: object

>  <hydroph_interaction:LEU:22>  (80) 
hydroph_interaction:LEU:22    0
hydroph_interaction:LEU:22    0
Name: 79, dtype: object

>  <hbond:LEU:22>  (80) 
hbond:LEU:22    0
hbond:LEU:22    0
Name: 79, dtype: object

>  <hydroph_interaction:TRP:28>  (80) 
hydroph_interaction:TRP:28    0
hydroph_interaction:TRP:28    0
Name: 79, dtype: object

>  <hbond:SER:36>  (80) 
hbond:SER:36    2
hbond:SER:36    2
Name: 79, dtype: object

>  <halogenbond:SER:36>  (80) 
halogenbond:SER:36    0
halogenbond:SER:36    0
Name: 79, dtype: object

>  <hbond:ARG:38>  (80) 
hbond:ARG:38    0
hbond:ARG:38    0
Name: 79, dtype: object

>  <halogenbond:ARG:38>  (80) 
halogenbond:ARG:38    0
halogenbond:ARG:38    0
Name: 79, dtype: object

>  <hbond:ASP:39>  (80) 
hbond:ASP:39    0
hbond:ASP:39    0
Name: 79, dtype: object

>  <saltbridge:ASP:39>  (80) 
saltbridge:ASP:39    0
saltbridge:ASP:39    0
Name: 79, dtype: object

>  <hydroph_interaction:ASP:39>  (80) 
hydroph_interaction:ASP:39    0
hydroph_interaction:ASP:39    0
Name: 79, dtype: object

>  <halogenbond:ASP:39>  (80) 
halogenbond:ASP:39    0
halogenbond:ASP:39    0
Name: 79, dtype: object

>  <hydroph_interaction:LEU:40>  (80) 
hydroph_interaction:LEU:40    0
hydroph_interaction:LEU:40    0
Name: 79, dtype: object

>  <hydroph_interaction:TYR:63>  (80) 
hydroph_interaction:TYR:63    0
hydroph_interaction:TYR:63    0
Name: 79, dtype: object

>  <pistack:TYR:63>  (80) 
pistack:TYR:63    0
pistack:TYR:63    0
Name: 79, dtype: object

>  <hbond:TYR:63>  (80) 
hbond:TYR:63    0
hbond:TYR:63    0
Name: 79, dtype: object

>  <hbond:TYR:64>  (80) 
hbond:TYR:64    0
hbond:TYR:64    0
Name: 79, dtype: object

>  <halogenbond:TYR:64>  (80) 
halogenbond:TYR:64    0
halogenbond:TYR:64    0
Name: 79, dtype: object

>  <hydroph_interaction:TYR:64>  (80) 
hydroph_interaction:TYR:64    0
hydroph_interaction:TYR:64    0
Name: 79, dtype: object

>  <hbond:CYS:65>  (80) 
hbond:CYS:65    0
hbond:CYS:65    0
Name: 79, dtype: object

>  <halogenbond:CYS:65>  (80) 
halogenbond:CYS:65    0
halogenbond:CYS:65    0
Name: 79, dtype: object

>  <hbond:SER:66>  (80) 
hbond:SER:66    0
hbond:SER:66    0
Name: 79, dtype: object

>  <hbond:SER:67>  (80) 
hbond:SER:67    0
hbond:SER:67    0
Name: 79, dtype: object

>  <halogenbond:SER:67>  (80) 
halogenbond:SER:67    0
halogenbond:SER:67    0
Name: 79, dtype: object

>  <hydroph_interaction:ARG:68>  (80) 
hydroph_interaction:ARG:68    0
hydroph_interaction:ARG:68    0
Name: 79, dtype: object

>  <hbond:ARG:68>  (80) 
hbond:ARG:68    0
hbond:ARG:68    0
Name: 79, dtype: object

>  <saltbridge:ARG:68>  (80) 
saltbridge:ARG:68    0
saltbridge:ARG:68    0
Name: 79, dtype: object

>  <pication:ARG:68>  (80) 
pication:ARG:68    0
pication:ARG:68    0
Name: 79, dtype: object

>  <hydroph_interaction:TYR:72>  (80) 
hydroph_interaction:TYR:72    0
hydroph_interaction:TYR:72    0
Name: 79, dtype: object

>  <hydroph_interaction:VAL:74>  (80) 
hydroph_interaction:VAL:74    0
hydroph_interaction:VAL:74    0
Name: 79, dtype: object

>  <hydroph_interaction:PHE:76>  (80) 
hydroph_interaction:PHE:76    0
hydroph_interaction:PHE:76    0
Name: 79, dtype: object

>  <hbond:SER:77>  (80) 
hbond:SER:77    0
hbond:SER:77    0
Name: 79, dtype: object

>  <hbond:SER:80>  (80) 
hbond:SER:80    0
hbond:SER:80    0
Name: 79, dtype: object

>  <hbond:LEU:81>  (80) 
hbond:LEU:81    0
hbond:LEU:81    0
Name: 79, dtype: object

>  <halogenbond:LEU:81>  (80) 
halogenbond:LEU:81    0
halogenbond:LEU:81    0
Name: 79, dtype: object

>  <hydroph_interaction:LEU:81>  (80) 
hydroph_interaction:LEU:81    0
hydroph_interaction:LEU:81    0
Name: 79, dtype: object

>  <hydroph_interaction:ILE:82>  (80) 
hydroph_interaction:ILE:82    0
hydroph_interaction:ILE:82    0
Name: 79, dtype: object

>  <hbond:ILE:82>  (80) 
hbond:ILE:82    0
hbond:ILE:82    0
Name: 79, dtype: object

>  <hydroph_interaction:PHE:83>  (80) 
hydroph_interaction:PHE:83    0
hydroph_interaction:PHE:83    0
Name: 79, dtype: object

>  <hbond:PHE:83>  (80) 
hbond:PHE:83    0
hbond:PHE:83    0
Name: 79, dtype: object

>  <halogenbond:PHE:83>  (80) 
halogenbond:PHE:83    0
halogenbond:PHE:83    0
Name: 79, dtype: object

>  <pistack:PHE:83>  (80) 
pistack:PHE:83    0
pistack:PHE:83    0
Name: 79, dtype: object

>  <hydroph_interaction:VAL:84>  (80) 
hydroph_interaction:VAL:84    0
hydroph_interaction:VAL:84    0
Name: 79, dtype: object

>  <hbond:VAL:84>  (80) 
hbond:VAL:84    0
hbond:VAL:84    0
Name: 79, dtype: object

>  <halogenbond:VAL:84>  (80) 
halogenbond:VAL:84    0
halogenbond:VAL:84    0
Name: 79, dtype: object

>  <hydroph_interaction:GLU:85>  (80) 
hydroph_interaction:GLU:85    0
hydroph_interaction:GLU:85    0
Name: 79, dtype: object

>  <hbond:GLU:85>  (80) 
hbond:GLU:85    0
hbond:GLU:85    0
Name: 79, dtype: object

>  <saltbridge:GLU:85>  (80) 
saltbridge:GLU:85    0
saltbridge:GLU:85    0
Name: 79, dtype: object

>  <halogenbond:GLU:85>  (80) 
halogenbond:GLU:85    0
halogenbond:GLU:85    0
Name: 79, dtype: object

>  <hbond:ALA:86>  (80) 
hbond:ALA:86    0
hbond:ALA:86    0
Name: 79, dtype: object

>  <halogenbond:ALA:86>  (80) 
halogenbond:ALA:86    0
halogenbond:ALA:86    0
Name: 79, dtype: object

>  <hydroph_interaction:ALA:86>  (80) 
hydroph_interaction:ALA:86    0
hydroph_interaction:ALA:86    0
Name: 79, dtype: object

>  <hbond:SER:87>  (80) 
hbond:SER:87    1
hbond:SER:87    1
Name: 79, dtype: object

>  <halogenbond:SER:87>  (80) 
halogenbond:SER:87    0
halogenbond:SER:87    0
Name: 79, dtype: object

>  <hbond:GLU:88>  (80) 
hbond:GLU:88    0
hbond:GLU:88    0
Name: 79, dtype: object

>  <hydroph_interaction:GLU:88>  (80) 
hydroph_interaction:GLU:88    0
hydroph_interaction:GLU:88    0
Name: 79, dtype: object

>  <halogenbond:GLU:88>  (80) 
halogenbond:GLU:88    0
halogenbond:GLU:88    0
Name: 79, dtype: object

>  <saltbridge:GLU:88>  (80) 
saltbridge:GLU:88    0
saltbridge:GLU:88    0
Name: 79, dtype: object

>  <hydroph_interaction:TYR:89>  (80) 
hydroph_interaction:TYR:89    0
hydroph_interaction:TYR:89    0
Name: 79, dtype: object

>  <pistack:TYR:89>  (80) 
pistack:TYR:89    0
pistack:TYR:89    0
Name: 79, dtype: object

>  <hbond:TYR:89>  (80) 
hbond:TYR:89    0
hbond:TYR:89    0
Name: 79, dtype: object

>  <halogenbond:TYR:89>  (80) 
halogenbond:TYR:89    0
halogenbond:TYR:89    0
Name: 79, dtype: object

>  <hbond:TYR:90>  (80) 
hbond:TYR:90    0
hbond:TYR:90    0
Name: 79, dtype: object

>  <hydroph_interaction:TYR:90>  (80) 
hydroph_interaction:TYR:90    0
hydroph_interaction:TYR:90    0
Name: 79, dtype: object

>  <pistack:TYR:90>  (80) 
pistack:TYR:90    0
pistack:TYR:90    0
Name: 79, dtype: object

>  <halogenbond:TYR:90>  (80) 
halogenbond:TYR:90    0
halogenbond:TYR:90    0
Name: 79, dtype: object

>  <pication:TYR:90>  (80) 
pication:TYR:90    0
pication:TYR:90    0
Name: 79, dtype: object

>  <hydroph_interaction:PRO:91>  (80) 
hydroph_interaction:PRO:91    0
hydroph_interaction:PRO:91    0
Name: 79, dtype: object

>  <halogenbond:PRO:91>  (80) 
halogenbond:PRO:91    0
halogenbond:PRO:91    0
Name: 79, dtype: object

>  <hbond:PRO:91>  (80) 
hbond:PRO:91    0
hbond:PRO:91    0
Name: 79, dtype: object

>  <hydroph_interaction:ALA:92>  (80) 
hydroph_interaction:ALA:92    0
hydroph_interaction:ALA:92    0
Name: 79, dtype: object

>  <hbond:ARG:93>  (80) 
hbond:ARG:93    0
hbond:ARG:93    0
Name: 79, dtype: object

>  <pication:ARG:93>  (80) 
pication:ARG:93    0
pication:ARG:93    0
Name: 79, dtype: object

>  <saltbridge:ARG:93>  (80) 
saltbridge:ARG:93    0
saltbridge:ARG:93    0
Name: 79, dtype: object

>  <hydroph_interaction:ARG:93>  (80) 
hydroph_interaction:ARG:93    0
hydroph_interaction:ARG:93    0
Name: 79, dtype: object

>  <halogenbond:ARG:93>  (80) 
halogenbond:ARG:93    0
halogenbond:ARG:93    0
Name: 79, dtype: object

>  <hydroph_interaction:TYR:94>  (80) 
hydroph_interaction:TYR:94    0
hydroph_interaction:TYR:94    0
Name: 79, dtype: object

>  <hbond:TYR:94>  (80) 
hbond:TYR:94    0
hbond:TYR:94    0
Name: 79, dtype: object

>  <halogenbond:GLN:95>  (80) 
halogenbond:GLN:95    0
halogenbond:GLN:95    0
Name: 79, dtype: object

>  <hbond:GLN:95>  (80) 
hbond:GLN:95    1
hbond:GLN:95    1
Name: 79, dtype: object

>  <hydroph_interaction:GLN:95>  (80) 
hydroph_interaction:GLN:95    0
hydroph_interaction:GLN:95    0
Name: 79, dtype: object

>  <hbond:SER:96>  (80) 
hbond:SER:96    0
hbond:SER:96    0
Name: 79, dtype: object

>  <hydroph_interaction:LEU:98>  (80) 
hydroph_interaction:LEU:98    0
hydroph_interaction:LEU:98    0
Name: 79, dtype: object

>  <hbond:LEU:98>  (80) 
hbond:LEU:98    0
hbond:LEU:98    0
Name: 79, dtype: object

>  <hbond:MET:99>  (80) 
hbond:MET:99    0
hbond:MET:99    0
Name: 79, dtype: object

>  <hydroph_interaction:MET:99>  (80) 
hydroph_interaction:MET:99    0
hydroph_interaction:MET:99    0
Name: 79, dtype: object

>  <halogenbond:MET:99>  (80) 
halogenbond:MET:99    0
halogenbond:MET:99    0
Name: 79, dtype: object

>  <hydroph_interaction:LEU:100>  (80) 
hydroph_interaction:LEU:100    0
hydroph_interaction:LEU:100    0
Name: 79, dtype: object

>  <hbond:LEU:100>  (80) 
hbond:LEU:100    0
hbond:LEU:100    0
Name: 79, dtype: object

>  <hbond:ALA:101>  (80) 
hbond:ALA:101    0
hbond:ALA:101    0
Name: 79, dtype: object

>  <hydroph_interaction:ALA:101>  (80) 
hydroph_interaction:ALA:101    0
hydroph_interaction:ALA:101    0
Name: 79, dtype: object

>  <hydroph_interaction:VAL:102>  (80) 
hydroph_interaction:VAL:102    0
hydroph_interaction:VAL:102    0
Name: 79, dtype: object

>  <hbond:VAL:102>  (80) 
hbond:VAL:102    0
hbond:VAL:102    0
Name: 79, dtype: object

>  <hbond:GLY:103>  (80) 
hbond:GLY:103    0
hbond:GLY:103    0
Name: 79, dtype: object

>  <halogenbond:GLY:103>  (80) 
halogenbond:GLY:103    0
halogenbond:GLY:103    0
Name: 79, dtype: object

>  <hydroph_interaction:HIS:104>  (80) 
hydroph_interaction:HIS:104    0
hydroph_interaction:HIS:104    0
Name: 79, dtype: object

>  <hbond:HIS:104>  (80) 
hbond:HIS:104    0
hbond:HIS:104    0
Name: 79, dtype: object

>  <saltbridge:HIS:104>  (80) 
saltbridge:HIS:104    0
saltbridge:HIS:104    0
Name: 79, dtype: object

>  <pication:HIS:104>  (80) 
pication:HIS:104    0
pication:HIS:104    0
Name: 79, dtype: object

>  <pistack:HIS:104>  (80) 
pistack:HIS:104    0
pistack:HIS:104    0
Name: 79, dtype: object

>  <halogenbond:HIS:104>  (80) 
halogenbond:HIS:104    0
halogenbond:HIS:104    0
Name: 79, dtype: object

>  <hbond:SER:105>  (80) 
hbond:SER:105    0
hbond:SER:105    0
Name: 79, dtype: object

>  <halogenbond:SER:105>  (80) 
halogenbond:SER:105    0
halogenbond:SER:105    0
Name: 79, dtype: object

>  <hbond:GLU:106>  (80) 
hbond:GLU:106    0
hbond:GLU:106    0
Name: 79, dtype: object

>  <hydroph_interaction:GLU:106>  (80) 
hydroph_interaction:GLU:106    0
hydroph_interaction:GLU:106    0
Name: 79, dtype: object

>  <saltbridge:GLU:106>  (80) 
saltbridge:GLU:106    0
saltbridge:GLU:106    0
Name: 79, dtype: object

>  <halogenbond:GLU:106>  (80) 
halogenbond:GLU:106    0
halogenbond:GLU:106    0
Name: 79, dtype: object

>  <hydroph_interaction:PRO:107>  (80) 
hydroph_interaction:PRO:107    1
hydroph_interaction:PRO:107    1
Name: 79, dtype: object

>  <hbond:PRO:107>  (80) 
hbond:PRO:107    0
hbond:PRO:107    0
Name: 79, dtype: object

>  <halogenbond:PRO:107>  (80) 
halogenbond:PRO:107    0
halogenbond:PRO:107    0
Name: 79, dtype: object

>  <hbond:GLY:108>  (80) 
hbond:GLY:108    0
hbond:GLY:108    0
Name: 79, dtype: object

>  <halogenbond:GLY:108>  (80) 
halogenbond:GLY:108    0
halogenbond:GLY:108    0
Name: 79, dtype: object

>  <hbond:ASP:109>  (80) 
hbond:ASP:109    0
hbond:ASP:109    0
Name: 79, dtype: object

>  <hydroph_interaction:ASP:109>  (80) 
hydroph_interaction:ASP:109    0
hydroph_interaction:ASP:109    0
Name: 79, dtype: object

>  <saltbridge:ASP:109>  (80) 
saltbridge:ASP:109    0
saltbridge:ASP:109    0
Name: 79, dtype: object

>  <hbond:CYS:110>  (80) 
hbond:CYS:110    0
hbond:CYS:110    0
Name: 79, dtype: object

>  <halogenbond:CYS:110>  (80) 
halogenbond:CYS:110    0
halogenbond:CYS:110    0
Name: 79, dtype: object

>  <hbond:GLY:111>  (80) 
hbond:GLY:111    0
hbond:GLY:111    0
Name: 79, dtype: object

>  <hbond:GLY:112>  (80) 
hbond:GLY:112    0
hbond:GLY:112    0
Name: 79, dtype: object

>  <hbond:ILE:113>  (80) 
hbond:ILE:113    0
hbond:ILE:113    0
Name: 79, dtype: object

>  <hydroph_interaction:LEU:114>  (80) 
hydroph_interaction:LEU:114    0
hydroph_interaction:LEU:114    0
Name: 79, dtype: object

>  <hbond:LEU:114>  (80) 
hbond:LEU:114    0
hbond:LEU:114    0
Name: 79, dtype: object

>  <hydroph_interaction:ILE:123>  (80) 
hydroph_interaction:ILE:123    0
hydroph_interaction:ILE:123    0
Name: 79, dtype: object

>  <hbond:ILE:123>  (80) 
hbond:ILE:123    0
hbond:ILE:123    0
Name: 79, dtype: object

>  <hydroph_interaction:VAL:124>  (80) 
hydroph_interaction:VAL:124    0
hydroph_interaction:VAL:124    0
Name: 79, dtype: object

>  <hbond:VAL:124>  (80) 
hbond:VAL:124    0
hbond:VAL:124    0
Name: 79, dtype: object

>  <halogenbond:VAL:124>  (80) 
halogenbond:VAL:124    0
halogenbond:VAL:124    0
Name: 79, dtype: object

>  <hbond:SER:125>  (80) 
hbond:SER:125    0
hbond:SER:125    0
Name: 79, dtype: object

>  <halogenbond:SER:125>  (80) 
halogenbond:SER:125    0
halogenbond:SER:125    0
Name: 79, dtype: object

>  <hydroph_interaction:THR:126>  (80) 
hydroph_interaction:THR:126    0
hydroph_interaction:THR:126    0
Name: 79, dtype: object

>  <hbond:THR:126>  (80) 
hbond:THR:126    0
hbond:THR:126    0
Name: 79, dtype: object

>  <halogenbond:THR:126>  (80) 
halogenbond:THR:126    0
halogenbond:THR:126    0
Name: 79, dtype: object

>  <hbond:GLY:127>  (80) 
hbond:GLY:127    0
hbond:GLY:127    0
Name: 79, dtype: object

>  <halogenbond:GLY:127>  (80) 
halogenbond:GLY:127    0
halogenbond:GLY:127    0
Name: 79, dtype: object

>  <hydroph_interaction:GLY:127>  (80) 
hydroph_interaction:GLY:127    0
hydroph_interaction:GLY:127    0
Name: 79, dtype: object

>  <hbond:GLY:128>  (80) 
hbond:GLY:128    0
hbond:GLY:128    0
Name: 79, dtype: object

>  <halogenbond:GLY:128>  (80) 
halogenbond:GLY:128    0
halogenbond:GLY:128    0
Name: 79, dtype: object

>  <hydroph_interaction:GLY:128>  (80) 
hydroph_interaction:GLY:128    0
hydroph_interaction:GLY:128    0
Name: 79, dtype: object

>  <hbond:ASN:129>  (80) 
hbond:ASN:129    0
hbond:ASN:129    0
Name: 79, dtype: object

>  <hydroph_interaction:ASN:129>  (80) 
hydroph_interaction:ASN:129    0
hydroph_interaction:ASN:129    0
Name: 79, dtype: object

>  <halogenbond:ASN:129>  (80) 
halogenbond:ASN:129    0
halogenbond:ASN:129    0
Name: 79, dtype: object

>  <hbond:GLY:130>  (80) 
hbond:GLY:130    0
hbond:GLY:130    0
Name: 79, dtype: object

>  <hydroph_interaction:LEU:131>  (80) 
hydroph_interaction:LEU:131    0
hydroph_interaction:LEU:131    0
Name: 79, dtype: object

>  <hbond:LEU:131>  (80) 
hbond:LEU:131    0
hbond:LEU:131    0
Name: 79, dtype: object

>  <halogenbond:LEU:131>  (80) 
halogenbond:LEU:131    0
halogenbond:LEU:131    0
Name: 79, dtype: object

>  <hydroph_interaction:VAL:132>  (80) 
hydroph_interaction:VAL:132    0
hydroph_interaction:VAL:132    0
Name: 79, dtype: object

>  <hbond:VAL:132>  (80) 
hbond:VAL:132    0
hbond:VAL:132    0
Name: 79, dtype: object

>  <hbond:GLY:133>  (80) 
hbond:GLY:133    0
hbond:GLY:133    0
Name: 79, dtype: object

>  <halogenbond:GLY:133>  (80) 
halogenbond:GLY:133    0
halogenbond:GLY:133    0
Name: 79, dtype: object

>  <hydroph_interaction:PHE:134>  (80) 
hydroph_interaction:PHE:134    0
hydroph_interaction:PHE:134    0
Name: 79, dtype: object

>  <hbond:PHE:134>  (80) 
hbond:PHE:134    0
hbond:PHE:134    0
Name: 79, dtype: object

>  <pistack:PHE:134>  (80) 
pistack:PHE:134    0
pistack:PHE:134    0
Name: 79, dtype: object

>  <pication:PHE:134>  (80) 
pication:PHE:134    0
pication:PHE:134    0
Name: 79, dtype: object

>  <hydroph_interaction:ALA:135>  (80) 
hydroph_interaction:ALA:135    0
hydroph_interaction:ALA:135    0
Name: 79, dtype: object

>  <hbond:ALA:135>  (80) 
hbond:ALA:135    0
hbond:ALA:135    0
Name: 79, dtype: object

$$$$
PV_003097342677
     RDKit          3D

 40 41  0  0  0  0  0  0  0  0999 V2000
   12.9690   13.7160   23.8480 C   0  0  0  0  0  0  0  0  0  0  0  0
   12.3720   13.8930   22.4960 C   0  0  2  0  0  0  0  0  0  0  0  0
   13.1460   14.7490   21.5470 C   0  0  0  0  0  0  0  0  0  0  0  0
   12.3900   15.5820   20.8050 N   0  0  0  0  0  0  0  0  0  0  0  0
   12.8500   16.6920   20.1620 C   0  0  0  0  0  0  0  0  0  0  0  0
   12.7070   17.7700   20.6670 O   0  0  0  0  0  0  0  0  0  0  0  0
   13.4640   16.5000   18.7840 C   0  0  0  0  0  0  0  0  0  0  0  0
   14.2660   17.6080   18.1670 N   0  0  0  0  0  0  0  0  0  0  0  0
   13.6340   18.3490   17.1680 C   0  0  0  0  0  0  0  0  0  0  0  0
   14.3730   19.4560   16.4660 C   0  0  0  0  0  0  0  0  0  0  0  0
   15.7690   19.6110   16.9760 C   0  0  0  0  0  0  0  0  0  0  0  0
   16.4010   18.4490   17.7000 C   0  0  0  0  0  0  0  0  0  0  0  0
   15.5750   17.3380   17.8170 C   0  0  0  0  0  0  0  0  0  0  0  0
   16.0120   16.2140   17.6090 O   0  0  0  0  0  0  0  0  0  0  0  0
   11.0260   15.2540   21.0660 C   0  0  0  0  0  0  0  0  0  0  0  0
   11.1110   14.7290   22.5150 C   0  0  1  0  0  0  0  0  0  0  0  0
    9.8330   14.1560   22.9530 N   0  0  0  0  0  0  0  0  0  0  0  0
    9.6280   12.8700   23.4230 C   0  0  0  0  0  0  0  0  0  0  0  0
   10.3370   11.9090   23.1450 O   0  0  0  0  0  0  0  0  0  0  0  0
    8.4640   12.7450   24.2950 C   0  0  0  0  0  0  0  0  0  0  0  0
    8.2670   11.4180   24.6450 C   0  0  0  0  0  0  0  0  0  0  0  0
    8.0910   10.3050   24.8830 N   0  0  0  0  0  0  0  0  0  0  0  0
   13.1490   12.6590   24.0610 H   0  0  0  0  0  0  0  0  0  0  0  0
   13.9290   14.2400   23.9020 H   0  0  0  0  0  0  0  0  0  0  0  0
   12.3040   14.1520   24.6020 H   0  0  0  0  0  0  0  0  0  0  0  0
   12.1430   12.9230   22.0590 H   0  0  0  0  0  0  0  0  0  0  0  0
   13.5850   14.0710   20.8210 H   0  0  0  0  0  0  0  0  0  0  0  0
   13.9300   15.3380   22.0350 H   0  0  0  0  0  0  0  0  0  0  0  0
   14.0030   15.5740   18.6060 H   0  0  0  0  0  0  0  0  0  0  0  0
   12.5780   16.4310   18.1630 H   0  0  0  0  0  0  0  0  0  0  0  0
   12.6100   18.0930   16.9170 H   0  0  0  0  0  0  0  0  0  0  0  0
   13.9420   20.0630   15.6730 H   0  0  0  0  0  0  0  0  0  0  0  0
   16.3160   20.5420   16.8280 H   0  0  0  0  0  0  0  0  0  0  0  0
   17.3980   18.4270   18.1160 H   0  0  0  0  0  0  0  0  0  0  0  0
   10.3740   16.1050   20.9270 H   0  0  0  0  0  0  0  0  0  0  0  0
   10.6870   14.4320   20.4180 H   0  0  0  0  0  0  0  0  0  0  0  0
   11.3510   15.5300   23.1920 H   0  0  0  0  0  0  0  0  0  0  0  0
    9.0350   14.7910   22.8650 H   0  0  0  0  0  0  0  0  0  0  0  0
    8.5460   13.3900   25.1650 H   0  0  0  0  0  0  0  0  0  0  0  0
    7.5750   13.1760   23.8440 H   0  0  0  0  0  0  0  0  0  0  0  0
  1  2  1  0
  2  3  1  0
  3  4  1  0
  4  5  1  0
  5  6  2  0
  5  7  1  0
  7  8  1  0
  8  9  1  0
  9 10  2  0
 10 11  1  0
 11 12  2  0
 12 13  1  0
 13 14  2  0
  4 15  1  0
 15 16  1  0
 16 17  1  0
 17 18  1  0
 18 19  2  0
 18 20  1  0
 20 21  1  0
 21 22  3  0
 16  2  1  0
 13  8  1  0
  1 23  1  0
  1 24  1  0
  1 25  1  0
  2 26  1  6
  3 27  1  0
  3 28  1  0
  7 29  1  0
  7 30  1  0
  9 31  1  0
 10 32  1  0
 11 33  1  0
 12 34  1  0
 15 35  1  0
 15 36  1  0
 16 37  1  1
 17 38  1  0
 20 39  1  0
 20 40  1  0
A    1
 C1 
A    2
 C2 
A    3
 C3 
A    4
 N1 
A    5
 C4 
A    6
 O1 
A    7
 C5 
A    8
 N2 
A    9
 C6 
A   10
 C7 
A   11
 C8 
A   12
 C9 
A   13
 C10
A   14
 O2 
A   15
 C11
A   16
 C12
A   17
 N3 
A   18
 C13
A   19
 O3 
A   20
 C14
A   21
 C15
A   22
 N4 
A   23
 H1 
A   24
 H2 
A   25
 H3 
A   26
 H4 
A   27
 H5 
A   28
 H6 
A   29
 H7 
A   30
 H8 
A   31
 H9 
A   32
 H10
A   33
 H11
A   34
 H12
A   35
 H13
A   36
 H14
A   37
 H15
A   38
 H16
A   39
 H17
A   40
 H18
M  END
>  <ref_pdb>  (81) 
x0310_0A

>  <ref_mols>  (81) 
x0310_0A,x0528_0A

>  <original SMILES>  (81) 
C[C@@H]1CN(C(=O)Cn2ccccc2=O)C[C@H]1NC(=O)CC#N

>  <rationale>  (81) 
info hbond:S87+H21; hydroph_interaction:P107+Y90+H21+R20; 

>  <intxn_cluster>  (81) 
207

>  <intxn_cluster_rank>  (81) 
26

>  <N_interactions>  (81) 
7

>  <∆∆G>  (81) 
-5.123317

>  <$/mg>  (81) 
nan

>  <comRMSD>  (81) 
0.905771

>  <N_rotatable_bonds>  (81) 
5

>  <N_analogues_07>  (81) 
0

>  <deep_P1_sidechain>  (81) 
False

>  <farthest_distance_to_substrate>  (81) 
4.312839

>  <hbond:SER:7>  (81) 
hbond:SER:7    0
hbond:SER:7    0
Name: 80, dtype: object

>  <halogenbond:SER:7>  (81) 
halogenbond:SER:7    0
halogenbond:SER:7    0
Name: 80, dtype: object

>  <hbond:GLY:8>  (81) 
hbond:GLY:8    0
hbond:GLY:8    0
Name: 80, dtype: object

>  <hydroph_interaction:ASN:19>  (81) 
hydroph_interaction:ASN:19    0
hydroph_interaction:ASN:19    0
Name: 80, dtype: object

>  <hbond:ASN:19>  (81) 
hbond:ASN:19    0
hbond:ASN:19    0
Name: 80, dtype: object

>  <halogenbond:ASN:19>  (81) 
halogenbond:ASN:19    0
halogenbond:ASN:19    0
Name: 80, dtype: object

>  <hbond:ARG:20>  (81) 
hbond:ARG:20    0
hbond:ARG:20    0
Name: 80, dtype: object

>  <hydroph_interaction:ARG:20>  (81) 
hydroph_interaction:ARG:20    1
hydroph_interaction:ARG:20    1
Name: 80, dtype: object

>  <saltbridge:ARG:20>  (81) 
saltbridge:ARG:20    0
saltbridge:ARG:20    0
Name: 80, dtype: object

>  <halogenbond:ARG:20>  (81) 
halogenbond:ARG:20    0
halogenbond:ARG:20    0
Name: 80, dtype: object

>  <pication:ARG:20>  (81) 
pication:ARG:20    0
pication:ARG:20    0
Name: 80, dtype: object

>  <hbond:HIS:21>  (81) 
hbond:HIS:21    1
hbond:HIS:21    1
Name: 80, dtype: object

>  <hydroph_interaction:HIS:21>  (81) 
hydroph_interaction:HIS:21    1
hydroph_interaction:HIS:21    1
Name: 80, dtype: object

>  <saltbridge:HIS:21>  (81) 
saltbridge:HIS:21    0
saltbridge:HIS:21    0
Name: 80, dtype: object

>  <pistack:HIS:21>  (81) 
pistack:HIS:21    0
pistack:HIS:21    0
Name: 80, dtype: object

>  <pication:HIS:21>  (81) 
pication:HIS:21    0
pication:HIS:21    0
Name: 80, dtype: object

>  <halogenbond:HIS:21>  (81) 
halogenbond:HIS:21    0
halogenbond:HIS:21    0
Name: 80, dtype: object

>  <hydroph_interaction:LEU:22>  (81) 
hydroph_interaction:LEU:22    0
hydroph_interaction:LEU:22    0
Name: 80, dtype: object

>  <hbond:LEU:22>  (81) 
hbond:LEU:22    0
hbond:LEU:22    0
Name: 80, dtype: object

>  <hydroph_interaction:TRP:28>  (81) 
hydroph_interaction:TRP:28    0
hydroph_interaction:TRP:28    0
Name: 80, dtype: object

>  <hbond:SER:36>  (81) 
hbond:SER:36    0
hbond:SER:36    0
Name: 80, dtype: object

>  <halogenbond:SER:36>  (81) 
halogenbond:SER:36    0
halogenbond:SER:36    0
Name: 80, dtype: object

>  <hbond:ARG:38>  (81) 
hbond:ARG:38    0
hbond:ARG:38    0
Name: 80, dtype: object

>  <halogenbond:ARG:38>  (81) 
halogenbond:ARG:38    0
halogenbond:ARG:38    0
Name: 80, dtype: object

>  <hbond:ASP:39>  (81) 
hbond:ASP:39    0
hbond:ASP:39    0
Name: 80, dtype: object

>  <saltbridge:ASP:39>  (81) 
saltbridge:ASP:39    0
saltbridge:ASP:39    0
Name: 80, dtype: object

>  <hydroph_interaction:ASP:39>  (81) 
hydroph_interaction:ASP:39    0
hydroph_interaction:ASP:39    0
Name: 80, dtype: object

>  <halogenbond:ASP:39>  (81) 
halogenbond:ASP:39    0
halogenbond:ASP:39    0
Name: 80, dtype: object

>  <hydroph_interaction:LEU:40>  (81) 
hydroph_interaction:LEU:40    0
hydroph_interaction:LEU:40    0
Name: 80, dtype: object

>  <hydroph_interaction:TYR:63>  (81) 
hydroph_interaction:TYR:63    0
hydroph_interaction:TYR:63    0
Name: 80, dtype: object

>  <pistack:TYR:63>  (81) 
pistack:TYR:63    0
pistack:TYR:63    0
Name: 80, dtype: object

>  <hbond:TYR:63>  (81) 
hbond:TYR:63    0
hbond:TYR:63    0
Name: 80, dtype: object

>  <hbond:TYR:64>  (81) 
hbond:TYR:64    0
hbond:TYR:64    0
Name: 80, dtype: object

>  <halogenbond:TYR:64>  (81) 
halogenbond:TYR:64    0
halogenbond:TYR:64    0
Name: 80, dtype: object

>  <hydroph_interaction:TYR:64>  (81) 
hydroph_interaction:TYR:64    0
hydroph_interaction:TYR:64    0
Name: 80, dtype: object

>  <hbond:CYS:65>  (81) 
hbond:CYS:65    0
hbond:CYS:65    0
Name: 80, dtype: object

>  <halogenbond:CYS:65>  (81) 
halogenbond:CYS:65    0
halogenbond:CYS:65    0
Name: 80, dtype: object

>  <hbond:SER:66>  (81) 
hbond:SER:66    0
hbond:SER:66    0
Name: 80, dtype: object

>  <hbond:SER:67>  (81) 
hbond:SER:67    0
hbond:SER:67    0
Name: 80, dtype: object

>  <halogenbond:SER:67>  (81) 
halogenbond:SER:67    0
halogenbond:SER:67    0
Name: 80, dtype: object

>  <hydroph_interaction:ARG:68>  (81) 
hydroph_interaction:ARG:68    0
hydroph_interaction:ARG:68    0
Name: 80, dtype: object

>  <hbond:ARG:68>  (81) 
hbond:ARG:68    0
hbond:ARG:68    0
Name: 80, dtype: object

>  <saltbridge:ARG:68>  (81) 
saltbridge:ARG:68    0
saltbridge:ARG:68    0
Name: 80, dtype: object

>  <pication:ARG:68>  (81) 
pication:ARG:68    0
pication:ARG:68    0
Name: 80, dtype: object

>  <hydroph_interaction:TYR:72>  (81) 
hydroph_interaction:TYR:72    0
hydroph_interaction:TYR:72    0
Name: 80, dtype: object

>  <hydroph_interaction:VAL:74>  (81) 
hydroph_interaction:VAL:74    0
hydroph_interaction:VAL:74    0
Name: 80, dtype: object

>  <hydroph_interaction:PHE:76>  (81) 
hydroph_interaction:PHE:76    0
hydroph_interaction:PHE:76    0
Name: 80, dtype: object

>  <hbond:SER:77>  (81) 
hbond:SER:77    0
hbond:SER:77    0
Name: 80, dtype: object

>  <hbond:SER:80>  (81) 
hbond:SER:80    0
hbond:SER:80    0
Name: 80, dtype: object

>  <hbond:LEU:81>  (81) 
hbond:LEU:81    0
hbond:LEU:81    0
Name: 80, dtype: object

>  <halogenbond:LEU:81>  (81) 
halogenbond:LEU:81    0
halogenbond:LEU:81    0
Name: 80, dtype: object

>  <hydroph_interaction:LEU:81>  (81) 
hydroph_interaction:LEU:81    0
hydroph_interaction:LEU:81    0
Name: 80, dtype: object

>  <hydroph_interaction:ILE:82>  (81) 
hydroph_interaction:ILE:82    0
hydroph_interaction:ILE:82    0
Name: 80, dtype: object

>  <hbond:ILE:82>  (81) 
hbond:ILE:82    0
hbond:ILE:82    0
Name: 80, dtype: object

>  <hydroph_interaction:PHE:83>  (81) 
hydroph_interaction:PHE:83    0
hydroph_interaction:PHE:83    0
Name: 80, dtype: object

>  <hbond:PHE:83>  (81) 
hbond:PHE:83    0
hbond:PHE:83    0
Name: 80, dtype: object

>  <halogenbond:PHE:83>  (81) 
halogenbond:PHE:83    0
halogenbond:PHE:83    0
Name: 80, dtype: object

>  <pistack:PHE:83>  (81) 
pistack:PHE:83    0
pistack:PHE:83    0
Name: 80, dtype: object

>  <hydroph_interaction:VAL:84>  (81) 
hydroph_interaction:VAL:84    0
hydroph_interaction:VAL:84    0
Name: 80, dtype: object

>  <hbond:VAL:84>  (81) 
hbond:VAL:84    0
hbond:VAL:84    0
Name: 80, dtype: object

>  <halogenbond:VAL:84>  (81) 
halogenbond:VAL:84    0
halogenbond:VAL:84    0
Name: 80, dtype: object

>  <hydroph_interaction:GLU:85>  (81) 
hydroph_interaction:GLU:85    0
hydroph_interaction:GLU:85    0
Name: 80, dtype: object

>  <hbond:GLU:85>  (81) 
hbond:GLU:85    0
hbond:GLU:85    0
Name: 80, dtype: object

>  <saltbridge:GLU:85>  (81) 
saltbridge:GLU:85    0
saltbridge:GLU:85    0
Name: 80, dtype: object

>  <halogenbond:GLU:85>  (81) 
halogenbond:GLU:85    0
halogenbond:GLU:85    0
Name: 80, dtype: object

>  <hbond:ALA:86>  (81) 
hbond:ALA:86    0
hbond:ALA:86    0
Name: 80, dtype: object

>  <halogenbond:ALA:86>  (81) 
halogenbond:ALA:86    0
halogenbond:ALA:86    0
Name: 80, dtype: object

>  <hydroph_interaction:ALA:86>  (81) 
hydroph_interaction:ALA:86    0
hydroph_interaction:ALA:86    0
Name: 80, dtype: object

>  <hbond:SER:87>  (81) 
hbond:SER:87    2
hbond:SER:87    2
Name: 80, dtype: object

>  <halogenbond:SER:87>  (81) 
halogenbond:SER:87    0
halogenbond:SER:87    0
Name: 80, dtype: object

>  <hbond:GLU:88>  (81) 
hbond:GLU:88    0
hbond:GLU:88    0
Name: 80, dtype: object

>  <hydroph_interaction:GLU:88>  (81) 
hydroph_interaction:GLU:88    0
hydroph_interaction:GLU:88    0
Name: 80, dtype: object

>  <halogenbond:GLU:88>  (81) 
halogenbond:GLU:88    0
halogenbond:GLU:88    0
Name: 80, dtype: object

>  <saltbridge:GLU:88>  (81) 
saltbridge:GLU:88    0
saltbridge:GLU:88    0
Name: 80, dtype: object

>  <hydroph_interaction:TYR:89>  (81) 
hydroph_interaction:TYR:89    0
hydroph_interaction:TYR:89    0
Name: 80, dtype: object

>  <pistack:TYR:89>  (81) 
pistack:TYR:89    0
pistack:TYR:89    0
Name: 80, dtype: object

>  <hbond:TYR:89>  (81) 
hbond:TYR:89    0
hbond:TYR:89    0
Name: 80, dtype: object

>  <halogenbond:TYR:89>  (81) 
halogenbond:TYR:89    0
halogenbond:TYR:89    0
Name: 80, dtype: object

>  <hbond:TYR:90>  (81) 
hbond:TYR:90    0
hbond:TYR:90    0
Name: 80, dtype: object

>  <hydroph_interaction:TYR:90>  (81) 
hydroph_interaction:TYR:90    1
hydroph_interaction:TYR:90    1
Name: 80, dtype: object

>  <pistack:TYR:90>  (81) 
pistack:TYR:90    0
pistack:TYR:90    0
Name: 80, dtype: object

>  <halogenbond:TYR:90>  (81) 
halogenbond:TYR:90    0
halogenbond:TYR:90    0
Name: 80, dtype: object

>  <pication:TYR:90>  (81) 
pication:TYR:90    0
pication:TYR:90    0
Name: 80, dtype: object

>  <hydroph_interaction:PRO:91>  (81) 
hydroph_interaction:PRO:91    0
hydroph_interaction:PRO:91    0
Name: 80, dtype: object

>  <halogenbond:PRO:91>  (81) 
halogenbond:PRO:91    0
halogenbond:PRO:91    0
Name: 80, dtype: object

>  <hbond:PRO:91>  (81) 
hbond:PRO:91    0
hbond:PRO:91    0
Name: 80, dtype: object

>  <hydroph_interaction:ALA:92>  (81) 
hydroph_interaction:ALA:92    0
hydroph_interaction:ALA:92    0
Name: 80, dtype: object

>  <hbond:ARG:93>  (81) 
hbond:ARG:93    0
hbond:ARG:93    0
Name: 80, dtype: object

>  <pication:ARG:93>  (81) 
pication:ARG:93    0
pication:ARG:93    0
Name: 80, dtype: object

>  <saltbridge:ARG:93>  (81) 
saltbridge:ARG:93    0
saltbridge:ARG:93    0
Name: 80, dtype: object

>  <hydroph_interaction:ARG:93>  (81) 
hydroph_interaction:ARG:93    0
hydroph_interaction:ARG:93    0
Name: 80, dtype: object

>  <halogenbond:ARG:93>  (81) 
halogenbond:ARG:93    0
halogenbond:ARG:93    0
Name: 80, dtype: object

>  <hydroph_interaction:TYR:94>  (81) 
hydroph_interaction:TYR:94    0
hydroph_interaction:TYR:94    0
Name: 80, dtype: object

>  <hbond:TYR:94>  (81) 
hbond:TYR:94    0
hbond:TYR:94    0
Name: 80, dtype: object

>  <halogenbond:GLN:95>  (81) 
halogenbond:GLN:95    0
halogenbond:GLN:95    0
Name: 80, dtype: object

>  <hbond:GLN:95>  (81) 
hbond:GLN:95    0
hbond:GLN:95    0
Name: 80, dtype: object

>  <hydroph_interaction:GLN:95>  (81) 
hydroph_interaction:GLN:95    0
hydroph_interaction:GLN:95    0
Name: 80, dtype: object

>  <hbond:SER:96>  (81) 
hbond:SER:96    0
hbond:SER:96    0
Name: 80, dtype: object

>  <hydroph_interaction:LEU:98>  (81) 
hydroph_interaction:LEU:98    0
hydroph_interaction:LEU:98    0
Name: 80, dtype: object

>  <hbond:LEU:98>  (81) 
hbond:LEU:98    0
hbond:LEU:98    0
Name: 80, dtype: object

>  <hbond:MET:99>  (81) 
hbond:MET:99    0
hbond:MET:99    0
Name: 80, dtype: object

>  <hydroph_interaction:MET:99>  (81) 
hydroph_interaction:MET:99    0
hydroph_interaction:MET:99    0
Name: 80, dtype: object

>  <halogenbond:MET:99>  (81) 
halogenbond:MET:99    0
halogenbond:MET:99    0
Name: 80, dtype: object

>  <hydroph_interaction:LEU:100>  (81) 
hydroph_interaction:LEU:100    0
hydroph_interaction:LEU:100    0
Name: 80, dtype: object

>  <hbond:LEU:100>  (81) 
hbond:LEU:100    0
hbond:LEU:100    0
Name: 80, dtype: object

>  <hbond:ALA:101>  (81) 
hbond:ALA:101    0
hbond:ALA:101    0
Name: 80, dtype: object

>  <hydroph_interaction:ALA:101>  (81) 
hydroph_interaction:ALA:101    0
hydroph_interaction:ALA:101    0
Name: 80, dtype: object

>  <hydroph_interaction:VAL:102>  (81) 
hydroph_interaction:VAL:102    0
hydroph_interaction:VAL:102    0
Name: 80, dtype: object

>  <hbond:VAL:102>  (81) 
hbond:VAL:102    0
hbond:VAL:102    0
Name: 80, dtype: object

>  <hbond:GLY:103>  (81) 
hbond:GLY:103    0
hbond:GLY:103    0
Name: 80, dtype: object

>  <halogenbond:GLY:103>  (81) 
halogenbond:GLY:103    0
halogenbond:GLY:103    0
Name: 80, dtype: object

>  <hydroph_interaction:HIS:104>  (81) 
hydroph_interaction:HIS:104    0
hydroph_interaction:HIS:104    0
Name: 80, dtype: object

>  <hbond:HIS:104>  (81) 
hbond:HIS:104    0
hbond:HIS:104    0
Name: 80, dtype: object

>  <saltbridge:HIS:104>  (81) 
saltbridge:HIS:104    0
saltbridge:HIS:104    0
Name: 80, dtype: object

>  <pication:HIS:104>  (81) 
pication:HIS:104    0
pication:HIS:104    0
Name: 80, dtype: object

>  <pistack:HIS:104>  (81) 
pistack:HIS:104    0
pistack:HIS:104    0
Name: 80, dtype: object

>  <halogenbond:HIS:104>  (81) 
halogenbond:HIS:104    0
halogenbond:HIS:104    0
Name: 80, dtype: object

>  <hbond:SER:105>  (81) 
hbond:SER:105    0
hbond:SER:105    0
Name: 80, dtype: object

>  <halogenbond:SER:105>  (81) 
halogenbond:SER:105    0
halogenbond:SER:105    0
Name: 80, dtype: object

>  <hbond:GLU:106>  (81) 
hbond:GLU:106    0
hbond:GLU:106    0
Name: 80, dtype: object

>  <hydroph_interaction:GLU:106>  (81) 
hydroph_interaction:GLU:106    0
hydroph_interaction:GLU:106    0
Name: 80, dtype: object

>  <saltbridge:GLU:106>  (81) 
saltbridge:GLU:106    0
saltbridge:GLU:106    0
Name: 80, dtype: object

>  <halogenbond:GLU:106>  (81) 
halogenbond:GLU:106    0
halogenbond:GLU:106    0
Name: 80, dtype: object

>  <hydroph_interaction:PRO:107>  (81) 
hydroph_interaction:PRO:107    1
hydroph_interaction:PRO:107    1
Name: 80, dtype: object

>  <hbond:PRO:107>  (81) 
hbond:PRO:107    0
hbond:PRO:107    0
Name: 80, dtype: object

>  <halogenbond:PRO:107>  (81) 
halogenbond:PRO:107    0
halogenbond:PRO:107    0
Name: 80, dtype: object

>  <hbond:GLY:108>  (81) 
hbond:GLY:108    0
hbond:GLY:108    0
Name: 80, dtype: object

>  <halogenbond:GLY:108>  (81) 
halogenbond:GLY:108    0
halogenbond:GLY:108    0
Name: 80, dtype: object

>  <hbond:ASP:109>  (81) 
hbond:ASP:109    0
hbond:ASP:109    0
Name: 80, dtype: object

>  <hydroph_interaction:ASP:109>  (81) 
hydroph_interaction:ASP:109    0
hydroph_interaction:ASP:109    0
Name: 80, dtype: object

>  <saltbridge:ASP:109>  (81) 
saltbridge:ASP:109    0
saltbridge:ASP:109    0
Name: 80, dtype: object

>  <hbond:CYS:110>  (81) 
hbond:CYS:110    0
hbond:CYS:110    0
Name: 80, dtype: object

>  <halogenbond:CYS:110>  (81) 
halogenbond:CYS:110    0
halogenbond:CYS:110    0
Name: 80, dtype: object

>  <hbond:GLY:111>  (81) 
hbond:GLY:111    0
hbond:GLY:111    0
Name: 80, dtype: object

>  <hbond:GLY:112>  (81) 
hbond:GLY:112    0
hbond:GLY:112    0
Name: 80, dtype: object

>  <hbond:ILE:113>  (81) 
hbond:ILE:113    0
hbond:ILE:113    0
Name: 80, dtype: object

>  <hydroph_interaction:LEU:114>  (81) 
hydroph_interaction:LEU:114    0
hydroph_interaction:LEU:114    0
Name: 80, dtype: object

>  <hbond:LEU:114>  (81) 
hbond:LEU:114    0
hbond:LEU:114    0
Name: 80, dtype: object

>  <hydroph_interaction:ILE:123>  (81) 
hydroph_interaction:ILE:123    0
hydroph_interaction:ILE:123    0
Name: 80, dtype: object

>  <hbond:ILE:123>  (81) 
hbond:ILE:123    0
hbond:ILE:123    0
Name: 80, dtype: object

>  <hydroph_interaction:VAL:124>  (81) 
hydroph_interaction:VAL:124    0
hydroph_interaction:VAL:124    0
Name: 80, dtype: object

>  <hbond:VAL:124>  (81) 
hbond:VAL:124    0
hbond:VAL:124    0
Name: 80, dtype: object

>  <halogenbond:VAL:124>  (81) 
halogenbond:VAL:124    0
halogenbond:VAL:124    0
Name: 80, dtype: object

>  <hbond:SER:125>  (81) 
hbond:SER:125    0
hbond:SER:125    0
Name: 80, dtype: object

>  <halogenbond:SER:125>  (81) 
halogenbond:SER:125    0
halogenbond:SER:125    0
Name: 80, dtype: object

>  <hydroph_interaction:THR:126>  (81) 
hydroph_interaction:THR:126    0
hydroph_interaction:THR:126    0
Name: 80, dtype: object

>  <hbond:THR:126>  (81) 
hbond:THR:126    0
hbond:THR:126    0
Name: 80, dtype: object

>  <halogenbond:THR:126>  (81) 
halogenbond:THR:126    0
halogenbond:THR:126    0
Name: 80, dtype: object

>  <hbond:GLY:127>  (81) 
hbond:GLY:127    0
hbond:GLY:127    0
Name: 80, dtype: object

>  <halogenbond:GLY:127>  (81) 
halogenbond:GLY:127    0
halogenbond:GLY:127    0
Name: 80, dtype: object

>  <hydroph_interaction:GLY:127>  (81) 
hydroph_interaction:GLY:127    0
hydroph_interaction:GLY:127    0
Name: 80, dtype: object

>  <hbond:GLY:128>  (81) 
hbond:GLY:128    0
hbond:GLY:128    0
Name: 80, dtype: object

>  <halogenbond:GLY:128>  (81) 
halogenbond:GLY:128    0
halogenbond:GLY:128    0
Name: 80, dtype: object

>  <hydroph_interaction:GLY:128>  (81) 
hydroph_interaction:GLY:128    0
hydroph_interaction:GLY:128    0
Name: 80, dtype: object

>  <hbond:ASN:129>  (81) 
hbond:ASN:129    0
hbond:ASN:129    0
Name: 80, dtype: object

>  <hydroph_interaction:ASN:129>  (81) 
hydroph_interaction:ASN:129    0
hydroph_interaction:ASN:129    0
Name: 80, dtype: object

>  <halogenbond:ASN:129>  (81) 
halogenbond:ASN:129    0
halogenbond:ASN:129    0
Name: 80, dtype: object

>  <hbond:GLY:130>  (81) 
hbond:GLY:130    0
hbond:GLY:130    0
Name: 80, dtype: object

>  <hydroph_interaction:LEU:131>  (81) 
hydroph_interaction:LEU:131    0
hydroph_interaction:LEU:131    0
Name: 80, dtype: object

>  <hbond:LEU:131>  (81) 
hbond:LEU:131    0
hbond:LEU:131    0
Name: 80, dtype: object

>  <halogenbond:LEU:131>  (81) 
halogenbond:LEU:131    0
halogenbond:LEU:131    0
Name: 80, dtype: object

>  <hydroph_interaction:VAL:132>  (81) 
hydroph_interaction:VAL:132    0
hydroph_interaction:VAL:132    0
Name: 80, dtype: object

>  <hbond:VAL:132>  (81) 
hbond:VAL:132    0
hbond:VAL:132    0
Name: 80, dtype: object

>  <hbond:GLY:133>  (81) 
hbond:GLY:133    0
hbond:GLY:133    0
Name: 80, dtype: object

>  <halogenbond:GLY:133>  (81) 
halogenbond:GLY:133    0
halogenbond:GLY:133    0
Name: 80, dtype: object

>  <hydroph_interaction:PHE:134>  (81) 
hydroph_interaction:PHE:134    0
hydroph_interaction:PHE:134    0
Name: 80, dtype: object

>  <hbond:PHE:134>  (81) 
hbond:PHE:134    0
hbond:PHE:134    0
Name: 80, dtype: object

>  <pistack:PHE:134>  (81) 
pistack:PHE:134    0
pistack:PHE:134    0
Name: 80, dtype: object

>  <pication:PHE:134>  (81) 
pication:PHE:134    0
pication:PHE:134    0
Name: 80, dtype: object

>  <hydroph_interaction:ALA:135>  (81) 
hydroph_interaction:ALA:135    0
hydroph_interaction:ALA:135    0
Name: 80, dtype: object

>  <hbond:ALA:135>  (81) 
hbond:ALA:135    0
hbond:ALA:135    0
Name: 80, dtype: object

$$$$
PV_002873190497
     RDKit          3D

 30 32  0  0  0  0  0  0  0  0999 V2000
   13.3490   16.1720   20.5250 C   0  0  0  0  0  0  0  0  0  0  0  0
   12.3310   15.2870   21.1290 C   0  0  0  0  0  0  0  0  0  0  0  0
   10.8760   15.4200   20.7730 C   0  0  0  0  0  0  0  0  0  0  0  0
    9.9440   14.5680   21.3530 C   0  0  0  0  0  0  0  0  0  0  0  0
   10.5030   13.5930   22.2850 C   0  0  0  0  0  0  0  0  0  0  0  0
    9.8050   12.6280   22.9790 C   0  0  0  0  0  0  0  0  0  0  0  0
   10.1410   11.3390   22.7350 C   0  0  0  0  0  0  0  0  0  0  0  0
    9.4630   10.4440   23.4050 N   0  0  0  0  0  0  0  0  0  0  0  0
    9.6480    9.1210   23.2940 C   0  0  0  0  0  0  0  0  0  0  0  0
    8.5770   11.1380   24.1980 C   0  0  0  0  0  0  0  0  0  0  0  0
    7.5500   10.6470   25.1740 C   0  0  0  0  0  0  0  0  0  0  0  0
    6.7890   11.5900   25.8390 C   0  0  0  0  0  0  0  0  0  0  0  0
    6.9800   12.9470   25.6020 C   0  0  0  0  0  0  0  0  0  0  0  0
    7.9410   13.4180   24.6860 C   0  0  0  0  0  0  0  0  0  0  0  0
    8.7590   12.5220   23.9620 C   0  0  0  0  0  0  0  0  0  0  0  0
   11.8450   13.5450   22.5500 N   0  0  0  0  0  0  0  0  0  0  0  0
   12.7550   14.3760   21.9890 N   0  0  0  0  0  0  0  0  0  0  0  0
   13.5720   15.8370   19.5160 H   0  0  0  0  0  0  0  0  0  0  0  0
   14.2660   16.1020   21.1040 H   0  0  0  0  0  0  0  0  0  0  0  0
   13.0420   17.2190   20.5130 H   0  0  0  0  0  0  0  0  0  0  0  0
   10.6330   16.2060   20.0530 H   0  0  0  0  0  0  0  0  0  0  0  0
    8.8830   14.6330   21.1180 H   0  0  0  0  0  0  0  0  0  0  0  0
   10.9260   11.1640   22.0160 H   0  0  0  0  0  0  0  0  0  0  0  0
   10.7190    8.9120   23.3610 H   0  0  0  0  0  0  0  0  0  0  0  0
    9.2530    8.7840   22.3370 H   0  0  0  0  0  0  0  0  0  0  0  0
    9.1190    8.6360   24.1060 H   0  0  0  0  0  0  0  0  0  0  0  0
    7.4080    9.6030   25.3510 H   0  0  0  0  0  0  0  0  0  0  0  0
    6.0340   11.2630   26.5520 H   0  0  0  0  0  0  0  0  0  0  0  0
    6.3680   13.6680   26.1380 H   0  0  0  0  0  0  0  0  0  0  0  0
    8.0450   14.4890   24.5400 H   0  0  0  0  0  0  0  0  0  0  0  0
  1  2  1  0
  2  3  2  0
  3  4  1  0
  4  5  2  0
  5  6  1  0
  6  7  2  0
  7  8  1  0
  8  9  1  0
  8 10  1  0
 10 11  2  0
 11 12  1  0
 12 13  2  0
 13 14  1  0
 14 15  2  0
  5 16  1  0
 16 17  2  0
 17  2  1  0
 15  6  1  0
 15 10  1  0
  1 18  1  0
  1 19  1  0
  1 20  1  0
  3 21  1  0
  4 22  1  0
  7 23  1  0
  9 24  1  0
  9 25  1  0
  9 26  1  0
 11 27  1  0
 12 28  1  0
 13 29  1  0
 14 30  1  0
A    1
 C1 
A    2
 C2 
A    3
 C3 
A    4
 C4 
A    5
 C5 
A    6
 C6 
A    7
 C7 
A    8
 N1 
A    9
 C8 
A   10
 C9 
A   11
 C10
A   12
 C11
A   13
 C12
A   14
 C13
A   15
 C14
A   16
 N2 
A   17
 N3 
A   18
 H1 
A   19
 H2 
A   20
 H3 
A   21
 H4 
A   22
 H5 
A   23
 H6 
A   24
 H7 
A   25
 H8 
A   26
 H9 
A   27
 H10
A   28
 H11
A   29
 H12
A   30
 H13
M  END
>  <ref_pdb>  (82) 
x0310_0A

>  <ref_mols>  (82) 
x0451_0A,x0812_0A

>  <original SMILES>  (82) 
Cc1ccc(-c2cn(C)c3ccccc23)nn1

>  <rationale>  (82) 
info hydroph_interaction:Y89+Y90+H21; 

>  <intxn_cluster>  (82) 
206

>  <intxn_cluster_rank>  (82) 
27

>  <N_interactions>  (82) 
3

>  <∆∆G>  (82) 
-10.622993

>  <$/mg>  (82) 
163.0

>  <comRMSD>  (82) 
0.816457

>  <N_rotatable_bonds>  (82) 
3

>  <N_analogues_07>  (82) 
0

>  <deep_P1_sidechain>  (82) 
False

>  <farthest_distance_to_substrate>  (82) 
2.57333

>  <hbond:SER:7>  (82) 
hbond:SER:7    0
hbond:SER:7    0
Name: 81, dtype: object

>  <halogenbond:SER:7>  (82) 
halogenbond:SER:7    0
halogenbond:SER:7    0
Name: 81, dtype: object

>  <hbond:GLY:8>  (82) 
hbond:GLY:8    0
hbond:GLY:8    0
Name: 81, dtype: object

>  <hydroph_interaction:ASN:19>  (82) 
hydroph_interaction:ASN:19    0
hydroph_interaction:ASN:19    0
Name: 81, dtype: object

>  <hbond:ASN:19>  (82) 
hbond:ASN:19    0
hbond:ASN:19    0
Name: 81, dtype: object

>  <halogenbond:ASN:19>  (82) 
halogenbond:ASN:19    0
halogenbond:ASN:19    0
Name: 81, dtype: object

>  <hbond:ARG:20>  (82) 
hbond:ARG:20    0
hbond:ARG:20    0
Name: 81, dtype: object

>  <hydroph_interaction:ARG:20>  (82) 
hydroph_interaction:ARG:20    0
hydroph_interaction:ARG:20    0
Name: 81, dtype: object

>  <saltbridge:ARG:20>  (82) 
saltbridge:ARG:20    0
saltbridge:ARG:20    0
Name: 81, dtype: object

>  <halogenbond:ARG:20>  (82) 
halogenbond:ARG:20    0
halogenbond:ARG:20    0
Name: 81, dtype: object

>  <pication:ARG:20>  (82) 
pication:ARG:20    0
pication:ARG:20    0
Name: 81, dtype: object

>  <hbond:HIS:21>  (82) 
hbond:HIS:21    0
hbond:HIS:21    0
Name: 81, dtype: object

>  <hydroph_interaction:HIS:21>  (82) 
hydroph_interaction:HIS:21    1
hydroph_interaction:HIS:21    1
Name: 81, dtype: object

>  <saltbridge:HIS:21>  (82) 
saltbridge:HIS:21    0
saltbridge:HIS:21    0
Name: 81, dtype: object

>  <pistack:HIS:21>  (82) 
pistack:HIS:21    0
pistack:HIS:21    0
Name: 81, dtype: object

>  <pication:HIS:21>  (82) 
pication:HIS:21    0
pication:HIS:21    0
Name: 81, dtype: object

>  <halogenbond:HIS:21>  (82) 
halogenbond:HIS:21    0
halogenbond:HIS:21    0
Name: 81, dtype: object

>  <hydroph_interaction:LEU:22>  (82) 
hydroph_interaction:LEU:22    0
hydroph_interaction:LEU:22    0
Name: 81, dtype: object

>  <hbond:LEU:22>  (82) 
hbond:LEU:22    0
hbond:LEU:22    0
Name: 81, dtype: object

>  <hydroph_interaction:TRP:28>  (82) 
hydroph_interaction:TRP:28    0
hydroph_interaction:TRP:28    0
Name: 81, dtype: object

>  <hbond:SER:36>  (82) 
hbond:SER:36    0
hbond:SER:36    0
Name: 81, dtype: object

>  <halogenbond:SER:36>  (82) 
halogenbond:SER:36    0
halogenbond:SER:36    0
Name: 81, dtype: object

>  <hbond:ARG:38>  (82) 
hbond:ARG:38    0
hbond:ARG:38    0
Name: 81, dtype: object

>  <halogenbond:ARG:38>  (82) 
halogenbond:ARG:38    0
halogenbond:ARG:38    0
Name: 81, dtype: object

>  <hbond:ASP:39>  (82) 
hbond:ASP:39    0
hbond:ASP:39    0
Name: 81, dtype: object

>  <saltbridge:ASP:39>  (82) 
saltbridge:ASP:39    0
saltbridge:ASP:39    0
Name: 81, dtype: object

>  <hydroph_interaction:ASP:39>  (82) 
hydroph_interaction:ASP:39    0
hydroph_interaction:ASP:39    0
Name: 81, dtype: object

>  <halogenbond:ASP:39>  (82) 
halogenbond:ASP:39    0
halogenbond:ASP:39    0
Name: 81, dtype: object

>  <hydroph_interaction:LEU:40>  (82) 
hydroph_interaction:LEU:40    0
hydroph_interaction:LEU:40    0
Name: 81, dtype: object

>  <hydroph_interaction:TYR:63>  (82) 
hydroph_interaction:TYR:63    0
hydroph_interaction:TYR:63    0
Name: 81, dtype: object

>  <pistack:TYR:63>  (82) 
pistack:TYR:63    0
pistack:TYR:63    0
Name: 81, dtype: object

>  <hbond:TYR:63>  (82) 
hbond:TYR:63    0
hbond:TYR:63    0
Name: 81, dtype: object

>  <hbond:TYR:64>  (82) 
hbond:TYR:64    0
hbond:TYR:64    0
Name: 81, dtype: object

>  <halogenbond:TYR:64>  (82) 
halogenbond:TYR:64    0
halogenbond:TYR:64    0
Name: 81, dtype: object

>  <hydroph_interaction:TYR:64>  (82) 
hydroph_interaction:TYR:64    0
hydroph_interaction:TYR:64    0
Name: 81, dtype: object

>  <hbond:CYS:65>  (82) 
hbond:CYS:65    0
hbond:CYS:65    0
Name: 81, dtype: object

>  <halogenbond:CYS:65>  (82) 
halogenbond:CYS:65    0
halogenbond:CYS:65    0
Name: 81, dtype: object

>  <hbond:SER:66>  (82) 
hbond:SER:66    0
hbond:SER:66    0
Name: 81, dtype: object

>  <hbond:SER:67>  (82) 
hbond:SER:67    0
hbond:SER:67    0
Name: 81, dtype: object

>  <halogenbond:SER:67>  (82) 
halogenbond:SER:67    0
halogenbond:SER:67    0
Name: 81, dtype: object

>  <hydroph_interaction:ARG:68>  (82) 
hydroph_interaction:ARG:68    0
hydroph_interaction:ARG:68    0
Name: 81, dtype: object

>  <hbond:ARG:68>  (82) 
hbond:ARG:68    0
hbond:ARG:68    0
Name: 81, dtype: object

>  <saltbridge:ARG:68>  (82) 
saltbridge:ARG:68    0
saltbridge:ARG:68    0
Name: 81, dtype: object

>  <pication:ARG:68>  (82) 
pication:ARG:68    0
pication:ARG:68    0
Name: 81, dtype: object

>  <hydroph_interaction:TYR:72>  (82) 
hydroph_interaction:TYR:72    0
hydroph_interaction:TYR:72    0
Name: 81, dtype: object

>  <hydroph_interaction:VAL:74>  (82) 
hydroph_interaction:VAL:74    0
hydroph_interaction:VAL:74    0
Name: 81, dtype: object

>  <hydroph_interaction:PHE:76>  (82) 
hydroph_interaction:PHE:76    0
hydroph_interaction:PHE:76    0
Name: 81, dtype: object

>  <hbond:SER:77>  (82) 
hbond:SER:77    0
hbond:SER:77    0
Name: 81, dtype: object

>  <hbond:SER:80>  (82) 
hbond:SER:80    0
hbond:SER:80    0
Name: 81, dtype: object

>  <hbond:LEU:81>  (82) 
hbond:LEU:81    0
hbond:LEU:81    0
Name: 81, dtype: object

>  <halogenbond:LEU:81>  (82) 
halogenbond:LEU:81    0
halogenbond:LEU:81    0
Name: 81, dtype: object

>  <hydroph_interaction:LEU:81>  (82) 
hydroph_interaction:LEU:81    0
hydroph_interaction:LEU:81    0
Name: 81, dtype: object

>  <hydroph_interaction:ILE:82>  (82) 
hydroph_interaction:ILE:82    0
hydroph_interaction:ILE:82    0
Name: 81, dtype: object

>  <hbond:ILE:82>  (82) 
hbond:ILE:82    0
hbond:ILE:82    0
Name: 81, dtype: object

>  <hydroph_interaction:PHE:83>  (82) 
hydroph_interaction:PHE:83    0
hydroph_interaction:PHE:83    0
Name: 81, dtype: object

>  <hbond:PHE:83>  (82) 
hbond:PHE:83    0
hbond:PHE:83    0
Name: 81, dtype: object

>  <halogenbond:PHE:83>  (82) 
halogenbond:PHE:83    0
halogenbond:PHE:83    0
Name: 81, dtype: object

>  <pistack:PHE:83>  (82) 
pistack:PHE:83    0
pistack:PHE:83    0
Name: 81, dtype: object

>  <hydroph_interaction:VAL:84>  (82) 
hydroph_interaction:VAL:84    0
hydroph_interaction:VAL:84    0
Name: 81, dtype: object

>  <hbond:VAL:84>  (82) 
hbond:VAL:84    0
hbond:VAL:84    0
Name: 81, dtype: object

>  <halogenbond:VAL:84>  (82) 
halogenbond:VAL:84    0
halogenbond:VAL:84    0
Name: 81, dtype: object

>  <hydroph_interaction:GLU:85>  (82) 
hydroph_interaction:GLU:85    0
hydroph_interaction:GLU:85    0
Name: 81, dtype: object

>  <hbond:GLU:85>  (82) 
hbond:GLU:85    0
hbond:GLU:85    0
Name: 81, dtype: object

>  <saltbridge:GLU:85>  (82) 
saltbridge:GLU:85    0
saltbridge:GLU:85    0
Name: 81, dtype: object

>  <halogenbond:GLU:85>  (82) 
halogenbond:GLU:85    0
halogenbond:GLU:85    0
Name: 81, dtype: object

>  <hbond:ALA:86>  (82) 
hbond:ALA:86    0
hbond:ALA:86    0
Name: 81, dtype: object

>  <halogenbond:ALA:86>  (82) 
halogenbond:ALA:86    0
halogenbond:ALA:86    0
Name: 81, dtype: object

>  <hydroph_interaction:ALA:86>  (82) 
hydroph_interaction:ALA:86    0
hydroph_interaction:ALA:86    0
Name: 81, dtype: object

>  <hbond:SER:87>  (82) 
hbond:SER:87    0
hbond:SER:87    0
Name: 81, dtype: object

>  <halogenbond:SER:87>  (82) 
halogenbond:SER:87    0
halogenbond:SER:87    0
Name: 81, dtype: object

>  <hbond:GLU:88>  (82) 
hbond:GLU:88    0
hbond:GLU:88    0
Name: 81, dtype: object

>  <hydroph_interaction:GLU:88>  (82) 
hydroph_interaction:GLU:88    0
hydroph_interaction:GLU:88    0
Name: 81, dtype: object

>  <halogenbond:GLU:88>  (82) 
halogenbond:GLU:88    0
halogenbond:GLU:88    0
Name: 81, dtype: object

>  <saltbridge:GLU:88>  (82) 
saltbridge:GLU:88    0
saltbridge:GLU:88    0
Name: 81, dtype: object

>  <hydroph_interaction:TYR:89>  (82) 
hydroph_interaction:TYR:89    1
hydroph_interaction:TYR:89    1
Name: 81, dtype: object

>  <pistack:TYR:89>  (82) 
pistack:TYR:89    0
pistack:TYR:89    0
Name: 81, dtype: object

>  <hbond:TYR:89>  (82) 
hbond:TYR:89    0
hbond:TYR:89    0
Name: 81, dtype: object

>  <halogenbond:TYR:89>  (82) 
halogenbond:TYR:89    0
halogenbond:TYR:89    0
Name: 81, dtype: object

>  <hbond:TYR:90>  (82) 
hbond:TYR:90    0
hbond:TYR:90    0
Name: 81, dtype: object

>  <hydroph_interaction:TYR:90>  (82) 
hydroph_interaction:TYR:90    1
hydroph_interaction:TYR:90    1
Name: 81, dtype: object

>  <pistack:TYR:90>  (82) 
pistack:TYR:90    0
pistack:TYR:90    0
Name: 81, dtype: object

>  <halogenbond:TYR:90>  (82) 
halogenbond:TYR:90    0
halogenbond:TYR:90    0
Name: 81, dtype: object

>  <pication:TYR:90>  (82) 
pication:TYR:90    0
pication:TYR:90    0
Name: 81, dtype: object

>  <hydroph_interaction:PRO:91>  (82) 
hydroph_interaction:PRO:91    0
hydroph_interaction:PRO:91    0
Name: 81, dtype: object

>  <halogenbond:PRO:91>  (82) 
halogenbond:PRO:91    0
halogenbond:PRO:91    0
Name: 81, dtype: object

>  <hbond:PRO:91>  (82) 
hbond:PRO:91    0
hbond:PRO:91    0
Name: 81, dtype: object

>  <hydroph_interaction:ALA:92>  (82) 
hydroph_interaction:ALA:92    0
hydroph_interaction:ALA:92    0
Name: 81, dtype: object

>  <hbond:ARG:93>  (82) 
hbond:ARG:93    0
hbond:ARG:93    0
Name: 81, dtype: object

>  <pication:ARG:93>  (82) 
pication:ARG:93    0
pication:ARG:93    0
Name: 81, dtype: object

>  <saltbridge:ARG:93>  (82) 
saltbridge:ARG:93    0
saltbridge:ARG:93    0
Name: 81, dtype: object

>  <hydroph_interaction:ARG:93>  (82) 
hydroph_interaction:ARG:93    0
hydroph_interaction:ARG:93    0
Name: 81, dtype: object

>  <halogenbond:ARG:93>  (82) 
halogenbond:ARG:93    0
halogenbond:ARG:93    0
Name: 81, dtype: object

>  <hydroph_interaction:TYR:94>  (82) 
hydroph_interaction:TYR:94    0
hydroph_interaction:TYR:94    0
Name: 81, dtype: object

>  <hbond:TYR:94>  (82) 
hbond:TYR:94    0
hbond:TYR:94    0
Name: 81, dtype: object

>  <halogenbond:GLN:95>  (82) 
halogenbond:GLN:95    0
halogenbond:GLN:95    0
Name: 81, dtype: object

>  <hbond:GLN:95>  (82) 
hbond:GLN:95    0
hbond:GLN:95    0
Name: 81, dtype: object

>  <hydroph_interaction:GLN:95>  (82) 
hydroph_interaction:GLN:95    0
hydroph_interaction:GLN:95    0
Name: 81, dtype: object

>  <hbond:SER:96>  (82) 
hbond:SER:96    0
hbond:SER:96    0
Name: 81, dtype: object

>  <hydroph_interaction:LEU:98>  (82) 
hydroph_interaction:LEU:98    0
hydroph_interaction:LEU:98    0
Name: 81, dtype: object

>  <hbond:LEU:98>  (82) 
hbond:LEU:98    0
hbond:LEU:98    0
Name: 81, dtype: object

>  <hbond:MET:99>  (82) 
hbond:MET:99    0
hbond:MET:99    0
Name: 81, dtype: object

>  <hydroph_interaction:MET:99>  (82) 
hydroph_interaction:MET:99    0
hydroph_interaction:MET:99    0
Name: 81, dtype: object

>  <halogenbond:MET:99>  (82) 
halogenbond:MET:99    0
halogenbond:MET:99    0
Name: 81, dtype: object

>  <hydroph_interaction:LEU:100>  (82) 
hydroph_interaction:LEU:100    0
hydroph_interaction:LEU:100    0
Name: 81, dtype: object

>  <hbond:LEU:100>  (82) 
hbond:LEU:100    0
hbond:LEU:100    0
Name: 81, dtype: object

>  <hbond:ALA:101>  (82) 
hbond:ALA:101    0
hbond:ALA:101    0
Name: 81, dtype: object

>  <hydroph_interaction:ALA:101>  (82) 
hydroph_interaction:ALA:101    0
hydroph_interaction:ALA:101    0
Name: 81, dtype: object

>  <hydroph_interaction:VAL:102>  (82) 
hydroph_interaction:VAL:102    0
hydroph_interaction:VAL:102    0
Name: 81, dtype: object

>  <hbond:VAL:102>  (82) 
hbond:VAL:102    0
hbond:VAL:102    0
Name: 81, dtype: object

>  <hbond:GLY:103>  (82) 
hbond:GLY:103    0
hbond:GLY:103    0
Name: 81, dtype: object

>  <halogenbond:GLY:103>  (82) 
halogenbond:GLY:103    0
halogenbond:GLY:103    0
Name: 81, dtype: object

>  <hydroph_interaction:HIS:104>  (82) 
hydroph_interaction:HIS:104    0
hydroph_interaction:HIS:104    0
Name: 81, dtype: object

>  <hbond:HIS:104>  (82) 
hbond:HIS:104    0
hbond:HIS:104    0
Name: 81, dtype: object

>  <saltbridge:HIS:104>  (82) 
saltbridge:HIS:104    0
saltbridge:HIS:104    0
Name: 81, dtype: object

>  <pication:HIS:104>  (82) 
pication:HIS:104    0
pication:HIS:104    0
Name: 81, dtype: object

>  <pistack:HIS:104>  (82) 
pistack:HIS:104    0
pistack:HIS:104    0
Name: 81, dtype: object

>  <halogenbond:HIS:104>  (82) 
halogenbond:HIS:104    0
halogenbond:HIS:104    0
Name: 81, dtype: object

>  <hbond:SER:105>  (82) 
hbond:SER:105    0
hbond:SER:105    0
Name: 81, dtype: object

>  <halogenbond:SER:105>  (82) 
halogenbond:SER:105    0
halogenbond:SER:105    0
Name: 81, dtype: object

>  <hbond:GLU:106>  (82) 
hbond:GLU:106    0
hbond:GLU:106    0
Name: 81, dtype: object

>  <hydroph_interaction:GLU:106>  (82) 
hydroph_interaction:GLU:106    0
hydroph_interaction:GLU:106    0
Name: 81, dtype: object

>  <saltbridge:GLU:106>  (82) 
saltbridge:GLU:106    0
saltbridge:GLU:106    0
Name: 81, dtype: object

>  <halogenbond:GLU:106>  (82) 
halogenbond:GLU:106    0
halogenbond:GLU:106    0
Name: 81, dtype: object

>  <hydroph_interaction:PRO:107>  (82) 
hydroph_interaction:PRO:107    0
hydroph_interaction:PRO:107    0
Name: 81, dtype: object

>  <hbond:PRO:107>  (82) 
hbond:PRO:107    0
hbond:PRO:107    0
Name: 81, dtype: object

>  <halogenbond:PRO:107>  (82) 
halogenbond:PRO:107    0
halogenbond:PRO:107    0
Name: 81, dtype: object

>  <hbond:GLY:108>  (82) 
hbond:GLY:108    0
hbond:GLY:108    0
Name: 81, dtype: object

>  <halogenbond:GLY:108>  (82) 
halogenbond:GLY:108    0
halogenbond:GLY:108    0
Name: 81, dtype: object

>  <hbond:ASP:109>  (82) 
hbond:ASP:109    0
hbond:ASP:109    0
Name: 81, dtype: object

>  <hydroph_interaction:ASP:109>  (82) 
hydroph_interaction:ASP:109    0
hydroph_interaction:ASP:109    0
Name: 81, dtype: object

>  <saltbridge:ASP:109>  (82) 
saltbridge:ASP:109    0
saltbridge:ASP:109    0
Name: 81, dtype: object

>  <hbond:CYS:110>  (82) 
hbond:CYS:110    0
hbond:CYS:110    0
Name: 81, dtype: object

>  <halogenbond:CYS:110>  (82) 
halogenbond:CYS:110    0
halogenbond:CYS:110    0
Name: 81, dtype: object

>  <hbond:GLY:111>  (82) 
hbond:GLY:111    0
hbond:GLY:111    0
Name: 81, dtype: object

>  <hbond:GLY:112>  (82) 
hbond:GLY:112    0
hbond:GLY:112    0
Name: 81, dtype: object

>  <hbond:ILE:113>  (82) 
hbond:ILE:113    0
hbond:ILE:113    0
Name: 81, dtype: object

>  <hydroph_interaction:LEU:114>  (82) 
hydroph_interaction:LEU:114    0
hydroph_interaction:LEU:114    0
Name: 81, dtype: object

>  <hbond:LEU:114>  (82) 
hbond:LEU:114    0
hbond:LEU:114    0
Name: 81, dtype: object

>  <hydroph_interaction:ILE:123>  (82) 
hydroph_interaction:ILE:123    0
hydroph_interaction:ILE:123    0
Name: 81, dtype: object

>  <hbond:ILE:123>  (82) 
hbond:ILE:123    0
hbond:ILE:123    0
Name: 81, dtype: object

>  <hydroph_interaction:VAL:124>  (82) 
hydroph_interaction:VAL:124    0
hydroph_interaction:VAL:124    0
Name: 81, dtype: object

>  <hbond:VAL:124>  (82) 
hbond:VAL:124    0
hbond:VAL:124    0
Name: 81, dtype: object

>  <halogenbond:VAL:124>  (82) 
halogenbond:VAL:124    0
halogenbond:VAL:124    0
Name: 81, dtype: object

>  <hbond:SER:125>  (82) 
hbond:SER:125    0
hbond:SER:125    0
Name: 81, dtype: object

>  <halogenbond:SER:125>  (82) 
halogenbond:SER:125    0
halogenbond:SER:125    0
Name: 81, dtype: object

>  <hydroph_interaction:THR:126>  (82) 
hydroph_interaction:THR:126    0
hydroph_interaction:THR:126    0
Name: 81, dtype: object

>  <hbond:THR:126>  (82) 
hbond:THR:126    0
hbond:THR:126    0
Name: 81, dtype: object

>  <halogenbond:THR:126>  (82) 
halogenbond:THR:126    0
halogenbond:THR:126    0
Name: 81, dtype: object

>  <hbond:GLY:127>  (82) 
hbond:GLY:127    0
hbond:GLY:127    0
Name: 81, dtype: object

>  <halogenbond:GLY:127>  (82) 
halogenbond:GLY:127    0
halogenbond:GLY:127    0
Name: 81, dtype: object

>  <hydroph_interaction:GLY:127>  (82) 
hydroph_interaction:GLY:127    0
hydroph_interaction:GLY:127    0
Name: 81, dtype: object

>  <hbond:GLY:128>  (82) 
hbond:GLY:128    0
hbond:GLY:128    0
Name: 81, dtype: object

>  <halogenbond:GLY:128>  (82) 
halogenbond:GLY:128    0
halogenbond:GLY:128    0
Name: 81, dtype: object

>  <hydroph_interaction:GLY:128>  (82) 
hydroph_interaction:GLY:128    0
hydroph_interaction:GLY:128    0
Name: 81, dtype: object

>  <hbond:ASN:129>  (82) 
hbond:ASN:129    0
hbond:ASN:129    0
Name: 81, dtype: object

>  <hydroph_interaction:ASN:129>  (82) 
hydroph_interaction:ASN:129    0
hydroph_interaction:ASN:129    0
Name: 81, dtype: object

>  <halogenbond:ASN:129>  (82) 
halogenbond:ASN:129    0
halogenbond:ASN:129    0
Name: 81, dtype: object

>  <hbond:GLY:130>  (82) 
hbond:GLY:130    0
hbond:GLY:130    0
Name: 81, dtype: object

>  <hydroph_interaction:LEU:131>  (82) 
hydroph_interaction:LEU:131    0
hydroph_interaction:LEU:131    0
Name: 81, dtype: object

>  <hbond:LEU:131>  (82) 
hbond:LEU:131    0
hbond:LEU:131    0
Name: 81, dtype: object

>  <halogenbond:LEU:131>  (82) 
halogenbond:LEU:131    0
halogenbond:LEU:131    0
Name: 81, dtype: object

>  <hydroph_interaction:VAL:132>  (82) 
hydroph_interaction:VAL:132    0
hydroph_interaction:VAL:132    0
Name: 81, dtype: object

>  <hbond:VAL:132>  (82) 
hbond:VAL:132    0
hbond:VAL:132    0
Name: 81, dtype: object

>  <hbond:GLY:133>  (82) 
hbond:GLY:133    0
hbond:GLY:133    0
Name: 81, dtype: object

>  <halogenbond:GLY:133>  (82) 
halogenbond:GLY:133    0
halogenbond:GLY:133    0
Name: 81, dtype: object

>  <hydroph_interaction:PHE:134>  (82) 
hydroph_interaction:PHE:134    0
hydroph_interaction:PHE:134    0
Name: 81, dtype: object

>  <hbond:PHE:134>  (82) 
hbond:PHE:134    0
hbond:PHE:134    0
Name: 81, dtype: object

>  <pistack:PHE:134>  (82) 
pistack:PHE:134    0
pistack:PHE:134    0
Name: 81, dtype: object

>  <pication:PHE:134>  (82) 
pication:PHE:134    0
pication:PHE:134    0
Name: 81, dtype: object

>  <hydroph_interaction:ALA:135>  (82) 
hydroph_interaction:ALA:135    0
hydroph_interaction:ALA:135    0
Name: 81, dtype: object

>  <hbond:ALA:135>  (82) 
hbond:ALA:135    0
hbond:ALA:135    0
Name: 81, dtype: object

$$$$
PV_002813178758
     RDKit          3D

 35 36  0  0  0  0  0  0  0  0999 V2000
   12.9520   15.2390   22.5870 C   0  0  0  0  0  0  0  0  0  0  0  0
   12.6500   14.0750   21.6440 C   0  0  2  0  0  0  0  0  0  0  0  0
   12.8990   14.4770   20.1620 C   0  0  0  0  0  0  0  0  0  0  0  0
   13.6020   15.7480   20.0680 N   0  0  0  0  0  0  0  0  0  0  0  0
   14.3410   16.1690   18.9740 C   0  0  0  0  0  0  0  0  0  0  0  0
   15.1430   15.4450   18.3790 O   0  0  0  0  0  0  0  0  0  0  0  0
   14.2040   17.6130   18.5540 C   0  0  0  0  0  0  0  0  0  0  0  0
   15.3750   18.0690   17.8060 C   0  0  0  0  0  0  0  0  0  0  0  0
   16.3390   18.4080   17.2510 N   0  0  0  0  0  0  0  0  0  0  0  0
   11.3160   13.5050   21.8840 N   0  0  0  0  0  0  0  0  0  0  0  0
   10.7830   13.5030   23.1560 C   0  0  0  0  0  0  0  0  0  0  0  0
   11.0650   14.3800   23.9590 O   0  0  0  0  0  0  0  0  0  0  0  0
    9.9030   12.4120   23.5620 C   0  0  0  0  0  0  0  0  0  0  0  0
    9.8920   11.0550   23.2070 C   0  0  0  0  0  0  0  0  0  0  0  0
    8.8890   10.3610   23.8620 O   0  0  0  0  0  0  0  0  0  0  0  0
    8.2920   11.2960   24.6050 C   0  0  0  0  0  0  0  0  0  0  0  0
    8.8320   12.5210   24.4600 C   0  0  0  0  0  0  0  0  0  0  0  0
    8.0660   13.4250   25.3110 C   0  0  0  0  0  0  0  0  0  0  0  0
    7.4510   12.5030   26.2890 O   0  0  0  0  0  0  0  0  0  0  0  0
    7.1800   11.2550   25.5480 C   0  0  0  0  0  0  0  0  0  0  0  0
   12.8830   14.9340   23.6370 H   0  0  0  0  0  0  0  0  0  0  0  0
   13.9700   15.5880   22.4210 H   0  0  0  0  0  0  0  0  0  0  0  0
   12.2860   16.0880   22.4270 H   0  0  0  0  0  0  0  0  0  0  0  0
   13.3650   13.3020   21.9010 H   0  0  0  0  0  0  0  0  0  0  0  0
   11.9520   14.5450   19.6150 H   0  0  0  0  0  0  0  0  0  0  0  0
   13.4990   13.7220   19.6440 H   0  0  0  0  0  0  0  0  0  0  0  0
   13.6150   16.3170   20.9080 H   0  0  0  0  0  0  0  0  0  0  0  0
   13.3070   17.7070   17.9430 H   0  0  0  0  0  0  0  0  0  0  0  0
   14.0610   18.2220   19.4470 H   0  0  0  0  0  0  0  0  0  0  0  0
   11.0080   12.8040   21.2260 H   0  0  0  0  0  0  0  0  0  0  0  0
   10.4950   10.4430   22.5490 H   0  0  0  0  0  0  0  0  0  0  0  0
    8.6740   14.1550   25.8490 H   0  0  0  0  0  0  0  0  0  0  0  0
    7.2560   13.9300   24.7760 H   0  0  0  0  0  0  0  0  0  0  0  0
    6.2020   11.3620   25.1100 H   0  0  0  0  0  0  0  0  0  0  0  0
    7.2110   10.4170   26.2410 H   0  0  0  0  0  0  0  0  0  0  0  0
  1  2  1  0
  2  3  1  0
  3  4  1  0
  4  5  1  0
  5  6  2  0
  5  7  1  0
  7  8  1  0
  8  9  3  0
  2 10  1  0
 10 11  1  0
 11 12  2  0
 11 13  1  0
 13 14  2  0
 14 15  1  0
 15 16  1  0
 16 17  2  0
 17 18  1  0
 18 19  1  0
 19 20  1  0
 17 13  1  0
 20 16  1  0
  1 21  1  0
  1 22  1  0
  1 23  1  0
  2 24  1  1
  3 25  1  0
  3 26  1  0
  4 27  1  0
  7 28  1  0
  7 29  1  0
 10 30  1  0
 14 31  1  0
 18 32  1  0
 18 33  1  0
 20 34  1  0
 20 35  1  0
A    1
 C1 
A    2
 C2 
A    3
 C3 
A    4
 N1 
A    5
 C4 
A    6
 O1 
A    7
 C5 
A    8
 C6 
A    9
 N2 
A   10
 N3 
A   11
 C7 
A   12
 O2 
A   13
 C8 
A   14
 C9 
A   15
 O3 
A   16
 C10
A   17
 C11
A   18
 C12
A   19
 O4 
A   20
 C13
A   21
 H1 
A   22
 H2 
A   23
 H3 
A   24
 H4 
A   25
 H5 
A   26
 H6 
A   27
 H7 
A   28
 H8 
A   29
 H9 
A   30
 H10
A   31
 H11
A   32
 H12
A   33
 H13
A   34
 H14
A   35
 H15
M  END
>  <ref_pdb>  (83) 
x0310_0A

>  <ref_mols>  (83) 
x0554_0A,x0812_0A,x0451_0A

>  <original SMILES>  (83) 
C[C@H](CNC(=O)CC#N)NC(=O)c1coc2c1COC2

>  <rationale>  (83) 
info hbond:S125+S87+H21+R20; hydroph_interaction:P107+Y89+Y90+H21; 

>  <intxn_cluster>  (83) 
207

>  <intxn_cluster_rank>  (83) 
28

>  <N_interactions>  (83) 
9

>  <∆∆G>  (83) 
-5.571426

>  <$/mg>  (83) 
nan

>  <comRMSD>  (83) 
0.947071

>  <N_rotatable_bonds>  (83) 
6

>  <N_analogues_07>  (83) 
0

>  <deep_P1_sidechain>  (83) 
False

>  <farthest_distance_to_substrate>  (83) 
4.245784

>  <hbond:SER:7>  (83) 
hbond:SER:7    0
hbond:SER:7    0
Name: 82, dtype: object

>  <halogenbond:SER:7>  (83) 
halogenbond:SER:7    0
halogenbond:SER:7    0
Name: 82, dtype: object

>  <hbond:GLY:8>  (83) 
hbond:GLY:8    0
hbond:GLY:8    0
Name: 82, dtype: object

>  <hydroph_interaction:ASN:19>  (83) 
hydroph_interaction:ASN:19    0
hydroph_interaction:ASN:19    0
Name: 82, dtype: object

>  <hbond:ASN:19>  (83) 
hbond:ASN:19    0
hbond:ASN:19    0
Name: 82, dtype: object

>  <halogenbond:ASN:19>  (83) 
halogenbond:ASN:19    0
halogenbond:ASN:19    0
Name: 82, dtype: object

>  <hbond:ARG:20>  (83) 
hbond:ARG:20    1
hbond:ARG:20    1
Name: 82, dtype: object

>  <hydroph_interaction:ARG:20>  (83) 
hydroph_interaction:ARG:20    0
hydroph_interaction:ARG:20    0
Name: 82, dtype: object

>  <saltbridge:ARG:20>  (83) 
saltbridge:ARG:20    0
saltbridge:ARG:20    0
Name: 82, dtype: object

>  <halogenbond:ARG:20>  (83) 
halogenbond:ARG:20    0
halogenbond:ARG:20    0
Name: 82, dtype: object

>  <pication:ARG:20>  (83) 
pication:ARG:20    0
pication:ARG:20    0
Name: 82, dtype: object

>  <hbond:HIS:21>  (83) 
hbond:HIS:21    1
hbond:HIS:21    1
Name: 82, dtype: object

>  <hydroph_interaction:HIS:21>  (83) 
hydroph_interaction:HIS:21    1
hydroph_interaction:HIS:21    1
Name: 82, dtype: object

>  <saltbridge:HIS:21>  (83) 
saltbridge:HIS:21    0
saltbridge:HIS:21    0
Name: 82, dtype: object

>  <pistack:HIS:21>  (83) 
pistack:HIS:21    0
pistack:HIS:21    0
Name: 82, dtype: object

>  <pication:HIS:21>  (83) 
pication:HIS:21    0
pication:HIS:21    0
Name: 82, dtype: object

>  <halogenbond:HIS:21>  (83) 
halogenbond:HIS:21    0
halogenbond:HIS:21    0
Name: 82, dtype: object

>  <hydroph_interaction:LEU:22>  (83) 
hydroph_interaction:LEU:22    0
hydroph_interaction:LEU:22    0
Name: 82, dtype: object

>  <hbond:LEU:22>  (83) 
hbond:LEU:22    0
hbond:LEU:22    0
Name: 82, dtype: object

>  <hydroph_interaction:TRP:28>  (83) 
hydroph_interaction:TRP:28    0
hydroph_interaction:TRP:28    0
Name: 82, dtype: object

>  <hbond:SER:36>  (83) 
hbond:SER:36    0
hbond:SER:36    0
Name: 82, dtype: object

>  <halogenbond:SER:36>  (83) 
halogenbond:SER:36    0
halogenbond:SER:36    0
Name: 82, dtype: object

>  <hbond:ARG:38>  (83) 
hbond:ARG:38    0
hbond:ARG:38    0
Name: 82, dtype: object

>  <halogenbond:ARG:38>  (83) 
halogenbond:ARG:38    0
halogenbond:ARG:38    0
Name: 82, dtype: object

>  <hbond:ASP:39>  (83) 
hbond:ASP:39    0
hbond:ASP:39    0
Name: 82, dtype: object

>  <saltbridge:ASP:39>  (83) 
saltbridge:ASP:39    0
saltbridge:ASP:39    0
Name: 82, dtype: object

>  <hydroph_interaction:ASP:39>  (83) 
hydroph_interaction:ASP:39    0
hydroph_interaction:ASP:39    0
Name: 82, dtype: object

>  <halogenbond:ASP:39>  (83) 
halogenbond:ASP:39    0
halogenbond:ASP:39    0
Name: 82, dtype: object

>  <hydroph_interaction:LEU:40>  (83) 
hydroph_interaction:LEU:40    0
hydroph_interaction:LEU:40    0
Name: 82, dtype: object

>  <hydroph_interaction:TYR:63>  (83) 
hydroph_interaction:TYR:63    0
hydroph_interaction:TYR:63    0
Name: 82, dtype: object

>  <pistack:TYR:63>  (83) 
pistack:TYR:63    0
pistack:TYR:63    0
Name: 82, dtype: object

>  <hbond:TYR:63>  (83) 
hbond:TYR:63    0
hbond:TYR:63    0
Name: 82, dtype: object

>  <hbond:TYR:64>  (83) 
hbond:TYR:64    0
hbond:TYR:64    0
Name: 82, dtype: object

>  <halogenbond:TYR:64>  (83) 
halogenbond:TYR:64    0
halogenbond:TYR:64    0
Name: 82, dtype: object

>  <hydroph_interaction:TYR:64>  (83) 
hydroph_interaction:TYR:64    0
hydroph_interaction:TYR:64    0
Name: 82, dtype: object

>  <hbond:CYS:65>  (83) 
hbond:CYS:65    0
hbond:CYS:65    0
Name: 82, dtype: object

>  <halogenbond:CYS:65>  (83) 
halogenbond:CYS:65    0
halogenbond:CYS:65    0
Name: 82, dtype: object

>  <hbond:SER:66>  (83) 
hbond:SER:66    0
hbond:SER:66    0
Name: 82, dtype: object

>  <hbond:SER:67>  (83) 
hbond:SER:67    0
hbond:SER:67    0
Name: 82, dtype: object

>  <halogenbond:SER:67>  (83) 
halogenbond:SER:67    0
halogenbond:SER:67    0
Name: 82, dtype: object

>  <hydroph_interaction:ARG:68>  (83) 
hydroph_interaction:ARG:68    0
hydroph_interaction:ARG:68    0
Name: 82, dtype: object

>  <hbond:ARG:68>  (83) 
hbond:ARG:68    0
hbond:ARG:68    0
Name: 82, dtype: object

>  <saltbridge:ARG:68>  (83) 
saltbridge:ARG:68    0
saltbridge:ARG:68    0
Name: 82, dtype: object

>  <pication:ARG:68>  (83) 
pication:ARG:68    0
pication:ARG:68    0
Name: 82, dtype: object

>  <hydroph_interaction:TYR:72>  (83) 
hydroph_interaction:TYR:72    0
hydroph_interaction:TYR:72    0
Name: 82, dtype: object

>  <hydroph_interaction:VAL:74>  (83) 
hydroph_interaction:VAL:74    0
hydroph_interaction:VAL:74    0
Name: 82, dtype: object

>  <hydroph_interaction:PHE:76>  (83) 
hydroph_interaction:PHE:76    0
hydroph_interaction:PHE:76    0
Name: 82, dtype: object

>  <hbond:SER:77>  (83) 
hbond:SER:77    0
hbond:SER:77    0
Name: 82, dtype: object

>  <hbond:SER:80>  (83) 
hbond:SER:80    0
hbond:SER:80    0
Name: 82, dtype: object

>  <hbond:LEU:81>  (83) 
hbond:LEU:81    0
hbond:LEU:81    0
Name: 82, dtype: object

>  <halogenbond:LEU:81>  (83) 
halogenbond:LEU:81    0
halogenbond:LEU:81    0
Name: 82, dtype: object

>  <hydroph_interaction:LEU:81>  (83) 
hydroph_interaction:LEU:81    0
hydroph_interaction:LEU:81    0
Name: 82, dtype: object

>  <hydroph_interaction:ILE:82>  (83) 
hydroph_interaction:ILE:82    0
hydroph_interaction:ILE:82    0
Name: 82, dtype: object

>  <hbond:ILE:82>  (83) 
hbond:ILE:82    0
hbond:ILE:82    0
Name: 82, dtype: object

>  <hydroph_interaction:PHE:83>  (83) 
hydroph_interaction:PHE:83    0
hydroph_interaction:PHE:83    0
Name: 82, dtype: object

>  <hbond:PHE:83>  (83) 
hbond:PHE:83    0
hbond:PHE:83    0
Name: 82, dtype: object

>  <halogenbond:PHE:83>  (83) 
halogenbond:PHE:83    0
halogenbond:PHE:83    0
Name: 82, dtype: object

>  <pistack:PHE:83>  (83) 
pistack:PHE:83    0
pistack:PHE:83    0
Name: 82, dtype: object

>  <hydroph_interaction:VAL:84>  (83) 
hydroph_interaction:VAL:84    0
hydroph_interaction:VAL:84    0
Name: 82, dtype: object

>  <hbond:VAL:84>  (83) 
hbond:VAL:84    0
hbond:VAL:84    0
Name: 82, dtype: object

>  <halogenbond:VAL:84>  (83) 
halogenbond:VAL:84    0
halogenbond:VAL:84    0
Name: 82, dtype: object

>  <hydroph_interaction:GLU:85>  (83) 
hydroph_interaction:GLU:85    0
hydroph_interaction:GLU:85    0
Name: 82, dtype: object

>  <hbond:GLU:85>  (83) 
hbond:GLU:85    0
hbond:GLU:85    0
Name: 82, dtype: object

>  <saltbridge:GLU:85>  (83) 
saltbridge:GLU:85    0
saltbridge:GLU:85    0
Name: 82, dtype: object

>  <halogenbond:GLU:85>  (83) 
halogenbond:GLU:85    0
halogenbond:GLU:85    0
Name: 82, dtype: object

>  <hbond:ALA:86>  (83) 
hbond:ALA:86    0
hbond:ALA:86    0
Name: 82, dtype: object

>  <halogenbond:ALA:86>  (83) 
halogenbond:ALA:86    0
halogenbond:ALA:86    0
Name: 82, dtype: object

>  <hydroph_interaction:ALA:86>  (83) 
hydroph_interaction:ALA:86    0
hydroph_interaction:ALA:86    0
Name: 82, dtype: object

>  <hbond:SER:87>  (83) 
hbond:SER:87    1
hbond:SER:87    1
Name: 82, dtype: object

>  <halogenbond:SER:87>  (83) 
halogenbond:SER:87    0
halogenbond:SER:87    0
Name: 82, dtype: object

>  <hbond:GLU:88>  (83) 
hbond:GLU:88    0
hbond:GLU:88    0
Name: 82, dtype: object

>  <hydroph_interaction:GLU:88>  (83) 
hydroph_interaction:GLU:88    0
hydroph_interaction:GLU:88    0
Name: 82, dtype: object

>  <halogenbond:GLU:88>  (83) 
halogenbond:GLU:88    0
halogenbond:GLU:88    0
Name: 82, dtype: object

>  <saltbridge:GLU:88>  (83) 
saltbridge:GLU:88    0
saltbridge:GLU:88    0
Name: 82, dtype: object

>  <hydroph_interaction:TYR:89>  (83) 
hydroph_interaction:TYR:89    1
hydroph_interaction:TYR:89    1
Name: 82, dtype: object

>  <pistack:TYR:89>  (83) 
pistack:TYR:89    0
pistack:TYR:89    0
Name: 82, dtype: object

>  <hbond:TYR:89>  (83) 
hbond:TYR:89    0
hbond:TYR:89    0
Name: 82, dtype: object

>  <halogenbond:TYR:89>  (83) 
halogenbond:TYR:89    0
halogenbond:TYR:89    0
Name: 82, dtype: object

>  <hbond:TYR:90>  (83) 
hbond:TYR:90    0
hbond:TYR:90    0
Name: 82, dtype: object

>  <hydroph_interaction:TYR:90>  (83) 
hydroph_interaction:TYR:90    2
hydroph_interaction:TYR:90    2
Name: 82, dtype: object

>  <pistack:TYR:90>  (83) 
pistack:TYR:90    0
pistack:TYR:90    0
Name: 82, dtype: object

>  <halogenbond:TYR:90>  (83) 
halogenbond:TYR:90    0
halogenbond:TYR:90    0
Name: 82, dtype: object

>  <pication:TYR:90>  (83) 
pication:TYR:90    0
pication:TYR:90    0
Name: 82, dtype: object

>  <hydroph_interaction:PRO:91>  (83) 
hydroph_interaction:PRO:91    0
hydroph_interaction:PRO:91    0
Name: 82, dtype: object

>  <halogenbond:PRO:91>  (83) 
halogenbond:PRO:91    0
halogenbond:PRO:91    0
Name: 82, dtype: object

>  <hbond:PRO:91>  (83) 
hbond:PRO:91    0
hbond:PRO:91    0
Name: 82, dtype: object

>  <hydroph_interaction:ALA:92>  (83) 
hydroph_interaction:ALA:92    0
hydroph_interaction:ALA:92    0
Name: 82, dtype: object

>  <hbond:ARG:93>  (83) 
hbond:ARG:93    0
hbond:ARG:93    0
Name: 82, dtype: object

>  <pication:ARG:93>  (83) 
pication:ARG:93    0
pication:ARG:93    0
Name: 82, dtype: object

>  <saltbridge:ARG:93>  (83) 
saltbridge:ARG:93    0
saltbridge:ARG:93    0
Name: 82, dtype: object

>  <hydroph_interaction:ARG:93>  (83) 
hydroph_interaction:ARG:93    0
hydroph_interaction:ARG:93    0
Name: 82, dtype: object

>  <halogenbond:ARG:93>  (83) 
halogenbond:ARG:93    0
halogenbond:ARG:93    0
Name: 82, dtype: object

>  <hydroph_interaction:TYR:94>  (83) 
hydroph_interaction:TYR:94    0
hydroph_interaction:TYR:94    0
Name: 82, dtype: object

>  <hbond:TYR:94>  (83) 
hbond:TYR:94    0
hbond:TYR:94    0
Name: 82, dtype: object

>  <halogenbond:GLN:95>  (83) 
halogenbond:GLN:95    0
halogenbond:GLN:95    0
Name: 82, dtype: object

>  <hbond:GLN:95>  (83) 
hbond:GLN:95    0
hbond:GLN:95    0
Name: 82, dtype: object

>  <hydroph_interaction:GLN:95>  (83) 
hydroph_interaction:GLN:95    0
hydroph_interaction:GLN:95    0
Name: 82, dtype: object

>  <hbond:SER:96>  (83) 
hbond:SER:96    0
hbond:SER:96    0
Name: 82, dtype: object

>  <hydroph_interaction:LEU:98>  (83) 
hydroph_interaction:LEU:98    0
hydroph_interaction:LEU:98    0
Name: 82, dtype: object

>  <hbond:LEU:98>  (83) 
hbond:LEU:98    0
hbond:LEU:98    0
Name: 82, dtype: object

>  <hbond:MET:99>  (83) 
hbond:MET:99    0
hbond:MET:99    0
Name: 82, dtype: object

>  <hydroph_interaction:MET:99>  (83) 
hydroph_interaction:MET:99    0
hydroph_interaction:MET:99    0
Name: 82, dtype: object

>  <halogenbond:MET:99>  (83) 
halogenbond:MET:99    0
halogenbond:MET:99    0
Name: 82, dtype: object

>  <hydroph_interaction:LEU:100>  (83) 
hydroph_interaction:LEU:100    0
hydroph_interaction:LEU:100    0
Name: 82, dtype: object

>  <hbond:LEU:100>  (83) 
hbond:LEU:100    0
hbond:LEU:100    0
Name: 82, dtype: object

>  <hbond:ALA:101>  (83) 
hbond:ALA:101    0
hbond:ALA:101    0
Name: 82, dtype: object

>  <hydroph_interaction:ALA:101>  (83) 
hydroph_interaction:ALA:101    0
hydroph_interaction:ALA:101    0
Name: 82, dtype: object

>  <hydroph_interaction:VAL:102>  (83) 
hydroph_interaction:VAL:102    0
hydroph_interaction:VAL:102    0
Name: 82, dtype: object

>  <hbond:VAL:102>  (83) 
hbond:VAL:102    0
hbond:VAL:102    0
Name: 82, dtype: object

>  <hbond:GLY:103>  (83) 
hbond:GLY:103    0
hbond:GLY:103    0
Name: 82, dtype: object

>  <halogenbond:GLY:103>  (83) 
halogenbond:GLY:103    0
halogenbond:GLY:103    0
Name: 82, dtype: object

>  <hydroph_interaction:HIS:104>  (83) 
hydroph_interaction:HIS:104    0
hydroph_interaction:HIS:104    0
Name: 82, dtype: object

>  <hbond:HIS:104>  (83) 
hbond:HIS:104    0
hbond:HIS:104    0
Name: 82, dtype: object

>  <saltbridge:HIS:104>  (83) 
saltbridge:HIS:104    0
saltbridge:HIS:104    0
Name: 82, dtype: object

>  <pication:HIS:104>  (83) 
pication:HIS:104    0
pication:HIS:104    0
Name: 82, dtype: object

>  <pistack:HIS:104>  (83) 
pistack:HIS:104    0
pistack:HIS:104    0
Name: 82, dtype: object

>  <halogenbond:HIS:104>  (83) 
halogenbond:HIS:104    0
halogenbond:HIS:104    0
Name: 82, dtype: object

>  <hbond:SER:105>  (83) 
hbond:SER:105    0
hbond:SER:105    0
Name: 82, dtype: object

>  <halogenbond:SER:105>  (83) 
halogenbond:SER:105    0
halogenbond:SER:105    0
Name: 82, dtype: object

>  <hbond:GLU:106>  (83) 
hbond:GLU:106    0
hbond:GLU:106    0
Name: 82, dtype: object

>  <hydroph_interaction:GLU:106>  (83) 
hydroph_interaction:GLU:106    0
hydroph_interaction:GLU:106    0
Name: 82, dtype: object

>  <saltbridge:GLU:106>  (83) 
saltbridge:GLU:106    0
saltbridge:GLU:106    0
Name: 82, dtype: object

>  <halogenbond:GLU:106>  (83) 
halogenbond:GLU:106    0
halogenbond:GLU:106    0
Name: 82, dtype: object

>  <hydroph_interaction:PRO:107>  (83) 
hydroph_interaction:PRO:107    1
hydroph_interaction:PRO:107    1
Name: 82, dtype: object

>  <hbond:PRO:107>  (83) 
hbond:PRO:107    0
hbond:PRO:107    0
Name: 82, dtype: object

>  <halogenbond:PRO:107>  (83) 
halogenbond:PRO:107    0
halogenbond:PRO:107    0
Name: 82, dtype: object

>  <hbond:GLY:108>  (83) 
hbond:GLY:108    0
hbond:GLY:108    0
Name: 82, dtype: object

>  <halogenbond:GLY:108>  (83) 
halogenbond:GLY:108    0
halogenbond:GLY:108    0
Name: 82, dtype: object

>  <hbond:ASP:109>  (83) 
hbond:ASP:109    0
hbond:ASP:109    0
Name: 82, dtype: object

>  <hydroph_interaction:ASP:109>  (83) 
hydroph_interaction:ASP:109    0
hydroph_interaction:ASP:109    0
Name: 82, dtype: object

>  <saltbridge:ASP:109>  (83) 
saltbridge:ASP:109    0
saltbridge:ASP:109    0
Name: 82, dtype: object

>  <hbond:CYS:110>  (83) 
hbond:CYS:110    0
hbond:CYS:110    0
Name: 82, dtype: object

>  <halogenbond:CYS:110>  (83) 
halogenbond:CYS:110    0
halogenbond:CYS:110    0
Name: 82, dtype: object

>  <hbond:GLY:111>  (83) 
hbond:GLY:111    0
hbond:GLY:111    0
Name: 82, dtype: object

>  <hbond:GLY:112>  (83) 
hbond:GLY:112    0
hbond:GLY:112    0
Name: 82, dtype: object

>  <hbond:ILE:113>  (83) 
hbond:ILE:113    0
hbond:ILE:113    0
Name: 82, dtype: object

>  <hydroph_interaction:LEU:114>  (83) 
hydroph_interaction:LEU:114    0
hydroph_interaction:LEU:114    0
Name: 82, dtype: object

>  <hbond:LEU:114>  (83) 
hbond:LEU:114    0
hbond:LEU:114    0
Name: 82, dtype: object

>  <hydroph_interaction:ILE:123>  (83) 
hydroph_interaction:ILE:123    0
hydroph_interaction:ILE:123    0
Name: 82, dtype: object

>  <hbond:ILE:123>  (83) 
hbond:ILE:123    0
hbond:ILE:123    0
Name: 82, dtype: object

>  <hydroph_interaction:VAL:124>  (83) 
hydroph_interaction:VAL:124    0
hydroph_interaction:VAL:124    0
Name: 82, dtype: object

>  <hbond:VAL:124>  (83) 
hbond:VAL:124    0
hbond:VAL:124    0
Name: 82, dtype: object

>  <halogenbond:VAL:124>  (83) 
halogenbond:VAL:124    0
halogenbond:VAL:124    0
Name: 82, dtype: object

>  <hbond:SER:125>  (83) 
hbond:SER:125    1
hbond:SER:125    1
Name: 82, dtype: object

>  <halogenbond:SER:125>  (83) 
halogenbond:SER:125    0
halogenbond:SER:125    0
Name: 82, dtype: object

>  <hydroph_interaction:THR:126>  (83) 
hydroph_interaction:THR:126    0
hydroph_interaction:THR:126    0
Name: 82, dtype: object

>  <hbond:THR:126>  (83) 
hbond:THR:126    0
hbond:THR:126    0
Name: 82, dtype: object

>  <halogenbond:THR:126>  (83) 
halogenbond:THR:126    0
halogenbond:THR:126    0
Name: 82, dtype: object

>  <hbond:GLY:127>  (83) 
hbond:GLY:127    0
hbond:GLY:127    0
Name: 82, dtype: object

>  <halogenbond:GLY:127>  (83) 
halogenbond:GLY:127    0
halogenbond:GLY:127    0
Name: 82, dtype: object

>  <hydroph_interaction:GLY:127>  (83) 
hydroph_interaction:GLY:127    0
hydroph_interaction:GLY:127    0
Name: 82, dtype: object

>  <hbond:GLY:128>  (83) 
hbond:GLY:128    0
hbond:GLY:128    0
Name: 82, dtype: object

>  <halogenbond:GLY:128>  (83) 
halogenbond:GLY:128    0
halogenbond:GLY:128    0
Name: 82, dtype: object

>  <hydroph_interaction:GLY:128>  (83) 
hydroph_interaction:GLY:128    0
hydroph_interaction:GLY:128    0
Name: 82, dtype: object

>  <hbond:ASN:129>  (83) 
hbond:ASN:129    0
hbond:ASN:129    0
Name: 82, dtype: object

>  <hydroph_interaction:ASN:129>  (83) 
hydroph_interaction:ASN:129    0
hydroph_interaction:ASN:129    0
Name: 82, dtype: object

>  <halogenbond:ASN:129>  (83) 
halogenbond:ASN:129    0
halogenbond:ASN:129    0
Name: 82, dtype: object

>  <hbond:GLY:130>  (83) 
hbond:GLY:130    0
hbond:GLY:130    0
Name: 82, dtype: object

>  <hydroph_interaction:LEU:131>  (83) 
hydroph_interaction:LEU:131    0
hydroph_interaction:LEU:131    0
Name: 82, dtype: object

>  <hbond:LEU:131>  (83) 
hbond:LEU:131    0
hbond:LEU:131    0
Name: 82, dtype: object

>  <halogenbond:LEU:131>  (83) 
halogenbond:LEU:131    0
halogenbond:LEU:131    0
Name: 82, dtype: object

>  <hydroph_interaction:VAL:132>  (83) 
hydroph_interaction:VAL:132    0
hydroph_interaction:VAL:132    0
Name: 82, dtype: object

>  <hbond:VAL:132>  (83) 
hbond:VAL:132    0
hbond:VAL:132    0
Name: 82, dtype: object

>  <hbond:GLY:133>  (83) 
hbond:GLY:133    0
hbond:GLY:133    0
Name: 82, dtype: object

>  <halogenbond:GLY:133>  (83) 
halogenbond:GLY:133    0
halogenbond:GLY:133    0
Name: 82, dtype: object

>  <hydroph_interaction:PHE:134>  (83) 
hydroph_interaction:PHE:134    0
hydroph_interaction:PHE:134    0
Name: 82, dtype: object

>  <hbond:PHE:134>  (83) 
hbond:PHE:134    0
hbond:PHE:134    0
Name: 82, dtype: object

>  <pistack:PHE:134>  (83) 
pistack:PHE:134    0
pistack:PHE:134    0
Name: 82, dtype: object

>  <pication:PHE:134>  (83) 
pication:PHE:134    0
pication:PHE:134    0
Name: 82, dtype: object

>  <hydroph_interaction:ALA:135>  (83) 
hydroph_interaction:ALA:135    0
hydroph_interaction:ALA:135    0
Name: 82, dtype: object

>  <hbond:ALA:135>  (83) 
hbond:ALA:135    0
hbond:ALA:135    0
Name: 82, dtype: object

$$$$
PV_002842397385
     RDKit          3D

 31 32  0  0  0  0  0  0  0  0999 V2000
   12.0660   15.2880   21.9000 C   0  0  0  0  0  0  0  0  0  0  0  0
   11.4580   14.2590   22.8080 C   0  0  0  0  0  0  0  0  0  0  0  0
   11.9790   14.1640   24.1760 C   0  0  0  0  0  0  0  0  0  0  0  0
   10.4810   13.4740   22.3400 C   0  0  0  0  0  0  0  0  0  0  0  0
    9.8300   12.4560   23.0320 C   0  0  0  0  0  0  0  0  0  0  0  0
   10.1780   11.1750   22.7220 C   0  0  0  0  0  0  0  0  0  0  0  0
    9.5430   10.0390   23.3840 C   0  0  0  0  0  0  0  0  0  0  0  0
   10.1030    8.7630   22.8480 C   0  0  0  0  0  0  0  0  0  0  0  0
    8.5650   10.2240   24.3580 C   0  0  0  0  0  0  0  0  0  0  0  0
    8.2370   11.5540   24.6540 C   0  0  0  0  0  0  0  0  0  0  0  0
    8.8570   12.6400   24.0010 C   0  0  0  0  0  0  0  0  0  0  0  0
    8.2460   13.9220   24.5710 C   0  0  0  0  0  0  0  0  0  0  0  0
    7.0320   13.5020   25.3830 C   0  0  0  0  0  0  0  0  0  0  0  0
    7.2600   12.0440   25.6210 C   0  0  0  0  0  0  0  0  0  0  0  0
    6.7290   11.3720   26.4900 O   0  0  0  0  0  0  0  0  0  0  0  0
   11.3480   15.5650   21.1210 H   0  0  0  0  0  0  0  0  0  0  0  0
   12.9600   14.8910   21.4160 H   0  0  0  0  0  0  0  0  0  0  0  0
   12.3550   16.1790   22.4720 H   0  0  0  0  0  0  0  0  0  0  0  0
   12.7700   13.4320   24.3360 H   0  0  0  0  0  0  0  0  0  0  0  0
   11.2530   13.9860   24.9740 H   0  0  0  0  0  0  0  0  0  0  0  0
   12.4170   15.1400   24.4230 H   0  0  0  0  0  0  0  0  0  0  0  0
   10.1390   13.6050   21.3180 H   0  0  0  0  0  0  0  0  0  0  0  0
   10.9250   11.0040   21.9760 H   0  0  0  0  0  0  0  0  0  0  0  0
   11.0820    8.9500   22.4130 H   0  0  0  0  0  0  0  0  0  0  0  0
    9.4310    8.3640   22.0840 H   0  0  0  0  0  0  0  0  0  0  0  0
   10.2200    8.0450   23.6280 H   0  0  0  0  0  0  0  0  0  0  0  0
    8.0770    9.4040   24.8630 H   0  0  0  0  0  0  0  0  0  0  0  0
    7.9540   14.6090   23.7710 H   0  0  0  0  0  0  0  0  0  0  0  0
    8.9770   14.4160   25.2300 H   0  0  0  0  0  0  0  0  0  0  0  0
    6.9830   14.0370   26.3350 H   0  0  0  0  0  0  0  0  0  0  0  0
    6.1020   13.6460   24.8180 H   0  0  0  0  0  0  0  0  0  0  0  0
  1  2  1  0
  2  3  1  0
  2  4  2  3
  4  5  1  0
  5  6  2  0
  6  7  1  0
  7  8  1  0
  7  9  2  0
  9 10  1  0
 10 11  2  0
 11 12  1  0
 12 13  1  0
 13 14  1  0
 14 15  2  0
 11  5  1  0
 14 10  1  0
  1 16  1  0
  1 17  1  0
  1 18  1  0
  3 19  1  0
  3 20  1  0
  3 21  1  0
  4 22  1  0
  6 23  1  0
  8 24  1  0
  8 25  1  0
  8 26  1  0
  9 27  1  0
 12 28  1  0
 12 29  1  0
 13 30  1  0
 13 31  1  0
A    1
 C1 
A    2
 C2 
A    3
 C3 
A    4
 C4 
A    5
 C5 
A    6
 C6 
A    7
 C7 
A    8
 C8 
A    9
 C9 
A   10
 C10
A   11
 C11
A   12
 C12
A   13
 C13
A   14
 C14
A   15
 O1 
A   16
 H1 
A   17
 H2 
A   18
 H3 
A   19
 H4 
A   20
 H5 
A   21
 H6 
A   22
 H7 
A   23
 H8 
A   24
 H9 
A   25
 H10
A   26
 H11
A   27
 H12
A   28
 H13
A   29
 H14
A   30
 H15
A   31
 H16
M  END
>  <ref_pdb>  (84) 
x0310_0A

>  <ref_mols>  (84) 
x0554_0A,x0739_0A

>  <original SMILES>  (84) 
CC(C)=Cc1cc(C)cc2c1CCC2=O

>  <rationale>  (84) 
info hydroph_interaction:P107+V124; 

>  <intxn_cluster>  (84) 
107

>  <intxn_cluster_rank>  (84) 
29

>  <N_interactions>  (84) 
3

>  <∆∆G>  (84) 
-11.748821

>  <$/mg>  (84) 
163.0

>  <comRMSD>  (84) 
0.719567

>  <N_rotatable_bonds>  (84) 
4

>  <N_analogues_07>  (84) 
3

>  <deep_P1_sidechain>  (84) 
True

>  <farthest_distance_to_substrate>  (84) 
2.870374

>  <hbond:SER:7>  (84) 
hbond:SER:7    0
hbond:SER:7    0
Name: 83, dtype: object

>  <halogenbond:SER:7>  (84) 
halogenbond:SER:7    0
halogenbond:SER:7    0
Name: 83, dtype: object

>  <hbond:GLY:8>  (84) 
hbond:GLY:8    0
hbond:GLY:8    0
Name: 83, dtype: object

>  <hydroph_interaction:ASN:19>  (84) 
hydroph_interaction:ASN:19    0
hydroph_interaction:ASN:19    0
Name: 83, dtype: object

>  <hbond:ASN:19>  (84) 
hbond:ASN:19    0
hbond:ASN:19    0
Name: 83, dtype: object

>  <halogenbond:ASN:19>  (84) 
halogenbond:ASN:19    0
halogenbond:ASN:19    0
Name: 83, dtype: object

>  <hbond:ARG:20>  (84) 
hbond:ARG:20    0
hbond:ARG:20    0
Name: 83, dtype: object

>  <hydroph_interaction:ARG:20>  (84) 
hydroph_interaction:ARG:20    0
hydroph_interaction:ARG:20    0
Name: 83, dtype: object

>  <saltbridge:ARG:20>  (84) 
saltbridge:ARG:20    0
saltbridge:ARG:20    0
Name: 83, dtype: object

>  <halogenbond:ARG:20>  (84) 
halogenbond:ARG:20    0
halogenbond:ARG:20    0
Name: 83, dtype: object

>  <pication:ARG:20>  (84) 
pication:ARG:20    0
pication:ARG:20    0
Name: 83, dtype: object

>  <hbond:HIS:21>  (84) 
hbond:HIS:21    0
hbond:HIS:21    0
Name: 83, dtype: object

>  <hydroph_interaction:HIS:21>  (84) 
hydroph_interaction:HIS:21    0
hydroph_interaction:HIS:21    0
Name: 83, dtype: object

>  <saltbridge:HIS:21>  (84) 
saltbridge:HIS:21    0
saltbridge:HIS:21    0
Name: 83, dtype: object

>  <pistack:HIS:21>  (84) 
pistack:HIS:21    0
pistack:HIS:21    0
Name: 83, dtype: object

>  <pication:HIS:21>  (84) 
pication:HIS:21    0
pication:HIS:21    0
Name: 83, dtype: object

>  <halogenbond:HIS:21>  (84) 
halogenbond:HIS:21    0
halogenbond:HIS:21    0
Name: 83, dtype: object

>  <hydroph_interaction:LEU:22>  (84) 
hydroph_interaction:LEU:22    0
hydroph_interaction:LEU:22    0
Name: 83, dtype: object

>  <hbond:LEU:22>  (84) 
hbond:LEU:22    0
hbond:LEU:22    0
Name: 83, dtype: object

>  <hydroph_interaction:TRP:28>  (84) 
hydroph_interaction:TRP:28    0
hydroph_interaction:TRP:28    0
Name: 83, dtype: object

>  <hbond:SER:36>  (84) 
hbond:SER:36    0
hbond:SER:36    0
Name: 83, dtype: object

>  <halogenbond:SER:36>  (84) 
halogenbond:SER:36    0
halogenbond:SER:36    0
Name: 83, dtype: object

>  <hbond:ARG:38>  (84) 
hbond:ARG:38    0
hbond:ARG:38    0
Name: 83, dtype: object

>  <halogenbond:ARG:38>  (84) 
halogenbond:ARG:38    0
halogenbond:ARG:38    0
Name: 83, dtype: object

>  <hbond:ASP:39>  (84) 
hbond:ASP:39    0
hbond:ASP:39    0
Name: 83, dtype: object

>  <saltbridge:ASP:39>  (84) 
saltbridge:ASP:39    0
saltbridge:ASP:39    0
Name: 83, dtype: object

>  <hydroph_interaction:ASP:39>  (84) 
hydroph_interaction:ASP:39    0
hydroph_interaction:ASP:39    0
Name: 83, dtype: object

>  <halogenbond:ASP:39>  (84) 
halogenbond:ASP:39    0
halogenbond:ASP:39    0
Name: 83, dtype: object

>  <hydroph_interaction:LEU:40>  (84) 
hydroph_interaction:LEU:40    0
hydroph_interaction:LEU:40    0
Name: 83, dtype: object

>  <hydroph_interaction:TYR:63>  (84) 
hydroph_interaction:TYR:63    0
hydroph_interaction:TYR:63    0
Name: 83, dtype: object

>  <pistack:TYR:63>  (84) 
pistack:TYR:63    0
pistack:TYR:63    0
Name: 83, dtype: object

>  <hbond:TYR:63>  (84) 
hbond:TYR:63    0
hbond:TYR:63    0
Name: 83, dtype: object

>  <hbond:TYR:64>  (84) 
hbond:TYR:64    0
hbond:TYR:64    0
Name: 83, dtype: object

>  <halogenbond:TYR:64>  (84) 
halogenbond:TYR:64    0
halogenbond:TYR:64    0
Name: 83, dtype: object

>  <hydroph_interaction:TYR:64>  (84) 
hydroph_interaction:TYR:64    0
hydroph_interaction:TYR:64    0
Name: 83, dtype: object

>  <hbond:CYS:65>  (84) 
hbond:CYS:65    0
hbond:CYS:65    0
Name: 83, dtype: object

>  <halogenbond:CYS:65>  (84) 
halogenbond:CYS:65    0
halogenbond:CYS:65    0
Name: 83, dtype: object

>  <hbond:SER:66>  (84) 
hbond:SER:66    0
hbond:SER:66    0
Name: 83, dtype: object

>  <hbond:SER:67>  (84) 
hbond:SER:67    0
hbond:SER:67    0
Name: 83, dtype: object

>  <halogenbond:SER:67>  (84) 
halogenbond:SER:67    0
halogenbond:SER:67    0
Name: 83, dtype: object

>  <hydroph_interaction:ARG:68>  (84) 
hydroph_interaction:ARG:68    0
hydroph_interaction:ARG:68    0
Name: 83, dtype: object

>  <hbond:ARG:68>  (84) 
hbond:ARG:68    0
hbond:ARG:68    0
Name: 83, dtype: object

>  <saltbridge:ARG:68>  (84) 
saltbridge:ARG:68    0
saltbridge:ARG:68    0
Name: 83, dtype: object

>  <pication:ARG:68>  (84) 
pication:ARG:68    0
pication:ARG:68    0
Name: 83, dtype: object

>  <hydroph_interaction:TYR:72>  (84) 
hydroph_interaction:TYR:72    0
hydroph_interaction:TYR:72    0
Name: 83, dtype: object

>  <hydroph_interaction:VAL:74>  (84) 
hydroph_interaction:VAL:74    0
hydroph_interaction:VAL:74    0
Name: 83, dtype: object

>  <hydroph_interaction:PHE:76>  (84) 
hydroph_interaction:PHE:76    0
hydroph_interaction:PHE:76    0
Name: 83, dtype: object

>  <hbond:SER:77>  (84) 
hbond:SER:77    0
hbond:SER:77    0
Name: 83, dtype: object

>  <hbond:SER:80>  (84) 
hbond:SER:80    0
hbond:SER:80    0
Name: 83, dtype: object

>  <hbond:LEU:81>  (84) 
hbond:LEU:81    0
hbond:LEU:81    0
Name: 83, dtype: object

>  <halogenbond:LEU:81>  (84) 
halogenbond:LEU:81    0
halogenbond:LEU:81    0
Name: 83, dtype: object

>  <hydroph_interaction:LEU:81>  (84) 
hydroph_interaction:LEU:81    0
hydroph_interaction:LEU:81    0
Name: 83, dtype: object

>  <hydroph_interaction:ILE:82>  (84) 
hydroph_interaction:ILE:82    0
hydroph_interaction:ILE:82    0
Name: 83, dtype: object

>  <hbond:ILE:82>  (84) 
hbond:ILE:82    0
hbond:ILE:82    0
Name: 83, dtype: object

>  <hydroph_interaction:PHE:83>  (84) 
hydroph_interaction:PHE:83    0
hydroph_interaction:PHE:83    0
Name: 83, dtype: object

>  <hbond:PHE:83>  (84) 
hbond:PHE:83    0
hbond:PHE:83    0
Name: 83, dtype: object

>  <halogenbond:PHE:83>  (84) 
halogenbond:PHE:83    0
halogenbond:PHE:83    0
Name: 83, dtype: object

>  <pistack:PHE:83>  (84) 
pistack:PHE:83    0
pistack:PHE:83    0
Name: 83, dtype: object

>  <hydroph_interaction:VAL:84>  (84) 
hydroph_interaction:VAL:84    0
hydroph_interaction:VAL:84    0
Name: 83, dtype: object

>  <hbond:VAL:84>  (84) 
hbond:VAL:84    0
hbond:VAL:84    0
Name: 83, dtype: object

>  <halogenbond:VAL:84>  (84) 
halogenbond:VAL:84    0
halogenbond:VAL:84    0
Name: 83, dtype: object

>  <hydroph_interaction:GLU:85>  (84) 
hydroph_interaction:GLU:85    0
hydroph_interaction:GLU:85    0
Name: 83, dtype: object

>  <hbond:GLU:85>  (84) 
hbond:GLU:85    0
hbond:GLU:85    0
Name: 83, dtype: object

>  <saltbridge:GLU:85>  (84) 
saltbridge:GLU:85    0
saltbridge:GLU:85    0
Name: 83, dtype: object

>  <halogenbond:GLU:85>  (84) 
halogenbond:GLU:85    0
halogenbond:GLU:85    0
Name: 83, dtype: object

>  <hbond:ALA:86>  (84) 
hbond:ALA:86    0
hbond:ALA:86    0
Name: 83, dtype: object

>  <halogenbond:ALA:86>  (84) 
halogenbond:ALA:86    0
halogenbond:ALA:86    0
Name: 83, dtype: object

>  <hydroph_interaction:ALA:86>  (84) 
hydroph_interaction:ALA:86    0
hydroph_interaction:ALA:86    0
Name: 83, dtype: object

>  <hbond:SER:87>  (84) 
hbond:SER:87    0
hbond:SER:87    0
Name: 83, dtype: object

>  <halogenbond:SER:87>  (84) 
halogenbond:SER:87    0
halogenbond:SER:87    0
Name: 83, dtype: object

>  <hbond:GLU:88>  (84) 
hbond:GLU:88    0
hbond:GLU:88    0
Name: 83, dtype: object

>  <hydroph_interaction:GLU:88>  (84) 
hydroph_interaction:GLU:88    0
hydroph_interaction:GLU:88    0
Name: 83, dtype: object

>  <halogenbond:GLU:88>  (84) 
halogenbond:GLU:88    0
halogenbond:GLU:88    0
Name: 83, dtype: object

>  <saltbridge:GLU:88>  (84) 
saltbridge:GLU:88    0
saltbridge:GLU:88    0
Name: 83, dtype: object

>  <hydroph_interaction:TYR:89>  (84) 
hydroph_interaction:TYR:89    0
hydroph_interaction:TYR:89    0
Name: 83, dtype: object

>  <pistack:TYR:89>  (84) 
pistack:TYR:89    0
pistack:TYR:89    0
Name: 83, dtype: object

>  <hbond:TYR:89>  (84) 
hbond:TYR:89    0
hbond:TYR:89    0
Name: 83, dtype: object

>  <halogenbond:TYR:89>  (84) 
halogenbond:TYR:89    0
halogenbond:TYR:89    0
Name: 83, dtype: object

>  <hbond:TYR:90>  (84) 
hbond:TYR:90    0
hbond:TYR:90    0
Name: 83, dtype: object

>  <hydroph_interaction:TYR:90>  (84) 
hydroph_interaction:TYR:90    0
hydroph_interaction:TYR:90    0
Name: 83, dtype: object

>  <pistack:TYR:90>  (84) 
pistack:TYR:90    0
pistack:TYR:90    0
Name: 83, dtype: object

>  <halogenbond:TYR:90>  (84) 
halogenbond:TYR:90    0
halogenbond:TYR:90    0
Name: 83, dtype: object

>  <pication:TYR:90>  (84) 
pication:TYR:90    0
pication:TYR:90    0
Name: 83, dtype: object

>  <hydroph_interaction:PRO:91>  (84) 
hydroph_interaction:PRO:91    0
hydroph_interaction:PRO:91    0
Name: 83, dtype: object

>  <halogenbond:PRO:91>  (84) 
halogenbond:PRO:91    0
halogenbond:PRO:91    0
Name: 83, dtype: object

>  <hbond:PRO:91>  (84) 
hbond:PRO:91    0
hbond:PRO:91    0
Name: 83, dtype: object

>  <hydroph_interaction:ALA:92>  (84) 
hydroph_interaction:ALA:92    0
hydroph_interaction:ALA:92    0
Name: 83, dtype: object

>  <hbond:ARG:93>  (84) 
hbond:ARG:93    0
hbond:ARG:93    0
Name: 83, dtype: object

>  <pication:ARG:93>  (84) 
pication:ARG:93    0
pication:ARG:93    0
Name: 83, dtype: object

>  <saltbridge:ARG:93>  (84) 
saltbridge:ARG:93    0
saltbridge:ARG:93    0
Name: 83, dtype: object

>  <hydroph_interaction:ARG:93>  (84) 
hydroph_interaction:ARG:93    0
hydroph_interaction:ARG:93    0
Name: 83, dtype: object

>  <halogenbond:ARG:93>  (84) 
halogenbond:ARG:93    0
halogenbond:ARG:93    0
Name: 83, dtype: object

>  <hydroph_interaction:TYR:94>  (84) 
hydroph_interaction:TYR:94    0
hydroph_interaction:TYR:94    0
Name: 83, dtype: object

>  <hbond:TYR:94>  (84) 
hbond:TYR:94    0
hbond:TYR:94    0
Name: 83, dtype: object

>  <halogenbond:GLN:95>  (84) 
halogenbond:GLN:95    0
halogenbond:GLN:95    0
Name: 83, dtype: object

>  <hbond:GLN:95>  (84) 
hbond:GLN:95    0
hbond:GLN:95    0
Name: 83, dtype: object

>  <hydroph_interaction:GLN:95>  (84) 
hydroph_interaction:GLN:95    0
hydroph_interaction:GLN:95    0
Name: 83, dtype: object

>  <hbond:SER:96>  (84) 
hbond:SER:96    0
hbond:SER:96    0
Name: 83, dtype: object

>  <hydroph_interaction:LEU:98>  (84) 
hydroph_interaction:LEU:98    0
hydroph_interaction:LEU:98    0
Name: 83, dtype: object

>  <hbond:LEU:98>  (84) 
hbond:LEU:98    0
hbond:LEU:98    0
Name: 83, dtype: object

>  <hbond:MET:99>  (84) 
hbond:MET:99    0
hbond:MET:99    0
Name: 83, dtype: object

>  <hydroph_interaction:MET:99>  (84) 
hydroph_interaction:MET:99    0
hydroph_interaction:MET:99    0
Name: 83, dtype: object

>  <halogenbond:MET:99>  (84) 
halogenbond:MET:99    0
halogenbond:MET:99    0
Name: 83, dtype: object

>  <hydroph_interaction:LEU:100>  (84) 
hydroph_interaction:LEU:100    0
hydroph_interaction:LEU:100    0
Name: 83, dtype: object

>  <hbond:LEU:100>  (84) 
hbond:LEU:100    0
hbond:LEU:100    0
Name: 83, dtype: object

>  <hbond:ALA:101>  (84) 
hbond:ALA:101    0
hbond:ALA:101    0
Name: 83, dtype: object

>  <hydroph_interaction:ALA:101>  (84) 
hydroph_interaction:ALA:101    0
hydroph_interaction:ALA:101    0
Name: 83, dtype: object

>  <hydroph_interaction:VAL:102>  (84) 
hydroph_interaction:VAL:102    0
hydroph_interaction:VAL:102    0
Name: 83, dtype: object

>  <hbond:VAL:102>  (84) 
hbond:VAL:102    0
hbond:VAL:102    0
Name: 83, dtype: object

>  <hbond:GLY:103>  (84) 
hbond:GLY:103    0
hbond:GLY:103    0
Name: 83, dtype: object

>  <halogenbond:GLY:103>  (84) 
halogenbond:GLY:103    0
halogenbond:GLY:103    0
Name: 83, dtype: object

>  <hydroph_interaction:HIS:104>  (84) 
hydroph_interaction:HIS:104    0
hydroph_interaction:HIS:104    0
Name: 83, dtype: object

>  <hbond:HIS:104>  (84) 
hbond:HIS:104    0
hbond:HIS:104    0
Name: 83, dtype: object

>  <saltbridge:HIS:104>  (84) 
saltbridge:HIS:104    0
saltbridge:HIS:104    0
Name: 83, dtype: object

>  <pication:HIS:104>  (84) 
pication:HIS:104    0
pication:HIS:104    0
Name: 83, dtype: object

>  <pistack:HIS:104>  (84) 
pistack:HIS:104    0
pistack:HIS:104    0
Name: 83, dtype: object

>  <halogenbond:HIS:104>  (84) 
halogenbond:HIS:104    0
halogenbond:HIS:104    0
Name: 83, dtype: object

>  <hbond:SER:105>  (84) 
hbond:SER:105    0
hbond:SER:105    0
Name: 83, dtype: object

>  <halogenbond:SER:105>  (84) 
halogenbond:SER:105    0
halogenbond:SER:105    0
Name: 83, dtype: object

>  <hbond:GLU:106>  (84) 
hbond:GLU:106    0
hbond:GLU:106    0
Name: 83, dtype: object

>  <hydroph_interaction:GLU:106>  (84) 
hydroph_interaction:GLU:106    0
hydroph_interaction:GLU:106    0
Name: 83, dtype: object

>  <saltbridge:GLU:106>  (84) 
saltbridge:GLU:106    0
saltbridge:GLU:106    0
Name: 83, dtype: object

>  <halogenbond:GLU:106>  (84) 
halogenbond:GLU:106    0
halogenbond:GLU:106    0
Name: 83, dtype: object

>  <hydroph_interaction:PRO:107>  (84) 
hydroph_interaction:PRO:107    2
hydroph_interaction:PRO:107    2
Name: 83, dtype: object

>  <hbond:PRO:107>  (84) 
hbond:PRO:107    0
hbond:PRO:107    0
Name: 83, dtype: object

>  <halogenbond:PRO:107>  (84) 
halogenbond:PRO:107    0
halogenbond:PRO:107    0
Name: 83, dtype: object

>  <hbond:GLY:108>  (84) 
hbond:GLY:108    0
hbond:GLY:108    0
Name: 83, dtype: object

>  <halogenbond:GLY:108>  (84) 
halogenbond:GLY:108    0
halogenbond:GLY:108    0
Name: 83, dtype: object

>  <hbond:ASP:109>  (84) 
hbond:ASP:109    0
hbond:ASP:109    0
Name: 83, dtype: object

>  <hydroph_interaction:ASP:109>  (84) 
hydroph_interaction:ASP:109    0
hydroph_interaction:ASP:109    0
Name: 83, dtype: object

>  <saltbridge:ASP:109>  (84) 
saltbridge:ASP:109    0
saltbridge:ASP:109    0
Name: 83, dtype: object

>  <hbond:CYS:110>  (84) 
hbond:CYS:110    0
hbond:CYS:110    0
Name: 83, dtype: object

>  <halogenbond:CYS:110>  (84) 
halogenbond:CYS:110    0
halogenbond:CYS:110    0
Name: 83, dtype: object

>  <hbond:GLY:111>  (84) 
hbond:GLY:111    0
hbond:GLY:111    0
Name: 83, dtype: object

>  <hbond:GLY:112>  (84) 
hbond:GLY:112    0
hbond:GLY:112    0
Name: 83, dtype: object

>  <hbond:ILE:113>  (84) 
hbond:ILE:113    0
hbond:ILE:113    0
Name: 83, dtype: object

>  <hydroph_interaction:LEU:114>  (84) 
hydroph_interaction:LEU:114    0
hydroph_interaction:LEU:114    0
Name: 83, dtype: object

>  <hbond:LEU:114>  (84) 
hbond:LEU:114    0
hbond:LEU:114    0
Name: 83, dtype: object

>  <hydroph_interaction:ILE:123>  (84) 
hydroph_interaction:ILE:123    0
hydroph_interaction:ILE:123    0
Name: 83, dtype: object

>  <hbond:ILE:123>  (84) 
hbond:ILE:123    0
hbond:ILE:123    0
Name: 83, dtype: object

>  <hydroph_interaction:VAL:124>  (84) 
hydroph_interaction:VAL:124    1
hydroph_interaction:VAL:124    1
Name: 83, dtype: object

>  <hbond:VAL:124>  (84) 
hbond:VAL:124    0
hbond:VAL:124    0
Name: 83, dtype: object

>  <halogenbond:VAL:124>  (84) 
halogenbond:VAL:124    0
halogenbond:VAL:124    0
Name: 83, dtype: object

>  <hbond:SER:125>  (84) 
hbond:SER:125    0
hbond:SER:125    0
Name: 83, dtype: object

>  <halogenbond:SER:125>  (84) 
halogenbond:SER:125    0
halogenbond:SER:125    0
Name: 83, dtype: object

>  <hydroph_interaction:THR:126>  (84) 
hydroph_interaction:THR:126    0
hydroph_interaction:THR:126    0
Name: 83, dtype: object

>  <hbond:THR:126>  (84) 
hbond:THR:126    0
hbond:THR:126    0
Name: 83, dtype: object

>  <halogenbond:THR:126>  (84) 
halogenbond:THR:126    0
halogenbond:THR:126    0
Name: 83, dtype: object

>  <hbond:GLY:127>  (84) 
hbond:GLY:127    0
hbond:GLY:127    0
Name: 83, dtype: object

>  <halogenbond:GLY:127>  (84) 
halogenbond:GLY:127    0
halogenbond:GLY:127    0
Name: 83, dtype: object

>  <hydroph_interaction:GLY:127>  (84) 
hydroph_interaction:GLY:127    0
hydroph_interaction:GLY:127    0
Name: 83, dtype: object

>  <hbond:GLY:128>  (84) 
hbond:GLY:128    0
hbond:GLY:128    0
Name: 83, dtype: object

>  <halogenbond:GLY:128>  (84) 
halogenbond:GLY:128    0
halogenbond:GLY:128    0
Name: 83, dtype: object

>  <hydroph_interaction:GLY:128>  (84) 
hydroph_interaction:GLY:128    0
hydroph_interaction:GLY:128    0
Name: 83, dtype: object

>  <hbond:ASN:129>  (84) 
hbond:ASN:129    0
hbond:ASN:129    0
Name: 83, dtype: object

>  <hydroph_interaction:ASN:129>  (84) 
hydroph_interaction:ASN:129    0
hydroph_interaction:ASN:129    0
Name: 83, dtype: object

>  <halogenbond:ASN:129>  (84) 
halogenbond:ASN:129    0
halogenbond:ASN:129    0
Name: 83, dtype: object

>  <hbond:GLY:130>  (84) 
hbond:GLY:130    0
hbond:GLY:130    0
Name: 83, dtype: object

>  <hydroph_interaction:LEU:131>  (84) 
hydroph_interaction:LEU:131    0
hydroph_interaction:LEU:131    0
Name: 83, dtype: object

>  <hbond:LEU:131>  (84) 
hbond:LEU:131    0
hbond:LEU:131    0
Name: 83, dtype: object

>  <halogenbond:LEU:131>  (84) 
halogenbond:LEU:131    0
halogenbond:LEU:131    0
Name: 83, dtype: object

>  <hydroph_interaction:VAL:132>  (84) 
hydroph_interaction:VAL:132    0
hydroph_interaction:VAL:132    0
Name: 83, dtype: object

>  <hbond:VAL:132>  (84) 
hbond:VAL:132    0
hbond:VAL:132    0
Name: 83, dtype: object

>  <hbond:GLY:133>  (84) 
hbond:GLY:133    0
hbond:GLY:133    0
Name: 83, dtype: object

>  <halogenbond:GLY:133>  (84) 
halogenbond:GLY:133    0
halogenbond:GLY:133    0
Name: 83, dtype: object

>  <hydroph_interaction:PHE:134>  (84) 
hydroph_interaction:PHE:134    0
hydroph_interaction:PHE:134    0
Name: 83, dtype: object

>  <hbond:PHE:134>  (84) 
hbond:PHE:134    0
hbond:PHE:134    0
Name: 83, dtype: object

>  <pistack:PHE:134>  (84) 
pistack:PHE:134    0
pistack:PHE:134    0
Name: 83, dtype: object

>  <pication:PHE:134>  (84) 
pication:PHE:134    0
pication:PHE:134    0
Name: 83, dtype: object

>  <hydroph_interaction:ALA:135>  (84) 
hydroph_interaction:ALA:135    0
hydroph_interaction:ALA:135    0
Name: 83, dtype: object

>  <hbond:ALA:135>  (84) 
hbond:ALA:135    0
hbond:ALA:135    0
Name: 83, dtype: object

$$$$
Z1655406065
     RDKit          3D

 47 48  0  0  0  0  0  0  0  0999 V2000
   10.5740    9.3460   22.5630 C   0  0  0  0  0  0  0  0  0  0  0  0
    9.8720   10.2580   23.2450 C   0  0  0  0  0  0  0  0  0  0  0  0
    8.7990    9.8660   23.9310 N   0  0  0  0  0  0  0  0  0  0  0  0
    8.3310   10.9920   24.4960 N   0  0  0  0  0  0  0  0  0  0  0  0
    7.1510   10.9030   25.3290 C   0  0  0  0  0  0  0  0  0  0  0  0
    9.0770   12.1080   24.1850 C   0  0  0  0  0  0  0  0  0  0  0  0
    8.7580   13.3190   24.6560 O   0  0  0  0  0  0  0  0  0  0  0  0
    7.8390   13.4020   25.7480 C   0  0  0  0  0  0  0  0  0  0  0  0
    6.6440   13.9720   25.3250 C   0  0  0  0  0  0  0  0  0  0  0  0
    6.8890   15.0880   24.3160 C   0  0  0  0  0  0  0  0  0  0  0  0
    5.5720   15.7150   23.9210 C   0  0  0  0  0  0  0  0  0  0  0  0
    4.7990   16.1280   25.1840 C   0  0  0  0  0  0  0  0  0  0  0  0
    4.6710   14.9770   26.1660 C   0  0  0  0  0  0  0  0  0  0  0  0
    5.9610   14.4670   26.4900 O   0  0  0  0  0  0  0  0  0  0  0  0
   10.1120   11.6610   23.3690 C   0  0  0  0  0  0  0  0  0  0  0  0
   11.2520   12.5360   22.7790 C   0  0  0  0  0  0  0  0  0  0  0  0
   11.0740   13.4960   22.0690 O   0  0  0  0  0  0  0  0  0  0  0  0
   12.5700   12.2100   23.1280 N   0  0  0  0  0  0  0  0  0  0  0  0
   13.5230   13.2520   23.5870 C   0  0  0  0  0  0  0  0  0  0  0  0
   14.7810   12.6490   24.2280 C   0  0  0  0  0  0  0  0  0  0  0  0
   13.9690   14.1490   22.4390 C   0  0  0  0  0  0  0  0  0  0  0  0
   13.5970   13.5750   21.1620 C   0  0  0  0  0  0  0  0  0  0  0  0
   13.3260   13.1560   20.1280 N   0  0  0  0  0  0  0  0  0  0  0  0
   11.2840    9.7500   21.8480 H   0  0  0  0  0  0  0  0  0  0  0  0
   11.0370    8.5600   23.1510 H   0  0  0  0  0  0  0  0  0  0  0  0
    9.8490    8.8340   21.9240 H   0  0  0  0  0  0  0  0  0  0  0  0
    6.6860    9.9290   25.1680 H   0  0  0  0  0  0  0  0  0  0  0  0
    7.4270   10.9730   26.3760 H   0  0  0  0  0  0  0  0  0  0  0  0
    6.4580   11.7060   25.0880 H   0  0  0  0  0  0  0  0  0  0  0  0
    7.6460   12.4480   26.2450 H   0  0  0  0  0  0  0  0  0  0  0  0
    8.2870   14.0480   26.5140 H   0  0  0  0  0  0  0  0  0  0  0  0
    6.0280   13.1980   24.8550 H   0  0  0  0  0  0  0  0  0  0  0  0
    7.3740   14.6890   23.4170 H   0  0  0  0  0  0  0  0  0  0  0  0
    7.5410   15.8500   24.7440 H   0  0  0  0  0  0  0  0  0  0  0  0
    5.7340   16.6140   23.3140 H   0  0  0  0  0  0  0  0  0  0  0  0
    4.9800   15.0110   23.3260 H   0  0  0  0  0  0  0  0  0  0  0  0
    3.7910   16.4460   24.9050 H   0  0  0  0  0  0  0  0  0  0  0  0
    5.2900   16.9790   25.6630 H   0  0  0  0  0  0  0  0  0  0  0  0
    4.0500   14.1810   25.7420 H   0  0  0  0  0  0  0  0  0  0  0  0
    4.1960   15.3210   27.0910 H   0  0  0  0  0  0  0  0  0  0  0  0
   12.7400   11.2540   23.4210 H   0  0  0  0  0  0  0  0  0  0  0  0
   13.0050   13.8480   24.3320 H   0  0  0  0  0  0  0  0  0  0  0  0
   15.0790   11.7220   23.7380 H   0  0  0  0  0  0  0  0  0  0  0  0
   14.6170   12.4290   25.2850 H   0  0  0  0  0  0  0  0  0  0  0  0
   15.6250   13.3430   24.1710 H   0  0  0  0  0  0  0  0  0  0  0  0
   15.0560   14.2670   22.4390 H   0  0  0  0  0  0  0  0  0  0  0  0
   13.5470   15.1550   22.5510 H   0  0  0  0  0  0  0  0  0  0  0  0
  1  2  1  0
  2  3  2  0
  3  4  1  0
  4  5  1  0
  4  6  1  0
  6  7  1  0
  7  8  1  0
  8  9  1  0
  9 10  1  0
 10 11  1  0
 11 12  1  0
 12 13  1  0
 13 14  1  0
  6 15  2  0
 15 16  1  0
 16 17  2  0
 16 18  1  0
 18 19  1  0
 19 20  1  0
 19 21  1  0
 21 22  1  0
 22 23  3  0
 15  2  1  0
 14  9  1  0
  1 24  1  0
  1 25  1  0
  1 26  1  0
  5 27  1  0
  5 28  1  0
  5 29  1  0
  8 30  1  0
  8 31  1  0
  9 32  1  0
 10 33  1  0
 10 34  1  0
 11 35  1  0
 11 36  1  0
 12 37  1  0
 12 38  1  0
 13 39  1  0
 13 40  1  0
 18 41  1  0
 19 42  1  0
 20 43  1  0
 20 44  1  0
 20 45  1  0
 21 46  1  0
 21 47  1  0
A    1
 C1 
A    2
 C2 
A    3
 N1 
A    4
 N2 
A    5
 C3 
A    6
 C4 
A    7
 O1 
A    8
 C5 
A    9
 C6 
A   10
 C7 
A   11
 C8 
A   12
 C9 
A   13
 C10
A   14
 O2 
A   15
 C11
A   16
 C12
A   17
 O3 
A   18
 N3 
A   19
 C13
A   20
 C14
A   21
 C15
A   22
 C16
A   23
 N4 
A   24
 H1 
A   25
 H2 
A   26
 H3 
A   27
 H4 
A   28
 H5 
A   29
 H6 
A   30
 H7 
A   31
 H8 
A   32
 H9 
A   33
 H10
A   34
 H11
A   35
 H12
A   36
 H13
A   37
 H14
A   38
 H15
A   39
 H16
A   40
 H17
A   41
 H18
A   42
 H19
A   43
 H20
A   44
 H21
A   45
 H22
A   46
 H23
A   47
 H24
M  END
>  <ref_pdb>  (85) 
x0310_0A

>  <ref_mols>  (85) 
x0310_0A,x0416_0A

>  <original SMILES>  (85) 
Cc1nn(C)c(OCC2CCCCO2)c1C(=O)NC(C)CC#N

>  <rationale>  (85) 
info hbond:S87+P107+N19; hydroph_interaction:P107+V124+Y89+E85; 

>  <intxn_cluster>  (85) 
105

>  <intxn_cluster_rank>  (85) 
30

>  <N_interactions>  (85) 
7

>  <∆∆G>  (85) 
-8.390902

>  <$/mg>  (85) 
nan

>  <comRMSD>  (85) 
0.822131

>  <N_rotatable_bonds>  (85) 
9

>  <N_analogues_07>  (85) 
0

>  <deep_P1_sidechain>  (85) 
True

>  <farthest_distance_to_substrate>  (85) 
2.788678

>  <hbond:SER:7>  (85) 
hbond:SER:7    0
hbond:SER:7    0
Name: 84, dtype: object

>  <halogenbond:SER:7>  (85) 
halogenbond:SER:7    0
halogenbond:SER:7    0
Name: 84, dtype: object

>  <hbond:GLY:8>  (85) 
hbond:GLY:8    0
hbond:GLY:8    0
Name: 84, dtype: object

>  <hydroph_interaction:ASN:19>  (85) 
hydroph_interaction:ASN:19    0
hydroph_interaction:ASN:19    0
Name: 84, dtype: object

>  <hbond:ASN:19>  (85) 
hbond:ASN:19    1
hbond:ASN:19    1
Name: 84, dtype: object

>  <halogenbond:ASN:19>  (85) 
halogenbond:ASN:19    0
halogenbond:ASN:19    0
Name: 84, dtype: object

>  <hbond:ARG:20>  (85) 
hbond:ARG:20    0
hbond:ARG:20    0
Name: 84, dtype: object

>  <hydroph_interaction:ARG:20>  (85) 
hydroph_interaction:ARG:20    0
hydroph_interaction:ARG:20    0
Name: 84, dtype: object

>  <saltbridge:ARG:20>  (85) 
saltbridge:ARG:20    0
saltbridge:ARG:20    0
Name: 84, dtype: object

>  <halogenbond:ARG:20>  (85) 
halogenbond:ARG:20    0
halogenbond:ARG:20    0
Name: 84, dtype: object

>  <pication:ARG:20>  (85) 
pication:ARG:20    0
pication:ARG:20    0
Name: 84, dtype: object

>  <hbond:HIS:21>  (85) 
hbond:HIS:21    0
hbond:HIS:21    0
Name: 84, dtype: object

>  <hydroph_interaction:HIS:21>  (85) 
hydroph_interaction:HIS:21    0
hydroph_interaction:HIS:21    0
Name: 84, dtype: object

>  <saltbridge:HIS:21>  (85) 
saltbridge:HIS:21    0
saltbridge:HIS:21    0
Name: 84, dtype: object

>  <pistack:HIS:21>  (85) 
pistack:HIS:21    0
pistack:HIS:21    0
Name: 84, dtype: object

>  <pication:HIS:21>  (85) 
pication:HIS:21    0
pication:HIS:21    0
Name: 84, dtype: object

>  <halogenbond:HIS:21>  (85) 
halogenbond:HIS:21    0
halogenbond:HIS:21    0
Name: 84, dtype: object

>  <hydroph_interaction:LEU:22>  (85) 
hydroph_interaction:LEU:22    0
hydroph_interaction:LEU:22    0
Name: 84, dtype: object

>  <hbond:LEU:22>  (85) 
hbond:LEU:22    0
hbond:LEU:22    0
Name: 84, dtype: object

>  <hydroph_interaction:TRP:28>  (85) 
hydroph_interaction:TRP:28    0
hydroph_interaction:TRP:28    0
Name: 84, dtype: object

>  <hbond:SER:36>  (85) 
hbond:SER:36    0
hbond:SER:36    0
Name: 84, dtype: object

>  <halogenbond:SER:36>  (85) 
halogenbond:SER:36    0
halogenbond:SER:36    0
Name: 84, dtype: object

>  <hbond:ARG:38>  (85) 
hbond:ARG:38    0
hbond:ARG:38    0
Name: 84, dtype: object

>  <halogenbond:ARG:38>  (85) 
halogenbond:ARG:38    0
halogenbond:ARG:38    0
Name: 84, dtype: object

>  <hbond:ASP:39>  (85) 
hbond:ASP:39    0
hbond:ASP:39    0
Name: 84, dtype: object

>  <saltbridge:ASP:39>  (85) 
saltbridge:ASP:39    0
saltbridge:ASP:39    0
Name: 84, dtype: object

>  <hydroph_interaction:ASP:39>  (85) 
hydroph_interaction:ASP:39    0
hydroph_interaction:ASP:39    0
Name: 84, dtype: object

>  <halogenbond:ASP:39>  (85) 
halogenbond:ASP:39    0
halogenbond:ASP:39    0
Name: 84, dtype: object

>  <hydroph_interaction:LEU:40>  (85) 
hydroph_interaction:LEU:40    0
hydroph_interaction:LEU:40    0
Name: 84, dtype: object

>  <hydroph_interaction:TYR:63>  (85) 
hydroph_interaction:TYR:63    0
hydroph_interaction:TYR:63    0
Name: 84, dtype: object

>  <pistack:TYR:63>  (85) 
pistack:TYR:63    0
pistack:TYR:63    0
Name: 84, dtype: object

>  <hbond:TYR:63>  (85) 
hbond:TYR:63    0
hbond:TYR:63    0
Name: 84, dtype: object

>  <hbond:TYR:64>  (85) 
hbond:TYR:64    0
hbond:TYR:64    0
Name: 84, dtype: object

>  <halogenbond:TYR:64>  (85) 
halogenbond:TYR:64    0
halogenbond:TYR:64    0
Name: 84, dtype: object

>  <hydroph_interaction:TYR:64>  (85) 
hydroph_interaction:TYR:64    0
hydroph_interaction:TYR:64    0
Name: 84, dtype: object

>  <hbond:CYS:65>  (85) 
hbond:CYS:65    0
hbond:CYS:65    0
Name: 84, dtype: object

>  <halogenbond:CYS:65>  (85) 
halogenbond:CYS:65    0
halogenbond:CYS:65    0
Name: 84, dtype: object

>  <hbond:SER:66>  (85) 
hbond:SER:66    0
hbond:SER:66    0
Name: 84, dtype: object

>  <hbond:SER:67>  (85) 
hbond:SER:67    0
hbond:SER:67    0
Name: 84, dtype: object

>  <halogenbond:SER:67>  (85) 
halogenbond:SER:67    0
halogenbond:SER:67    0
Name: 84, dtype: object

>  <hydroph_interaction:ARG:68>  (85) 
hydroph_interaction:ARG:68    0
hydroph_interaction:ARG:68    0
Name: 84, dtype: object

>  <hbond:ARG:68>  (85) 
hbond:ARG:68    0
hbond:ARG:68    0
Name: 84, dtype: object

>  <saltbridge:ARG:68>  (85) 
saltbridge:ARG:68    0
saltbridge:ARG:68    0
Name: 84, dtype: object

>  <pication:ARG:68>  (85) 
pication:ARG:68    0
pication:ARG:68    0
Name: 84, dtype: object

>  <hydroph_interaction:TYR:72>  (85) 
hydroph_interaction:TYR:72    0
hydroph_interaction:TYR:72    0
Name: 84, dtype: object

>  <hydroph_interaction:VAL:74>  (85) 
hydroph_interaction:VAL:74    0
hydroph_interaction:VAL:74    0
Name: 84, dtype: object

>  <hydroph_interaction:PHE:76>  (85) 
hydroph_interaction:PHE:76    0
hydroph_interaction:PHE:76    0
Name: 84, dtype: object

>  <hbond:SER:77>  (85) 
hbond:SER:77    0
hbond:SER:77    0
Name: 84, dtype: object

>  <hbond:SER:80>  (85) 
hbond:SER:80    0
hbond:SER:80    0
Name: 84, dtype: object

>  <hbond:LEU:81>  (85) 
hbond:LEU:81    0
hbond:LEU:81    0
Name: 84, dtype: object

>  <halogenbond:LEU:81>  (85) 
halogenbond:LEU:81    0
halogenbond:LEU:81    0
Name: 84, dtype: object

>  <hydroph_interaction:LEU:81>  (85) 
hydroph_interaction:LEU:81    0
hydroph_interaction:LEU:81    0
Name: 84, dtype: object

>  <hydroph_interaction:ILE:82>  (85) 
hydroph_interaction:ILE:82    0
hydroph_interaction:ILE:82    0
Name: 84, dtype: object

>  <hbond:ILE:82>  (85) 
hbond:ILE:82    0
hbond:ILE:82    0
Name: 84, dtype: object

>  <hydroph_interaction:PHE:83>  (85) 
hydroph_interaction:PHE:83    0
hydroph_interaction:PHE:83    0
Name: 84, dtype: object

>  <hbond:PHE:83>  (85) 
hbond:PHE:83    0
hbond:PHE:83    0
Name: 84, dtype: object

>  <halogenbond:PHE:83>  (85) 
halogenbond:PHE:83    0
halogenbond:PHE:83    0
Name: 84, dtype: object

>  <pistack:PHE:83>  (85) 
pistack:PHE:83    0
pistack:PHE:83    0
Name: 84, dtype: object

>  <hydroph_interaction:VAL:84>  (85) 
hydroph_interaction:VAL:84    0
hydroph_interaction:VAL:84    0
Name: 84, dtype: object

>  <hbond:VAL:84>  (85) 
hbond:VAL:84    0
hbond:VAL:84    0
Name: 84, dtype: object

>  <halogenbond:VAL:84>  (85) 
halogenbond:VAL:84    0
halogenbond:VAL:84    0
Name: 84, dtype: object

>  <hydroph_interaction:GLU:85>  (85) 
hydroph_interaction:GLU:85    1
hydroph_interaction:GLU:85    1
Name: 84, dtype: object

>  <hbond:GLU:85>  (85) 
hbond:GLU:85    0
hbond:GLU:85    0
Name: 84, dtype: object

>  <saltbridge:GLU:85>  (85) 
saltbridge:GLU:85    0
saltbridge:GLU:85    0
Name: 84, dtype: object

>  <halogenbond:GLU:85>  (85) 
halogenbond:GLU:85    0
halogenbond:GLU:85    0
Name: 84, dtype: object

>  <hbond:ALA:86>  (85) 
hbond:ALA:86    0
hbond:ALA:86    0
Name: 84, dtype: object

>  <halogenbond:ALA:86>  (85) 
halogenbond:ALA:86    0
halogenbond:ALA:86    0
Name: 84, dtype: object

>  <hydroph_interaction:ALA:86>  (85) 
hydroph_interaction:ALA:86    0
hydroph_interaction:ALA:86    0
Name: 84, dtype: object

>  <hbond:SER:87>  (85) 
hbond:SER:87    1
hbond:SER:87    1
Name: 84, dtype: object

>  <halogenbond:SER:87>  (85) 
halogenbond:SER:87    0
halogenbond:SER:87    0
Name: 84, dtype: object

>  <hbond:GLU:88>  (85) 
hbond:GLU:88    0
hbond:GLU:88    0
Name: 84, dtype: object

>  <hydroph_interaction:GLU:88>  (85) 
hydroph_interaction:GLU:88    0
hydroph_interaction:GLU:88    0
Name: 84, dtype: object

>  <halogenbond:GLU:88>  (85) 
halogenbond:GLU:88    0
halogenbond:GLU:88    0
Name: 84, dtype: object

>  <saltbridge:GLU:88>  (85) 
saltbridge:GLU:88    0
saltbridge:GLU:88    0
Name: 84, dtype: object

>  <hydroph_interaction:TYR:89>  (85) 
hydroph_interaction:TYR:89    1
hydroph_interaction:TYR:89    1
Name: 84, dtype: object

>  <pistack:TYR:89>  (85) 
pistack:TYR:89    0
pistack:TYR:89    0
Name: 84, dtype: object

>  <hbond:TYR:89>  (85) 
hbond:TYR:89    0
hbond:TYR:89    0
Name: 84, dtype: object

>  <halogenbond:TYR:89>  (85) 
halogenbond:TYR:89    0
halogenbond:TYR:89    0
Name: 84, dtype: object

>  <hbond:TYR:90>  (85) 
hbond:TYR:90    0
hbond:TYR:90    0
Name: 84, dtype: object

>  <hydroph_interaction:TYR:90>  (85) 
hydroph_interaction:TYR:90    0
hydroph_interaction:TYR:90    0
Name: 84, dtype: object

>  <pistack:TYR:90>  (85) 
pistack:TYR:90    0
pistack:TYR:90    0
Name: 84, dtype: object

>  <halogenbond:TYR:90>  (85) 
halogenbond:TYR:90    0
halogenbond:TYR:90    0
Name: 84, dtype: object

>  <pication:TYR:90>  (85) 
pication:TYR:90    0
pication:TYR:90    0
Name: 84, dtype: object

>  <hydroph_interaction:PRO:91>  (85) 
hydroph_interaction:PRO:91    0
hydroph_interaction:PRO:91    0
Name: 84, dtype: object

>  <halogenbond:PRO:91>  (85) 
halogenbond:PRO:91    0
halogenbond:PRO:91    0
Name: 84, dtype: object

>  <hbond:PRO:91>  (85) 
hbond:PRO:91    0
hbond:PRO:91    0
Name: 84, dtype: object

>  <hydroph_interaction:ALA:92>  (85) 
hydroph_interaction:ALA:92    0
hydroph_interaction:ALA:92    0
Name: 84, dtype: object

>  <hbond:ARG:93>  (85) 
hbond:ARG:93    0
hbond:ARG:93    0
Name: 84, dtype: object

>  <pication:ARG:93>  (85) 
pication:ARG:93    0
pication:ARG:93    0
Name: 84, dtype: object

>  <saltbridge:ARG:93>  (85) 
saltbridge:ARG:93    0
saltbridge:ARG:93    0
Name: 84, dtype: object

>  <hydroph_interaction:ARG:93>  (85) 
hydroph_interaction:ARG:93    0
hydroph_interaction:ARG:93    0
Name: 84, dtype: object

>  <halogenbond:ARG:93>  (85) 
halogenbond:ARG:93    0
halogenbond:ARG:93    0
Name: 84, dtype: object

>  <hydroph_interaction:TYR:94>  (85) 
hydroph_interaction:TYR:94    0
hydroph_interaction:TYR:94    0
Name: 84, dtype: object

>  <hbond:TYR:94>  (85) 
hbond:TYR:94    0
hbond:TYR:94    0
Name: 84, dtype: object

>  <halogenbond:GLN:95>  (85) 
halogenbond:GLN:95    0
halogenbond:GLN:95    0
Name: 84, dtype: object

>  <hbond:GLN:95>  (85) 
hbond:GLN:95    0
hbond:GLN:95    0
Name: 84, dtype: object

>  <hydroph_interaction:GLN:95>  (85) 
hydroph_interaction:GLN:95    0
hydroph_interaction:GLN:95    0
Name: 84, dtype: object

>  <hbond:SER:96>  (85) 
hbond:SER:96    0
hbond:SER:96    0
Name: 84, dtype: object

>  <hydroph_interaction:LEU:98>  (85) 
hydroph_interaction:LEU:98    0
hydroph_interaction:LEU:98    0
Name: 84, dtype: object

>  <hbond:LEU:98>  (85) 
hbond:LEU:98    0
hbond:LEU:98    0
Name: 84, dtype: object

>  <hbond:MET:99>  (85) 
hbond:MET:99    0
hbond:MET:99    0
Name: 84, dtype: object

>  <hydroph_interaction:MET:99>  (85) 
hydroph_interaction:MET:99    0
hydroph_interaction:MET:99    0
Name: 84, dtype: object

>  <halogenbond:MET:99>  (85) 
halogenbond:MET:99    0
halogenbond:MET:99    0
Name: 84, dtype: object

>  <hydroph_interaction:LEU:100>  (85) 
hydroph_interaction:LEU:100    0
hydroph_interaction:LEU:100    0
Name: 84, dtype: object

>  <hbond:LEU:100>  (85) 
hbond:LEU:100    0
hbond:LEU:100    0
Name: 84, dtype: object

>  <hbond:ALA:101>  (85) 
hbond:ALA:101    0
hbond:ALA:101    0
Name: 84, dtype: object

>  <hydroph_interaction:ALA:101>  (85) 
hydroph_interaction:ALA:101    0
hydroph_interaction:ALA:101    0
Name: 84, dtype: object

>  <hydroph_interaction:VAL:102>  (85) 
hydroph_interaction:VAL:102    0
hydroph_interaction:VAL:102    0
Name: 84, dtype: object

>  <hbond:VAL:102>  (85) 
hbond:VAL:102    0
hbond:VAL:102    0
Name: 84, dtype: object

>  <hbond:GLY:103>  (85) 
hbond:GLY:103    0
hbond:GLY:103    0
Name: 84, dtype: object

>  <halogenbond:GLY:103>  (85) 
halogenbond:GLY:103    0
halogenbond:GLY:103    0
Name: 84, dtype: object

>  <hydroph_interaction:HIS:104>  (85) 
hydroph_interaction:HIS:104    0
hydroph_interaction:HIS:104    0
Name: 84, dtype: object

>  <hbond:HIS:104>  (85) 
hbond:HIS:104    0
hbond:HIS:104    0
Name: 84, dtype: object

>  <saltbridge:HIS:104>  (85) 
saltbridge:HIS:104    0
saltbridge:HIS:104    0
Name: 84, dtype: object

>  <pication:HIS:104>  (85) 
pication:HIS:104    0
pication:HIS:104    0
Name: 84, dtype: object

>  <pistack:HIS:104>  (85) 
pistack:HIS:104    0
pistack:HIS:104    0
Name: 84, dtype: object

>  <halogenbond:HIS:104>  (85) 
halogenbond:HIS:104    0
halogenbond:HIS:104    0
Name: 84, dtype: object

>  <hbond:SER:105>  (85) 
hbond:SER:105    0
hbond:SER:105    0
Name: 84, dtype: object

>  <halogenbond:SER:105>  (85) 
halogenbond:SER:105    0
halogenbond:SER:105    0
Name: 84, dtype: object

>  <hbond:GLU:106>  (85) 
hbond:GLU:106    0
hbond:GLU:106    0
Name: 84, dtype: object

>  <hydroph_interaction:GLU:106>  (85) 
hydroph_interaction:GLU:106    0
hydroph_interaction:GLU:106    0
Name: 84, dtype: object

>  <saltbridge:GLU:106>  (85) 
saltbridge:GLU:106    0
saltbridge:GLU:106    0
Name: 84, dtype: object

>  <halogenbond:GLU:106>  (85) 
halogenbond:GLU:106    0
halogenbond:GLU:106    0
Name: 84, dtype: object

>  <hydroph_interaction:PRO:107>  (85) 
hydroph_interaction:PRO:107    1
hydroph_interaction:PRO:107    1
Name: 84, dtype: object

>  <hbond:PRO:107>  (85) 
hbond:PRO:107    1
hbond:PRO:107    1
Name: 84, dtype: object

>  <halogenbond:PRO:107>  (85) 
halogenbond:PRO:107    0
halogenbond:PRO:107    0
Name: 84, dtype: object

>  <hbond:GLY:108>  (85) 
hbond:GLY:108    0
hbond:GLY:108    0
Name: 84, dtype: object

>  <halogenbond:GLY:108>  (85) 
halogenbond:GLY:108    0
halogenbond:GLY:108    0
Name: 84, dtype: object

>  <hbond:ASP:109>  (85) 
hbond:ASP:109    0
hbond:ASP:109    0
Name: 84, dtype: object

>  <hydroph_interaction:ASP:109>  (85) 
hydroph_interaction:ASP:109    0
hydroph_interaction:ASP:109    0
Name: 84, dtype: object

>  <saltbridge:ASP:109>  (85) 
saltbridge:ASP:109    0
saltbridge:ASP:109    0
Name: 84, dtype: object

>  <hbond:CYS:110>  (85) 
hbond:CYS:110    0
hbond:CYS:110    0
Name: 84, dtype: object

>  <halogenbond:CYS:110>  (85) 
halogenbond:CYS:110    0
halogenbond:CYS:110    0
Name: 84, dtype: object

>  <hbond:GLY:111>  (85) 
hbond:GLY:111    0
hbond:GLY:111    0
Name: 84, dtype: object

>  <hbond:GLY:112>  (85) 
hbond:GLY:112    0
hbond:GLY:112    0
Name: 84, dtype: object

>  <hbond:ILE:113>  (85) 
hbond:ILE:113    0
hbond:ILE:113    0
Name: 84, dtype: object

>  <hydroph_interaction:LEU:114>  (85) 
hydroph_interaction:LEU:114    0
hydroph_interaction:LEU:114    0
Name: 84, dtype: object

>  <hbond:LEU:114>  (85) 
hbond:LEU:114    0
hbond:LEU:114    0
Name: 84, dtype: object

>  <hydroph_interaction:ILE:123>  (85) 
hydroph_interaction:ILE:123    0
hydroph_interaction:ILE:123    0
Name: 84, dtype: object

>  <hbond:ILE:123>  (85) 
hbond:ILE:123    0
hbond:ILE:123    0
Name: 84, dtype: object

>  <hydroph_interaction:VAL:124>  (85) 
hydroph_interaction:VAL:124    1
hydroph_interaction:VAL:124    1
Name: 84, dtype: object

>  <hbond:VAL:124>  (85) 
hbond:VAL:124    0
hbond:VAL:124    0
Name: 84, dtype: object

>  <halogenbond:VAL:124>  (85) 
halogenbond:VAL:124    0
halogenbond:VAL:124    0
Name: 84, dtype: object

>  <hbond:SER:125>  (85) 
hbond:SER:125    0
hbond:SER:125    0
Name: 84, dtype: object

>  <halogenbond:SER:125>  (85) 
halogenbond:SER:125    0
halogenbond:SER:125    0
Name: 84, dtype: object

>  <hydroph_interaction:THR:126>  (85) 
hydroph_interaction:THR:126    0
hydroph_interaction:THR:126    0
Name: 84, dtype: object

>  <hbond:THR:126>  (85) 
hbond:THR:126    0
hbond:THR:126    0
Name: 84, dtype: object

>  <halogenbond:THR:126>  (85) 
halogenbond:THR:126    0
halogenbond:THR:126    0
Name: 84, dtype: object

>  <hbond:GLY:127>  (85) 
hbond:GLY:127    0
hbond:GLY:127    0
Name: 84, dtype: object

>  <halogenbond:GLY:127>  (85) 
halogenbond:GLY:127    0
halogenbond:GLY:127    0
Name: 84, dtype: object

>  <hydroph_interaction:GLY:127>  (85) 
hydroph_interaction:GLY:127    0
hydroph_interaction:GLY:127    0
Name: 84, dtype: object

>  <hbond:GLY:128>  (85) 
hbond:GLY:128    0
hbond:GLY:128    0
Name: 84, dtype: object

>  <halogenbond:GLY:128>  (85) 
halogenbond:GLY:128    0
halogenbond:GLY:128    0
Name: 84, dtype: object

>  <hydroph_interaction:GLY:128>  (85) 
hydroph_interaction:GLY:128    0
hydroph_interaction:GLY:128    0
Name: 84, dtype: object

>  <hbond:ASN:129>  (85) 
hbond:ASN:129    0
hbond:ASN:129    0
Name: 84, dtype: object

>  <hydroph_interaction:ASN:129>  (85) 
hydroph_interaction:ASN:129    0
hydroph_interaction:ASN:129    0
Name: 84, dtype: object

>  <halogenbond:ASN:129>  (85) 
halogenbond:ASN:129    0
halogenbond:ASN:129    0
Name: 84, dtype: object

>  <hbond:GLY:130>  (85) 
hbond:GLY:130    0
hbond:GLY:130    0
Name: 84, dtype: object

>  <hydroph_interaction:LEU:131>  (85) 
hydroph_interaction:LEU:131    0
hydroph_interaction:LEU:131    0
Name: 84, dtype: object

>  <hbond:LEU:131>  (85) 
hbond:LEU:131    0
hbond:LEU:131    0
Name: 84, dtype: object

>  <halogenbond:LEU:131>  (85) 
halogenbond:LEU:131    0
halogenbond:LEU:131    0
Name: 84, dtype: object

>  <hydroph_interaction:VAL:132>  (85) 
hydroph_interaction:VAL:132    0
hydroph_interaction:VAL:132    0
Name: 84, dtype: object

>  <hbond:VAL:132>  (85) 
hbond:VAL:132    0
hbond:VAL:132    0
Name: 84, dtype: object

>  <hbond:GLY:133>  (85) 
hbond:GLY:133    0
hbond:GLY:133    0
Name: 84, dtype: object

>  <halogenbond:GLY:133>  (85) 
halogenbond:GLY:133    0
halogenbond:GLY:133    0
Name: 84, dtype: object

>  <hydroph_interaction:PHE:134>  (85) 
hydroph_interaction:PHE:134    0
hydroph_interaction:PHE:134    0
Name: 84, dtype: object

>  <hbond:PHE:134>  (85) 
hbond:PHE:134    0
hbond:PHE:134    0
Name: 84, dtype: object

>  <pistack:PHE:134>  (85) 
pistack:PHE:134    0
pistack:PHE:134    0
Name: 84, dtype: object

>  <pication:PHE:134>  (85) 
pication:PHE:134    0
pication:PHE:134    0
Name: 84, dtype: object

>  <hydroph_interaction:ALA:135>  (85) 
hydroph_interaction:ALA:135    0
hydroph_interaction:ALA:135    0
Name: 84, dtype: object

>  <hbond:ALA:135>  (85) 
hbond:ALA:135    0
hbond:ALA:135    0
Name: 84, dtype: object

$$$$
Z739870566
     RDKit          3D

 34 34  0  0  0  0  0  0  0  0999 V2000
   13.3740   15.9350   20.7820 C   0  0  0  0  0  0  0  0  0  0  0  0
   12.4630   14.8000   20.3930 C   0  0  0  0  0  0  0  0  0  0  0  0
   11.9280   14.1240   21.6380 C   0  0  0  0  0  0  0  0  0  0  0  0
   10.4130   14.2240   21.8680 C   0  0  0  0  0  0  0  0  0  0  0  0
    9.6220   14.5560   20.9860 O   0  0  0  0  0  0  0  0  0  0  0  0
   10.1200   13.8860   23.2420 N   0  0  0  0  0  0  0  0  0  0  0  0
   10.9990   14.3050   24.2110 C   0  0  0  0  0  0  0  0  0  0  0  0
    9.5890   12.5840   23.5260 C   0  0  0  0  0  0  0  0  0  0  0  0
    8.5440   12.4350   24.4290 C   0  0  0  0  0  0  0  0  0  0  0  0
    8.1120   11.1450   24.6560 C   0  0  0  0  0  0  0  0  0  0  0  0
    7.0500   11.1170   25.5860 C   0  0  0  0  0  0  0  0  0  0  0  0
    8.6540   10.0260   24.0450 C   0  0  0  0  0  0  0  0  0  0  0  0
    9.6780   10.1780   23.1470 C   0  0  0  0  0  0  0  0  0  0  0  0
   10.2860    9.0180   22.4580 C   0  0  0  0  0  0  0  0  0  0  0  0
   10.1330   11.4620   22.8990 C   0  0  0  0  0  0  0  0  0  0  0  0
   12.8090   16.8660   20.8960 H   0  0  0  0  0  0  0  0  0  0  0  0
   14.1420   16.0850   20.0250 H   0  0  0  0  0  0  0  0  0  0  0  0
   13.8810   15.7220   21.7260 H   0  0  0  0  0  0  0  0  0  0  0  0
   11.6180   15.1970   19.8160 H   0  0  0  0  0  0  0  0  0  0  0  0
   12.9870   14.0890   19.7420 H   0  0  0  0  0  0  0  0  0  0  0  0
   12.2360   13.0780   21.6310 H   0  0  0  0  0  0  0  0  0  0  0  0
   12.4490   14.5760   22.4930 H   0  0  0  0  0  0  0  0  0  0  0  0
   11.7210   13.5030   24.3910 H   0  0  0  0  0  0  0  0  0  0  0  0
   11.5510   15.1970   23.9150 H   0  0  0  0  0  0  0  0  0  0  0  0
   10.4710   14.5670   25.1280 H   0  0  0  0  0  0  0  0  0  0  0  0
    8.0750   13.2670   24.9470 H   0  0  0  0  0  0  0  0  0  0  0  0
    6.3010   11.8420   25.2590 H   0  0  0  0  0  0  0  0  0  0  0  0
    6.5860   10.1300   25.5060 H   0  0  0  0  0  0  0  0  0  0  0  0
    7.1430   11.3070   26.6440 H   0  0  0  0  0  0  0  0  0  0  0  0
    8.2730    9.0450   24.2670 H   0  0  0  0  0  0  0  0  0  0  0  0
   10.8610    9.3750   21.6060 H   0  0  0  0  0  0  0  0  0  0  0  0
   10.9430    8.4580   23.1300 H   0  0  0  0  0  0  0  0  0  0  0  0
    9.5230    8.3380   22.0980 H   0  0  0  0  0  0  0  0  0  0  0  0
   10.9430   11.5720   22.1930 H   0  0  0  0  0  0  0  0  0  0  0  0
  1  2  1  0
  2  3  1  0
  3  4  1  0
  4  5  2  0
  4  6  1  0
  6  7  1  0
  6  8  1  0
  8  9  2  0
  9 10  1  0
 10 11  1  0
 10 12  2  0
 12 13  1  0
 13 14  1  0
 13 15  2  0
 15  8  1  0
  1 16  1  0
  1 17  1  0
  1 18  1  0
  2 19  1  0
  2 20  1  0
  3 21  1  0
  3 22  1  0
  7 23  1  0
  7 24  1  0
  7 25  1  0
  9 26  1  0
 11 27  1  0
 11 28  1  0
 11 29  1  0
 12 30  1  0
 14 31  1  0
 14 32  1  0
 14 33  1  0
 15 34  1  0
A    1
 C1 
A    2
 C2 
A    3
 C3 
A    4
 C4 
A    5
 O1 
A    6
 N1 
A    7
 C5 
A    8
 C6 
A    9
 C7 
A   10
 C8 
A   11
 C9 
A   12
 C10
A   13
 C11
A   14
 C12
A   15
 C13
A   16
 H1 
A   17
 H2 
A   18
 H3 
A   19
 H4 
A   20
 H5 
A   21
 H6 
A   22
 H7 
A   23
 H8 
A   24
 H9 
A   25
 H10
A   26
 H11
A   27
 H12
A   28
 H13
A   29
 H14
A   30
 H15
A   31
 H16
A   32
 H17
A   33
 H18
A   34
 H19
M  END
>  <ref_pdb>  (86) 
x0310_0A

>  <ref_mols>  (86) 
x0451_0A,x0739_0A

>  <original SMILES>  (86) 
CCCC(=O)N(C)c1cc(C)cc(C)c1

>  <rationale>  (86) 
info hbond:S87; hydroph_interaction:P107+V124+Y89+Y90+H21; 

>  <intxn_cluster>  (86) 
107

>  <intxn_cluster_rank>  (86) 
30

>  <N_interactions>  (86) 
6

>  <∆∆G>  (86) 
-14.320634

>  <$/mg>  (86) 
163.0

>  <comRMSD>  (86) 
0.723011

>  <N_rotatable_bonds>  (86) 
7

>  <N_analogues_07>  (86) 
0

>  <deep_P1_sidechain>  (86) 
True

>  <farthest_distance_to_substrate>  (86) 
2.396487

>  <hbond:SER:7>  (86) 
hbond:SER:7    0
hbond:SER:7    0
Name: 85, dtype: object

>  <halogenbond:SER:7>  (86) 
halogenbond:SER:7    0
halogenbond:SER:7    0
Name: 85, dtype: object

>  <hbond:GLY:8>  (86) 
hbond:GLY:8    0
hbond:GLY:8    0
Name: 85, dtype: object

>  <hydroph_interaction:ASN:19>  (86) 
hydroph_interaction:ASN:19    0
hydroph_interaction:ASN:19    0
Name: 85, dtype: object

>  <hbond:ASN:19>  (86) 
hbond:ASN:19    0
hbond:ASN:19    0
Name: 85, dtype: object

>  <halogenbond:ASN:19>  (86) 
halogenbond:ASN:19    0
halogenbond:ASN:19    0
Name: 85, dtype: object

>  <hbond:ARG:20>  (86) 
hbond:ARG:20    0
hbond:ARG:20    0
Name: 85, dtype: object

>  <hydroph_interaction:ARG:20>  (86) 
hydroph_interaction:ARG:20    0
hydroph_interaction:ARG:20    0
Name: 85, dtype: object

>  <saltbridge:ARG:20>  (86) 
saltbridge:ARG:20    0
saltbridge:ARG:20    0
Name: 85, dtype: object

>  <halogenbond:ARG:20>  (86) 
halogenbond:ARG:20    0
halogenbond:ARG:20    0
Name: 85, dtype: object

>  <pication:ARG:20>  (86) 
pication:ARG:20    0
pication:ARG:20    0
Name: 85, dtype: object

>  <hbond:HIS:21>  (86) 
hbond:HIS:21    0
hbond:HIS:21    0
Name: 85, dtype: object

>  <hydroph_interaction:HIS:21>  (86) 
hydroph_interaction:HIS:21    1
hydroph_interaction:HIS:21    1
Name: 85, dtype: object

>  <saltbridge:HIS:21>  (86) 
saltbridge:HIS:21    0
saltbridge:HIS:21    0
Name: 85, dtype: object

>  <pistack:HIS:21>  (86) 
pistack:HIS:21    0
pistack:HIS:21    0
Name: 85, dtype: object

>  <pication:HIS:21>  (86) 
pication:HIS:21    0
pication:HIS:21    0
Name: 85, dtype: object

>  <halogenbond:HIS:21>  (86) 
halogenbond:HIS:21    0
halogenbond:HIS:21    0
Name: 85, dtype: object

>  <hydroph_interaction:LEU:22>  (86) 
hydroph_interaction:LEU:22    0
hydroph_interaction:LEU:22    0
Name: 85, dtype: object

>  <hbond:LEU:22>  (86) 
hbond:LEU:22    0
hbond:LEU:22    0
Name: 85, dtype: object

>  <hydroph_interaction:TRP:28>  (86) 
hydroph_interaction:TRP:28    0
hydroph_interaction:TRP:28    0
Name: 85, dtype: object

>  <hbond:SER:36>  (86) 
hbond:SER:36    0
hbond:SER:36    0
Name: 85, dtype: object

>  <halogenbond:SER:36>  (86) 
halogenbond:SER:36    0
halogenbond:SER:36    0
Name: 85, dtype: object

>  <hbond:ARG:38>  (86) 
hbond:ARG:38    0
hbond:ARG:38    0
Name: 85, dtype: object

>  <halogenbond:ARG:38>  (86) 
halogenbond:ARG:38    0
halogenbond:ARG:38    0
Name: 85, dtype: object

>  <hbond:ASP:39>  (86) 
hbond:ASP:39    0
hbond:ASP:39    0
Name: 85, dtype: object

>  <saltbridge:ASP:39>  (86) 
saltbridge:ASP:39    0
saltbridge:ASP:39    0
Name: 85, dtype: object

>  <hydroph_interaction:ASP:39>  (86) 
hydroph_interaction:ASP:39    0
hydroph_interaction:ASP:39    0
Name: 85, dtype: object

>  <halogenbond:ASP:39>  (86) 
halogenbond:ASP:39    0
halogenbond:ASP:39    0
Name: 85, dtype: object

>  <hydroph_interaction:LEU:40>  (86) 
hydroph_interaction:LEU:40    0
hydroph_interaction:LEU:40    0
Name: 85, dtype: object

>  <hydroph_interaction:TYR:63>  (86) 
hydroph_interaction:TYR:63    0
hydroph_interaction:TYR:63    0
Name: 85, dtype: object

>  <pistack:TYR:63>  (86) 
pistack:TYR:63    0
pistack:TYR:63    0
Name: 85, dtype: object

>  <hbond:TYR:63>  (86) 
hbond:TYR:63    0
hbond:TYR:63    0
Name: 85, dtype: object

>  <hbond:TYR:64>  (86) 
hbond:TYR:64    0
hbond:TYR:64    0
Name: 85, dtype: object

>  <halogenbond:TYR:64>  (86) 
halogenbond:TYR:64    0
halogenbond:TYR:64    0
Name: 85, dtype: object

>  <hydroph_interaction:TYR:64>  (86) 
hydroph_interaction:TYR:64    0
hydroph_interaction:TYR:64    0
Name: 85, dtype: object

>  <hbond:CYS:65>  (86) 
hbond:CYS:65    0
hbond:CYS:65    0
Name: 85, dtype: object

>  <halogenbond:CYS:65>  (86) 
halogenbond:CYS:65    0
halogenbond:CYS:65    0
Name: 85, dtype: object

>  <hbond:SER:66>  (86) 
hbond:SER:66    0
hbond:SER:66    0
Name: 85, dtype: object

>  <hbond:SER:67>  (86) 
hbond:SER:67    0
hbond:SER:67    0
Name: 85, dtype: object

>  <halogenbond:SER:67>  (86) 
halogenbond:SER:67    0
halogenbond:SER:67    0
Name: 85, dtype: object

>  <hydroph_interaction:ARG:68>  (86) 
hydroph_interaction:ARG:68    0
hydroph_interaction:ARG:68    0
Name: 85, dtype: object

>  <hbond:ARG:68>  (86) 
hbond:ARG:68    0
hbond:ARG:68    0
Name: 85, dtype: object

>  <saltbridge:ARG:68>  (86) 
saltbridge:ARG:68    0
saltbridge:ARG:68    0
Name: 85, dtype: object

>  <pication:ARG:68>  (86) 
pication:ARG:68    0
pication:ARG:68    0
Name: 85, dtype: object

>  <hydroph_interaction:TYR:72>  (86) 
hydroph_interaction:TYR:72    0
hydroph_interaction:TYR:72    0
Name: 85, dtype: object

>  <hydroph_interaction:VAL:74>  (86) 
hydroph_interaction:VAL:74    0
hydroph_interaction:VAL:74    0
Name: 85, dtype: object

>  <hydroph_interaction:PHE:76>  (86) 
hydroph_interaction:PHE:76    0
hydroph_interaction:PHE:76    0
Name: 85, dtype: object

>  <hbond:SER:77>  (86) 
hbond:SER:77    0
hbond:SER:77    0
Name: 85, dtype: object

>  <hbond:SER:80>  (86) 
hbond:SER:80    0
hbond:SER:80    0
Name: 85, dtype: object

>  <hbond:LEU:81>  (86) 
hbond:LEU:81    0
hbond:LEU:81    0
Name: 85, dtype: object

>  <halogenbond:LEU:81>  (86) 
halogenbond:LEU:81    0
halogenbond:LEU:81    0
Name: 85, dtype: object

>  <hydroph_interaction:LEU:81>  (86) 
hydroph_interaction:LEU:81    0
hydroph_interaction:LEU:81    0
Name: 85, dtype: object

>  <hydroph_interaction:ILE:82>  (86) 
hydroph_interaction:ILE:82    0
hydroph_interaction:ILE:82    0
Name: 85, dtype: object

>  <hbond:ILE:82>  (86) 
hbond:ILE:82    0
hbond:ILE:82    0
Name: 85, dtype: object

>  <hydroph_interaction:PHE:83>  (86) 
hydroph_interaction:PHE:83    0
hydroph_interaction:PHE:83    0
Name: 85, dtype: object

>  <hbond:PHE:83>  (86) 
hbond:PHE:83    0
hbond:PHE:83    0
Name: 85, dtype: object

>  <halogenbond:PHE:83>  (86) 
halogenbond:PHE:83    0
halogenbond:PHE:83    0
Name: 85, dtype: object

>  <pistack:PHE:83>  (86) 
pistack:PHE:83    0
pistack:PHE:83    0
Name: 85, dtype: object

>  <hydroph_interaction:VAL:84>  (86) 
hydroph_interaction:VAL:84    0
hydroph_interaction:VAL:84    0
Name: 85, dtype: object

>  <hbond:VAL:84>  (86) 
hbond:VAL:84    0
hbond:VAL:84    0
Name: 85, dtype: object

>  <halogenbond:VAL:84>  (86) 
halogenbond:VAL:84    0
halogenbond:VAL:84    0
Name: 85, dtype: object

>  <hydroph_interaction:GLU:85>  (86) 
hydroph_interaction:GLU:85    0
hydroph_interaction:GLU:85    0
Name: 85, dtype: object

>  <hbond:GLU:85>  (86) 
hbond:GLU:85    0
hbond:GLU:85    0
Name: 85, dtype: object

>  <saltbridge:GLU:85>  (86) 
saltbridge:GLU:85    0
saltbridge:GLU:85    0
Name: 85, dtype: object

>  <halogenbond:GLU:85>  (86) 
halogenbond:GLU:85    0
halogenbond:GLU:85    0
Name: 85, dtype: object

>  <hbond:ALA:86>  (86) 
hbond:ALA:86    0
hbond:ALA:86    0
Name: 85, dtype: object

>  <halogenbond:ALA:86>  (86) 
halogenbond:ALA:86    0
halogenbond:ALA:86    0
Name: 85, dtype: object

>  <hydroph_interaction:ALA:86>  (86) 
hydroph_interaction:ALA:86    0
hydroph_interaction:ALA:86    0
Name: 85, dtype: object

>  <hbond:SER:87>  (86) 
hbond:SER:87    1
hbond:SER:87    1
Name: 85, dtype: object

>  <halogenbond:SER:87>  (86) 
halogenbond:SER:87    0
halogenbond:SER:87    0
Name: 85, dtype: object

>  <hbond:GLU:88>  (86) 
hbond:GLU:88    0
hbond:GLU:88    0
Name: 85, dtype: object

>  <hydroph_interaction:GLU:88>  (86) 
hydroph_interaction:GLU:88    0
hydroph_interaction:GLU:88    0
Name: 85, dtype: object

>  <halogenbond:GLU:88>  (86) 
halogenbond:GLU:88    0
halogenbond:GLU:88    0
Name: 85, dtype: object

>  <saltbridge:GLU:88>  (86) 
saltbridge:GLU:88    0
saltbridge:GLU:88    0
Name: 85, dtype: object

>  <hydroph_interaction:TYR:89>  (86) 
hydroph_interaction:TYR:89    1
hydroph_interaction:TYR:89    1
Name: 85, dtype: object

>  <pistack:TYR:89>  (86) 
pistack:TYR:89    0
pistack:TYR:89    0
Name: 85, dtype: object

>  <hbond:TYR:89>  (86) 
hbond:TYR:89    0
hbond:TYR:89    0
Name: 85, dtype: object

>  <halogenbond:TYR:89>  (86) 
halogenbond:TYR:89    0
halogenbond:TYR:89    0
Name: 85, dtype: object

>  <hbond:TYR:90>  (86) 
hbond:TYR:90    0
hbond:TYR:90    0
Name: 85, dtype: object

>  <hydroph_interaction:TYR:90>  (86) 
hydroph_interaction:TYR:90    1
hydroph_interaction:TYR:90    1
Name: 85, dtype: object

>  <pistack:TYR:90>  (86) 
pistack:TYR:90    0
pistack:TYR:90    0
Name: 85, dtype: object

>  <halogenbond:TYR:90>  (86) 
halogenbond:TYR:90    0
halogenbond:TYR:90    0
Name: 85, dtype: object

>  <pication:TYR:90>  (86) 
pication:TYR:90    0
pication:TYR:90    0
Name: 85, dtype: object

>  <hydroph_interaction:PRO:91>  (86) 
hydroph_interaction:PRO:91    0
hydroph_interaction:PRO:91    0
Name: 85, dtype: object

>  <halogenbond:PRO:91>  (86) 
halogenbond:PRO:91    0
halogenbond:PRO:91    0
Name: 85, dtype: object

>  <hbond:PRO:91>  (86) 
hbond:PRO:91    0
hbond:PRO:91    0
Name: 85, dtype: object

>  <hydroph_interaction:ALA:92>  (86) 
hydroph_interaction:ALA:92    0
hydroph_interaction:ALA:92    0
Name: 85, dtype: object

>  <hbond:ARG:93>  (86) 
hbond:ARG:93    0
hbond:ARG:93    0
Name: 85, dtype: object

>  <pication:ARG:93>  (86) 
pication:ARG:93    0
pication:ARG:93    0
Name: 85, dtype: object

>  <saltbridge:ARG:93>  (86) 
saltbridge:ARG:93    0
saltbridge:ARG:93    0
Name: 85, dtype: object

>  <hydroph_interaction:ARG:93>  (86) 
hydroph_interaction:ARG:93    0
hydroph_interaction:ARG:93    0
Name: 85, dtype: object

>  <halogenbond:ARG:93>  (86) 
halogenbond:ARG:93    0
halogenbond:ARG:93    0
Name: 85, dtype: object

>  <hydroph_interaction:TYR:94>  (86) 
hydroph_interaction:TYR:94    0
hydroph_interaction:TYR:94    0
Name: 85, dtype: object

>  <hbond:TYR:94>  (86) 
hbond:TYR:94    0
hbond:TYR:94    0
Name: 85, dtype: object

>  <halogenbond:GLN:95>  (86) 
halogenbond:GLN:95    0
halogenbond:GLN:95    0
Name: 85, dtype: object

>  <hbond:GLN:95>  (86) 
hbond:GLN:95    0
hbond:GLN:95    0
Name: 85, dtype: object

>  <hydroph_interaction:GLN:95>  (86) 
hydroph_interaction:GLN:95    0
hydroph_interaction:GLN:95    0
Name: 85, dtype: object

>  <hbond:SER:96>  (86) 
hbond:SER:96    0
hbond:SER:96    0
Name: 85, dtype: object

>  <hydroph_interaction:LEU:98>  (86) 
hydroph_interaction:LEU:98    0
hydroph_interaction:LEU:98    0
Name: 85, dtype: object

>  <hbond:LEU:98>  (86) 
hbond:LEU:98    0
hbond:LEU:98    0
Name: 85, dtype: object

>  <hbond:MET:99>  (86) 
hbond:MET:99    0
hbond:MET:99    0
Name: 85, dtype: object

>  <hydroph_interaction:MET:99>  (86) 
hydroph_interaction:MET:99    0
hydroph_interaction:MET:99    0
Name: 85, dtype: object

>  <halogenbond:MET:99>  (86) 
halogenbond:MET:99    0
halogenbond:MET:99    0
Name: 85, dtype: object

>  <hydroph_interaction:LEU:100>  (86) 
hydroph_interaction:LEU:100    0
hydroph_interaction:LEU:100    0
Name: 85, dtype: object

>  <hbond:LEU:100>  (86) 
hbond:LEU:100    0
hbond:LEU:100    0
Name: 85, dtype: object

>  <hbond:ALA:101>  (86) 
hbond:ALA:101    0
hbond:ALA:101    0
Name: 85, dtype: object

>  <hydroph_interaction:ALA:101>  (86) 
hydroph_interaction:ALA:101    0
hydroph_interaction:ALA:101    0
Name: 85, dtype: object

>  <hydroph_interaction:VAL:102>  (86) 
hydroph_interaction:VAL:102    0
hydroph_interaction:VAL:102    0
Name: 85, dtype: object

>  <hbond:VAL:102>  (86) 
hbond:VAL:102    0
hbond:VAL:102    0
Name: 85, dtype: object

>  <hbond:GLY:103>  (86) 
hbond:GLY:103    0
hbond:GLY:103    0
Name: 85, dtype: object

>  <halogenbond:GLY:103>  (86) 
halogenbond:GLY:103    0
halogenbond:GLY:103    0
Name: 85, dtype: object

>  <hydroph_interaction:HIS:104>  (86) 
hydroph_interaction:HIS:104    0
hydroph_interaction:HIS:104    0
Name: 85, dtype: object

>  <hbond:HIS:104>  (86) 
hbond:HIS:104    0
hbond:HIS:104    0
Name: 85, dtype: object

>  <saltbridge:HIS:104>  (86) 
saltbridge:HIS:104    0
saltbridge:HIS:104    0
Name: 85, dtype: object

>  <pication:HIS:104>  (86) 
pication:HIS:104    0
pication:HIS:104    0
Name: 85, dtype: object

>  <pistack:HIS:104>  (86) 
pistack:HIS:104    0
pistack:HIS:104    0
Name: 85, dtype: object

>  <halogenbond:HIS:104>  (86) 
halogenbond:HIS:104    0
halogenbond:HIS:104    0
Name: 85, dtype: object

>  <hbond:SER:105>  (86) 
hbond:SER:105    0
hbond:SER:105    0
Name: 85, dtype: object

>  <halogenbond:SER:105>  (86) 
halogenbond:SER:105    0
halogenbond:SER:105    0
Name: 85, dtype: object

>  <hbond:GLU:106>  (86) 
hbond:GLU:106    0
hbond:GLU:106    0
Name: 85, dtype: object

>  <hydroph_interaction:GLU:106>  (86) 
hydroph_interaction:GLU:106    0
hydroph_interaction:GLU:106    0
Name: 85, dtype: object

>  <saltbridge:GLU:106>  (86) 
saltbridge:GLU:106    0
saltbridge:GLU:106    0
Name: 85, dtype: object

>  <halogenbond:GLU:106>  (86) 
halogenbond:GLU:106    0
halogenbond:GLU:106    0
Name: 85, dtype: object

>  <hydroph_interaction:PRO:107>  (86) 
hydroph_interaction:PRO:107    1
hydroph_interaction:PRO:107    1
Name: 85, dtype: object

>  <hbond:PRO:107>  (86) 
hbond:PRO:107    0
hbond:PRO:107    0
Name: 85, dtype: object

>  <halogenbond:PRO:107>  (86) 
halogenbond:PRO:107    0
halogenbond:PRO:107    0
Name: 85, dtype: object

>  <hbond:GLY:108>  (86) 
hbond:GLY:108    0
hbond:GLY:108    0
Name: 85, dtype: object

>  <halogenbond:GLY:108>  (86) 
halogenbond:GLY:108    0
halogenbond:GLY:108    0
Name: 85, dtype: object

>  <hbond:ASP:109>  (86) 
hbond:ASP:109    0
hbond:ASP:109    0
Name: 85, dtype: object

>  <hydroph_interaction:ASP:109>  (86) 
hydroph_interaction:ASP:109    0
hydroph_interaction:ASP:109    0
Name: 85, dtype: object

>  <saltbridge:ASP:109>  (86) 
saltbridge:ASP:109    0
saltbridge:ASP:109    0
Name: 85, dtype: object

>  <hbond:CYS:110>  (86) 
hbond:CYS:110    0
hbond:CYS:110    0
Name: 85, dtype: object

>  <halogenbond:CYS:110>  (86) 
halogenbond:CYS:110    0
halogenbond:CYS:110    0
Name: 85, dtype: object

>  <hbond:GLY:111>  (86) 
hbond:GLY:111    0
hbond:GLY:111    0
Name: 85, dtype: object

>  <hbond:GLY:112>  (86) 
hbond:GLY:112    0
hbond:GLY:112    0
Name: 85, dtype: object

>  <hbond:ILE:113>  (86) 
hbond:ILE:113    0
hbond:ILE:113    0
Name: 85, dtype: object

>  <hydroph_interaction:LEU:114>  (86) 
hydroph_interaction:LEU:114    0
hydroph_interaction:LEU:114    0
Name: 85, dtype: object

>  <hbond:LEU:114>  (86) 
hbond:LEU:114    0
hbond:LEU:114    0
Name: 85, dtype: object

>  <hydroph_interaction:ILE:123>  (86) 
hydroph_interaction:ILE:123    0
hydroph_interaction:ILE:123    0
Name: 85, dtype: object

>  <hbond:ILE:123>  (86) 
hbond:ILE:123    0
hbond:ILE:123    0
Name: 85, dtype: object

>  <hydroph_interaction:VAL:124>  (86) 
hydroph_interaction:VAL:124    1
hydroph_interaction:VAL:124    1
Name: 85, dtype: object

>  <hbond:VAL:124>  (86) 
hbond:VAL:124    0
hbond:VAL:124    0
Name: 85, dtype: object

>  <halogenbond:VAL:124>  (86) 
halogenbond:VAL:124    0
halogenbond:VAL:124    0
Name: 85, dtype: object

>  <hbond:SER:125>  (86) 
hbond:SER:125    0
hbond:SER:125    0
Name: 85, dtype: object

>  <halogenbond:SER:125>  (86) 
halogenbond:SER:125    0
halogenbond:SER:125    0
Name: 85, dtype: object

>  <hydroph_interaction:THR:126>  (86) 
hydroph_interaction:THR:126    0
hydroph_interaction:THR:126    0
Name: 85, dtype: object

>  <hbond:THR:126>  (86) 
hbond:THR:126    0
hbond:THR:126    0
Name: 85, dtype: object

>  <halogenbond:THR:126>  (86) 
halogenbond:THR:126    0
halogenbond:THR:126    0
Name: 85, dtype: object

>  <hbond:GLY:127>  (86) 
hbond:GLY:127    0
hbond:GLY:127    0
Name: 85, dtype: object

>  <halogenbond:GLY:127>  (86) 
halogenbond:GLY:127    0
halogenbond:GLY:127    0
Name: 85, dtype: object

>  <hydroph_interaction:GLY:127>  (86) 
hydroph_interaction:GLY:127    0
hydroph_interaction:GLY:127    0
Name: 85, dtype: object

>  <hbond:GLY:128>  (86) 
hbond:GLY:128    0
hbond:GLY:128    0
Name: 85, dtype: object

>  <halogenbond:GLY:128>  (86) 
halogenbond:GLY:128    0
halogenbond:GLY:128    0
Name: 85, dtype: object

>  <hydroph_interaction:GLY:128>  (86) 
hydroph_interaction:GLY:128    0
hydroph_interaction:GLY:128    0
Name: 85, dtype: object

>  <hbond:ASN:129>  (86) 
hbond:ASN:129    0
hbond:ASN:129    0
Name: 85, dtype: object

>  <hydroph_interaction:ASN:129>  (86) 
hydroph_interaction:ASN:129    0
hydroph_interaction:ASN:129    0
Name: 85, dtype: object

>  <halogenbond:ASN:129>  (86) 
halogenbond:ASN:129    0
halogenbond:ASN:129    0
Name: 85, dtype: object

>  <hbond:GLY:130>  (86) 
hbond:GLY:130    0
hbond:GLY:130    0
Name: 85, dtype: object

>  <hydroph_interaction:LEU:131>  (86) 
hydroph_interaction:LEU:131    0
hydroph_interaction:LEU:131    0
Name: 85, dtype: object

>  <hbond:LEU:131>  (86) 
hbond:LEU:131    0
hbond:LEU:131    0
Name: 85, dtype: object

>  <halogenbond:LEU:131>  (86) 
halogenbond:LEU:131    0
halogenbond:LEU:131    0
Name: 85, dtype: object

>  <hydroph_interaction:VAL:132>  (86) 
hydroph_interaction:VAL:132    0
hydroph_interaction:VAL:132    0
Name: 85, dtype: object

>  <hbond:VAL:132>  (86) 
hbond:VAL:132    0
hbond:VAL:132    0
Name: 85, dtype: object

>  <hbond:GLY:133>  (86) 
hbond:GLY:133    0
hbond:GLY:133    0
Name: 85, dtype: object

>  <halogenbond:GLY:133>  (86) 
halogenbond:GLY:133    0
halogenbond:GLY:133    0
Name: 85, dtype: object

>  <hydroph_interaction:PHE:134>  (86) 
hydroph_interaction:PHE:134    0
hydroph_interaction:PHE:134    0
Name: 85, dtype: object

>  <hbond:PHE:134>  (86) 
hbond:PHE:134    0
hbond:PHE:134    0
Name: 85, dtype: object

>  <pistack:PHE:134>  (86) 
pistack:PHE:134    0
pistack:PHE:134    0
Name: 85, dtype: object

>  <pication:PHE:134>  (86) 
pication:PHE:134    0
pication:PHE:134    0
Name: 85, dtype: object

>  <hydroph_interaction:ALA:135>  (86) 
hydroph_interaction:ALA:135    0
hydroph_interaction:ALA:135    0
Name: 85, dtype: object

>  <hbond:ALA:135>  (86) 
hbond:ALA:135    0
hbond:ALA:135    0
Name: 85, dtype: object

$$$$
PV_002561511361
     RDKit          3D

 25 24  0  0  0  0  0  0  0  0999 V2000
    4.0340   13.1140   17.3940 C   0  0  0  0  0  0  0  0  0  0  0  0
    3.1870   11.9080   17.5970 C   0  0  0  0  0  0  0  0  0  0  0  0
    3.7070   11.0000   18.6190 C   0  0  0  0  0  0  0  0  0  0  0  0
    4.0290   10.2540   19.4310 N   0  0  0  0  0  0  0  0  0  0  0  0
    1.8020   12.2980   17.9870 C   0  0  0  0  0  0  0  0  0  0  0  0
    0.8900   12.4260   17.1770 O   0  0  0  0  0  0  0  0  0  0  0  0
    1.6570   12.4790   19.3310 N   0  0  0  0  0  0  0  0  0  0  0  0
    0.8350   13.5340   19.9100 C   0  0  0  0  0  0  0  0  0  0  0  0
    0.4020   14.5740   18.8620 C   0  0  0  0  0  0  0  0  0  0  0  0
   -0.4190   12.8500   20.4700 C   0  0  0  0  0  0  0  0  0  0  0  0
    1.6020   14.2100   21.0470 C   0  0  0  0  0  0  0  0  0  0  0  0
    3.8970   13.5440   16.4100 H   0  0  0  0  0  0  0  0  0  0  0  0
    3.7290   13.8370   18.1300 H   0  0  0  0  0  0  0  0  0  0  0  0
    5.0940   12.9110   17.5260 H   0  0  0  0  0  0  0  0  0  0  0  0
    3.0740   11.4360   16.6520 H   0  0  0  0  0  0  0  0  0  0  0  0
    2.3620   12.0770   19.9420 H   0  0  0  0  0  0  0  0  0  0  0  0
    0.4400   14.1840   17.8410 H   0  0  0  0  0  0  0  0  0  0  0  0
   -0.6240   14.9150   19.0440 H   0  0  0  0  0  0  0  0  0  0  0  0
    1.0540   15.4500   18.8960 H   0  0  0  0  0  0  0  0  0  0  0  0
   -1.0270   12.4110   19.6760 H   0  0  0  0  0  0  0  0  0  0  0  0
   -1.0510   13.5640   21.0060 H   0  0  0  0  0  0  0  0  0  0  0  0
   -0.1460   12.0550   21.1720 H   0  0  0  0  0  0  0  0  0  0  0  0
    1.0490   15.0640   21.4410 H   0  0  0  0  0  0  0  0  0  0  0  0
    2.5760   14.5660   20.6940 H   0  0  0  0  0  0  0  0  0  0  0  0
    1.7850   13.5280   21.8860 H   0  0  0  0  0  0  0  0  0  0  0  0
  1  2  1  0
  2  3  1  0
  3  4  3  0
  2  5  1  0
  5  6  2  0
  5  7  1  0
  7  8  1  0
  8  9  1  0
  8 10  1  0
  8 11  1  0
  1 12  1  0
  1 13  1  0
  1 14  1  0
  2 15  1  0
  7 16  1  0
  9 17  1  0
  9 18  1  0
  9 19  1  0
 10 20  1  0
 10 21  1  0
 10 22  1  0
 11 23  1  0
 11 24  1  0
 11 25  1  0
A    1
 C1 
A    2
 C2 
A    3
 C3 
A    4
 N1 
A    5
 C4 
A    6
 O1 
A    7
 N2 
A    8
 C5 
A    9
 C6 
A   10
 C7 
A   11
 C8 
A   12
 H1 
A   13
 H2 
A   14
 H3 
A   15
 H4 
A   16
 H5 
A   17
 H6 
A   18
 H7 
A   19
 H8 
A   20
 H9 
A   21
 H10
A   22
 H11
A   23
 H12
A   24
 H13
A   25
 H14
M  END
>  <ref_pdb>  (87) 
x0310_0A

>  <ref_mols>  (87) 
x0473_0A,x1097_0A

>  <original SMILES>  (87) 
CC(C#N)C(=O)NC(C)(C)C

>  <rationale>  (87) 
info hydroph_interaction:V84+E85+I82+L100+L98; 

>  <intxn_cluster>  (87) 
206

>  <intxn_cluster_rank>  (87) 
30

>  <N_interactions>  (87) 
5

>  <∆∆G>  (87) 
-6.792089

>  <$/mg>  (87) 
244.5

>  <comRMSD>  (87) 
0.75646

>  <N_rotatable_bonds>  (87) 
2

>  <N_analogues_07>  (87) 
0

>  <deep_P1_sidechain>  (87) 
False

>  <farthest_distance_to_substrate>  (87) 
4.007891

>  <hbond:SER:7>  (87) 
hbond:SER:7    0
hbond:SER:7    0
Name: 86, dtype: object

>  <halogenbond:SER:7>  (87) 
halogenbond:SER:7    0
halogenbond:SER:7    0
Name: 86, dtype: object

>  <hbond:GLY:8>  (87) 
hbond:GLY:8    0
hbond:GLY:8    0
Name: 86, dtype: object

>  <hydroph_interaction:ASN:19>  (87) 
hydroph_interaction:ASN:19    0
hydroph_interaction:ASN:19    0
Name: 86, dtype: object

>  <hbond:ASN:19>  (87) 
hbond:ASN:19    0
hbond:ASN:19    0
Name: 86, dtype: object

>  <halogenbond:ASN:19>  (87) 
halogenbond:ASN:19    0
halogenbond:ASN:19    0
Name: 86, dtype: object

>  <hbond:ARG:20>  (87) 
hbond:ARG:20    0
hbond:ARG:20    0
Name: 86, dtype: object

>  <hydroph_interaction:ARG:20>  (87) 
hydroph_interaction:ARG:20    0
hydroph_interaction:ARG:20    0
Name: 86, dtype: object

>  <saltbridge:ARG:20>  (87) 
saltbridge:ARG:20    0
saltbridge:ARG:20    0
Name: 86, dtype: object

>  <halogenbond:ARG:20>  (87) 
halogenbond:ARG:20    0
halogenbond:ARG:20    0
Name: 86, dtype: object

>  <pication:ARG:20>  (87) 
pication:ARG:20    0
pication:ARG:20    0
Name: 86, dtype: object

>  <hbond:HIS:21>  (87) 
hbond:HIS:21    0
hbond:HIS:21    0
Name: 86, dtype: object

>  <hydroph_interaction:HIS:21>  (87) 
hydroph_interaction:HIS:21    0
hydroph_interaction:HIS:21    0
Name: 86, dtype: object

>  <saltbridge:HIS:21>  (87) 
saltbridge:HIS:21    0
saltbridge:HIS:21    0
Name: 86, dtype: object

>  <pistack:HIS:21>  (87) 
pistack:HIS:21    0
pistack:HIS:21    0
Name: 86, dtype: object

>  <pication:HIS:21>  (87) 
pication:HIS:21    0
pication:HIS:21    0
Name: 86, dtype: object

>  <halogenbond:HIS:21>  (87) 
halogenbond:HIS:21    0
halogenbond:HIS:21    0
Name: 86, dtype: object

>  <hydroph_interaction:LEU:22>  (87) 
hydroph_interaction:LEU:22    0
hydroph_interaction:LEU:22    0
Name: 86, dtype: object

>  <hbond:LEU:22>  (87) 
hbond:LEU:22    0
hbond:LEU:22    0
Name: 86, dtype: object

>  <hydroph_interaction:TRP:28>  (87) 
hydroph_interaction:TRP:28    0
hydroph_interaction:TRP:28    0
Name: 86, dtype: object

>  <hbond:SER:36>  (87) 
hbond:SER:36    0
hbond:SER:36    0
Name: 86, dtype: object

>  <halogenbond:SER:36>  (87) 
halogenbond:SER:36    0
halogenbond:SER:36    0
Name: 86, dtype: object

>  <hbond:ARG:38>  (87) 
hbond:ARG:38    0
hbond:ARG:38    0
Name: 86, dtype: object

>  <halogenbond:ARG:38>  (87) 
halogenbond:ARG:38    0
halogenbond:ARG:38    0
Name: 86, dtype: object

>  <hbond:ASP:39>  (87) 
hbond:ASP:39    0
hbond:ASP:39    0
Name: 86, dtype: object

>  <saltbridge:ASP:39>  (87) 
saltbridge:ASP:39    0
saltbridge:ASP:39    0
Name: 86, dtype: object

>  <hydroph_interaction:ASP:39>  (87) 
hydroph_interaction:ASP:39    0
hydroph_interaction:ASP:39    0
Name: 86, dtype: object

>  <halogenbond:ASP:39>  (87) 
halogenbond:ASP:39    0
halogenbond:ASP:39    0
Name: 86, dtype: object

>  <hydroph_interaction:LEU:40>  (87) 
hydroph_interaction:LEU:40    0
hydroph_interaction:LEU:40    0
Name: 86, dtype: object

>  <hydroph_interaction:TYR:63>  (87) 
hydroph_interaction:TYR:63    0
hydroph_interaction:TYR:63    0
Name: 86, dtype: object

>  <pistack:TYR:63>  (87) 
pistack:TYR:63    0
pistack:TYR:63    0
Name: 86, dtype: object

>  <hbond:TYR:63>  (87) 
hbond:TYR:63    0
hbond:TYR:63    0
Name: 86, dtype: object

>  <hbond:TYR:64>  (87) 
hbond:TYR:64    0
hbond:TYR:64    0
Name: 86, dtype: object

>  <halogenbond:TYR:64>  (87) 
halogenbond:TYR:64    0
halogenbond:TYR:64    0
Name: 86, dtype: object

>  <hydroph_interaction:TYR:64>  (87) 
hydroph_interaction:TYR:64    0
hydroph_interaction:TYR:64    0
Name: 86, dtype: object

>  <hbond:CYS:65>  (87) 
hbond:CYS:65    0
hbond:CYS:65    0
Name: 86, dtype: object

>  <halogenbond:CYS:65>  (87) 
halogenbond:CYS:65    0
halogenbond:CYS:65    0
Name: 86, dtype: object

>  <hbond:SER:66>  (87) 
hbond:SER:66    0
hbond:SER:66    0
Name: 86, dtype: object

>  <hbond:SER:67>  (87) 
hbond:SER:67    0
hbond:SER:67    0
Name: 86, dtype: object

>  <halogenbond:SER:67>  (87) 
halogenbond:SER:67    0
halogenbond:SER:67    0
Name: 86, dtype: object

>  <hydroph_interaction:ARG:68>  (87) 
hydroph_interaction:ARG:68    0
hydroph_interaction:ARG:68    0
Name: 86, dtype: object

>  <hbond:ARG:68>  (87) 
hbond:ARG:68    0
hbond:ARG:68    0
Name: 86, dtype: object

>  <saltbridge:ARG:68>  (87) 
saltbridge:ARG:68    0
saltbridge:ARG:68    0
Name: 86, dtype: object

>  <pication:ARG:68>  (87) 
pication:ARG:68    0
pication:ARG:68    0
Name: 86, dtype: object

>  <hydroph_interaction:TYR:72>  (87) 
hydroph_interaction:TYR:72    0
hydroph_interaction:TYR:72    0
Name: 86, dtype: object

>  <hydroph_interaction:VAL:74>  (87) 
hydroph_interaction:VAL:74    0
hydroph_interaction:VAL:74    0
Name: 86, dtype: object

>  <hydroph_interaction:PHE:76>  (87) 
hydroph_interaction:PHE:76    0
hydroph_interaction:PHE:76    0
Name: 86, dtype: object

>  <hbond:SER:77>  (87) 
hbond:SER:77    0
hbond:SER:77    0
Name: 86, dtype: object

>  <hbond:SER:80>  (87) 
hbond:SER:80    0
hbond:SER:80    0
Name: 86, dtype: object

>  <hbond:LEU:81>  (87) 
hbond:LEU:81    0
hbond:LEU:81    0
Name: 86, dtype: object

>  <halogenbond:LEU:81>  (87) 
halogenbond:LEU:81    0
halogenbond:LEU:81    0
Name: 86, dtype: object

>  <hydroph_interaction:LEU:81>  (87) 
hydroph_interaction:LEU:81    0
hydroph_interaction:LEU:81    0
Name: 86, dtype: object

>  <hydroph_interaction:ILE:82>  (87) 
hydroph_interaction:ILE:82    1
hydroph_interaction:ILE:82    1
Name: 86, dtype: object

>  <hbond:ILE:82>  (87) 
hbond:ILE:82    0
hbond:ILE:82    0
Name: 86, dtype: object

>  <hydroph_interaction:PHE:83>  (87) 
hydroph_interaction:PHE:83    0
hydroph_interaction:PHE:83    0
Name: 86, dtype: object

>  <hbond:PHE:83>  (87) 
hbond:PHE:83    0
hbond:PHE:83    0
Name: 86, dtype: object

>  <halogenbond:PHE:83>  (87) 
halogenbond:PHE:83    0
halogenbond:PHE:83    0
Name: 86, dtype: object

>  <pistack:PHE:83>  (87) 
pistack:PHE:83    0
pistack:PHE:83    0
Name: 86, dtype: object

>  <hydroph_interaction:VAL:84>  (87) 
hydroph_interaction:VAL:84    1
hydroph_interaction:VAL:84    1
Name: 86, dtype: object

>  <hbond:VAL:84>  (87) 
hbond:VAL:84    0
hbond:VAL:84    0
Name: 86, dtype: object

>  <halogenbond:VAL:84>  (87) 
halogenbond:VAL:84    0
halogenbond:VAL:84    0
Name: 86, dtype: object

>  <hydroph_interaction:GLU:85>  (87) 
hydroph_interaction:GLU:85    1
hydroph_interaction:GLU:85    1
Name: 86, dtype: object

>  <hbond:GLU:85>  (87) 
hbond:GLU:85    0
hbond:GLU:85    0
Name: 86, dtype: object

>  <saltbridge:GLU:85>  (87) 
saltbridge:GLU:85    0
saltbridge:GLU:85    0
Name: 86, dtype: object

>  <halogenbond:GLU:85>  (87) 
halogenbond:GLU:85    0
halogenbond:GLU:85    0
Name: 86, dtype: object

>  <hbond:ALA:86>  (87) 
hbond:ALA:86    0
hbond:ALA:86    0
Name: 86, dtype: object

>  <halogenbond:ALA:86>  (87) 
halogenbond:ALA:86    0
halogenbond:ALA:86    0
Name: 86, dtype: object

>  <hydroph_interaction:ALA:86>  (87) 
hydroph_interaction:ALA:86    0
hydroph_interaction:ALA:86    0
Name: 86, dtype: object

>  <hbond:SER:87>  (87) 
hbond:SER:87    0
hbond:SER:87    0
Name: 86, dtype: object

>  <halogenbond:SER:87>  (87) 
halogenbond:SER:87    0
halogenbond:SER:87    0
Name: 86, dtype: object

>  <hbond:GLU:88>  (87) 
hbond:GLU:88    0
hbond:GLU:88    0
Name: 86, dtype: object

>  <hydroph_interaction:GLU:88>  (87) 
hydroph_interaction:GLU:88    0
hydroph_interaction:GLU:88    0
Name: 86, dtype: object

>  <halogenbond:GLU:88>  (87) 
halogenbond:GLU:88    0
halogenbond:GLU:88    0
Name: 86, dtype: object

>  <saltbridge:GLU:88>  (87) 
saltbridge:GLU:88    0
saltbridge:GLU:88    0
Name: 86, dtype: object

>  <hydroph_interaction:TYR:89>  (87) 
hydroph_interaction:TYR:89    0
hydroph_interaction:TYR:89    0
Name: 86, dtype: object

>  <pistack:TYR:89>  (87) 
pistack:TYR:89    0
pistack:TYR:89    0
Name: 86, dtype: object

>  <hbond:TYR:89>  (87) 
hbond:TYR:89    0
hbond:TYR:89    0
Name: 86, dtype: object

>  <halogenbond:TYR:89>  (87) 
halogenbond:TYR:89    0
halogenbond:TYR:89    0
Name: 86, dtype: object

>  <hbond:TYR:90>  (87) 
hbond:TYR:90    0
hbond:TYR:90    0
Name: 86, dtype: object

>  <hydroph_interaction:TYR:90>  (87) 
hydroph_interaction:TYR:90    0
hydroph_interaction:TYR:90    0
Name: 86, dtype: object

>  <pistack:TYR:90>  (87) 
pistack:TYR:90    0
pistack:TYR:90    0
Name: 86, dtype: object

>  <halogenbond:TYR:90>  (87) 
halogenbond:TYR:90    0
halogenbond:TYR:90    0
Name: 86, dtype: object

>  <pication:TYR:90>  (87) 
pication:TYR:90    0
pication:TYR:90    0
Name: 86, dtype: object

>  <hydroph_interaction:PRO:91>  (87) 
hydroph_interaction:PRO:91    0
hydroph_interaction:PRO:91    0
Name: 86, dtype: object

>  <halogenbond:PRO:91>  (87) 
halogenbond:PRO:91    0
halogenbond:PRO:91    0
Name: 86, dtype: object

>  <hbond:PRO:91>  (87) 
hbond:PRO:91    0
hbond:PRO:91    0
Name: 86, dtype: object

>  <hydroph_interaction:ALA:92>  (87) 
hydroph_interaction:ALA:92    0
hydroph_interaction:ALA:92    0
Name: 86, dtype: object

>  <hbond:ARG:93>  (87) 
hbond:ARG:93    0
hbond:ARG:93    0
Name: 86, dtype: object

>  <pication:ARG:93>  (87) 
pication:ARG:93    0
pication:ARG:93    0
Name: 86, dtype: object

>  <saltbridge:ARG:93>  (87) 
saltbridge:ARG:93    0
saltbridge:ARG:93    0
Name: 86, dtype: object

>  <hydroph_interaction:ARG:93>  (87) 
hydroph_interaction:ARG:93    0
hydroph_interaction:ARG:93    0
Name: 86, dtype: object

>  <halogenbond:ARG:93>  (87) 
halogenbond:ARG:93    0
halogenbond:ARG:93    0
Name: 86, dtype: object

>  <hydroph_interaction:TYR:94>  (87) 
hydroph_interaction:TYR:94    0
hydroph_interaction:TYR:94    0
Name: 86, dtype: object

>  <hbond:TYR:94>  (87) 
hbond:TYR:94    0
hbond:TYR:94    0
Name: 86, dtype: object

>  <halogenbond:GLN:95>  (87) 
halogenbond:GLN:95    0
halogenbond:GLN:95    0
Name: 86, dtype: object

>  <hbond:GLN:95>  (87) 
hbond:GLN:95    0
hbond:GLN:95    0
Name: 86, dtype: object

>  <hydroph_interaction:GLN:95>  (87) 
hydroph_interaction:GLN:95    0
hydroph_interaction:GLN:95    0
Name: 86, dtype: object

>  <hbond:SER:96>  (87) 
hbond:SER:96    0
hbond:SER:96    0
Name: 86, dtype: object

>  <hydroph_interaction:LEU:98>  (87) 
hydroph_interaction:LEU:98    1
hydroph_interaction:LEU:98    1
Name: 86, dtype: object

>  <hbond:LEU:98>  (87) 
hbond:LEU:98    0
hbond:LEU:98    0
Name: 86, dtype: object

>  <hbond:MET:99>  (87) 
hbond:MET:99    0
hbond:MET:99    0
Name: 86, dtype: object

>  <hydroph_interaction:MET:99>  (87) 
hydroph_interaction:MET:99    0
hydroph_interaction:MET:99    0
Name: 86, dtype: object

>  <halogenbond:MET:99>  (87) 
halogenbond:MET:99    0
halogenbond:MET:99    0
Name: 86, dtype: object

>  <hydroph_interaction:LEU:100>  (87) 
hydroph_interaction:LEU:100    1
hydroph_interaction:LEU:100    1
Name: 86, dtype: object

>  <hbond:LEU:100>  (87) 
hbond:LEU:100    0
hbond:LEU:100    0
Name: 86, dtype: object

>  <hbond:ALA:101>  (87) 
hbond:ALA:101    0
hbond:ALA:101    0
Name: 86, dtype: object

>  <hydroph_interaction:ALA:101>  (87) 
hydroph_interaction:ALA:101    0
hydroph_interaction:ALA:101    0
Name: 86, dtype: object

>  <hydroph_interaction:VAL:102>  (87) 
hydroph_interaction:VAL:102    0
hydroph_interaction:VAL:102    0
Name: 86, dtype: object

>  <hbond:VAL:102>  (87) 
hbond:VAL:102    0
hbond:VAL:102    0
Name: 86, dtype: object

>  <hbond:GLY:103>  (87) 
hbond:GLY:103    0
hbond:GLY:103    0
Name: 86, dtype: object

>  <halogenbond:GLY:103>  (87) 
halogenbond:GLY:103    0
halogenbond:GLY:103    0
Name: 86, dtype: object

>  <hydroph_interaction:HIS:104>  (87) 
hydroph_interaction:HIS:104    0
hydroph_interaction:HIS:104    0
Name: 86, dtype: object

>  <hbond:HIS:104>  (87) 
hbond:HIS:104    0
hbond:HIS:104    0
Name: 86, dtype: object

>  <saltbridge:HIS:104>  (87) 
saltbridge:HIS:104    0
saltbridge:HIS:104    0
Name: 86, dtype: object

>  <pication:HIS:104>  (87) 
pication:HIS:104    0
pication:HIS:104    0
Name: 86, dtype: object

>  <pistack:HIS:104>  (87) 
pistack:HIS:104    0
pistack:HIS:104    0
Name: 86, dtype: object

>  <halogenbond:HIS:104>  (87) 
halogenbond:HIS:104    0
halogenbond:HIS:104    0
Name: 86, dtype: object

>  <hbond:SER:105>  (87) 
hbond:SER:105    0
hbond:SER:105    0
Name: 86, dtype: object

>  <halogenbond:SER:105>  (87) 
halogenbond:SER:105    0
halogenbond:SER:105    0
Name: 86, dtype: object

>  <hbond:GLU:106>  (87) 
hbond:GLU:106    0
hbond:GLU:106    0
Name: 86, dtype: object

>  <hydroph_interaction:GLU:106>  (87) 
hydroph_interaction:GLU:106    0
hydroph_interaction:GLU:106    0
Name: 86, dtype: object

>  <saltbridge:GLU:106>  (87) 
saltbridge:GLU:106    0
saltbridge:GLU:106    0
Name: 86, dtype: object

>  <halogenbond:GLU:106>  (87) 
halogenbond:GLU:106    0
halogenbond:GLU:106    0
Name: 86, dtype: object

>  <hydroph_interaction:PRO:107>  (87) 
hydroph_interaction:PRO:107    0
hydroph_interaction:PRO:107    0
Name: 86, dtype: object

>  <hbond:PRO:107>  (87) 
hbond:PRO:107    0
hbond:PRO:107    0
Name: 86, dtype: object

>  <halogenbond:PRO:107>  (87) 
halogenbond:PRO:107    0
halogenbond:PRO:107    0
Name: 86, dtype: object

>  <hbond:GLY:108>  (87) 
hbond:GLY:108    0
hbond:GLY:108    0
Name: 86, dtype: object

>  <halogenbond:GLY:108>  (87) 
halogenbond:GLY:108    0
halogenbond:GLY:108    0
Name: 86, dtype: object

>  <hbond:ASP:109>  (87) 
hbond:ASP:109    0
hbond:ASP:109    0
Name: 86, dtype: object

>  <hydroph_interaction:ASP:109>  (87) 
hydroph_interaction:ASP:109    0
hydroph_interaction:ASP:109    0
Name: 86, dtype: object

>  <saltbridge:ASP:109>  (87) 
saltbridge:ASP:109    0
saltbridge:ASP:109    0
Name: 86, dtype: object

>  <hbond:CYS:110>  (87) 
hbond:CYS:110    0
hbond:CYS:110    0
Name: 86, dtype: object

>  <halogenbond:CYS:110>  (87) 
halogenbond:CYS:110    0
halogenbond:CYS:110    0
Name: 86, dtype: object

>  <hbond:GLY:111>  (87) 
hbond:GLY:111    0
hbond:GLY:111    0
Name: 86, dtype: object

>  <hbond:GLY:112>  (87) 
hbond:GLY:112    0
hbond:GLY:112    0
Name: 86, dtype: object

>  <hbond:ILE:113>  (87) 
hbond:ILE:113    0
hbond:ILE:113    0
Name: 86, dtype: object

>  <hydroph_interaction:LEU:114>  (87) 
hydroph_interaction:LEU:114    0
hydroph_interaction:LEU:114    0
Name: 86, dtype: object

>  <hbond:LEU:114>  (87) 
hbond:LEU:114    0
hbond:LEU:114    0
Name: 86, dtype: object

>  <hydroph_interaction:ILE:123>  (87) 
hydroph_interaction:ILE:123    0
hydroph_interaction:ILE:123    0
Name: 86, dtype: object

>  <hbond:ILE:123>  (87) 
hbond:ILE:123    0
hbond:ILE:123    0
Name: 86, dtype: object

>  <hydroph_interaction:VAL:124>  (87) 
hydroph_interaction:VAL:124    0
hydroph_interaction:VAL:124    0
Name: 86, dtype: object

>  <hbond:VAL:124>  (87) 
hbond:VAL:124    0
hbond:VAL:124    0
Name: 86, dtype: object

>  <halogenbond:VAL:124>  (87) 
halogenbond:VAL:124    0
halogenbond:VAL:124    0
Name: 86, dtype: object

>  <hbond:SER:125>  (87) 
hbond:SER:125    0
hbond:SER:125    0
Name: 86, dtype: object

>  <halogenbond:SER:125>  (87) 
halogenbond:SER:125    0
halogenbond:SER:125    0
Name: 86, dtype: object

>  <hydroph_interaction:THR:126>  (87) 
hydroph_interaction:THR:126    0
hydroph_interaction:THR:126    0
Name: 86, dtype: object

>  <hbond:THR:126>  (87) 
hbond:THR:126    0
hbond:THR:126    0
Name: 86, dtype: object

>  <halogenbond:THR:126>  (87) 
halogenbond:THR:126    0
halogenbond:THR:126    0
Name: 86, dtype: object

>  <hbond:GLY:127>  (87) 
hbond:GLY:127    0
hbond:GLY:127    0
Name: 86, dtype: object

>  <halogenbond:GLY:127>  (87) 
halogenbond:GLY:127    0
halogenbond:GLY:127    0
Name: 86, dtype: object

>  <hydroph_interaction:GLY:127>  (87) 
hydroph_interaction:GLY:127    0
hydroph_interaction:GLY:127    0
Name: 86, dtype: object

>  <hbond:GLY:128>  (87) 
hbond:GLY:128    0
hbond:GLY:128    0
Name: 86, dtype: object

>  <halogenbond:GLY:128>  (87) 
halogenbond:GLY:128    0
halogenbond:GLY:128    0
Name: 86, dtype: object

>  <hydroph_interaction:GLY:128>  (87) 
hydroph_interaction:GLY:128    0
hydroph_interaction:GLY:128    0
Name: 86, dtype: object

>  <hbond:ASN:129>  (87) 
hbond:ASN:129    0
hbond:ASN:129    0
Name: 86, dtype: object

>  <hydroph_interaction:ASN:129>  (87) 
hydroph_interaction:ASN:129    0
hydroph_interaction:ASN:129    0
Name: 86, dtype: object

>  <halogenbond:ASN:129>  (87) 
halogenbond:ASN:129    0
halogenbond:ASN:129    0
Name: 86, dtype: object

>  <hbond:GLY:130>  (87) 
hbond:GLY:130    0
hbond:GLY:130    0
Name: 86, dtype: object

>  <hydroph_interaction:LEU:131>  (87) 
hydroph_interaction:LEU:131    0
hydroph_interaction:LEU:131    0
Name: 86, dtype: object

>  <hbond:LEU:131>  (87) 
hbond:LEU:131    0
hbond:LEU:131    0
Name: 86, dtype: object

>  <halogenbond:LEU:131>  (87) 
halogenbond:LEU:131    0
halogenbond:LEU:131    0
Name: 86, dtype: object

>  <hydroph_interaction:VAL:132>  (87) 
hydroph_interaction:VAL:132    0
hydroph_interaction:VAL:132    0
Name: 86, dtype: object

>  <hbond:VAL:132>  (87) 
hbond:VAL:132    0
hbond:VAL:132    0
Name: 86, dtype: object

>  <hbond:GLY:133>  (87) 
hbond:GLY:133    0
hbond:GLY:133    0
Name: 86, dtype: object

>  <halogenbond:GLY:133>  (87) 
halogenbond:GLY:133    0
halogenbond:GLY:133    0
Name: 86, dtype: object

>  <hydroph_interaction:PHE:134>  (87) 
hydroph_interaction:PHE:134    0
hydroph_interaction:PHE:134    0
Name: 86, dtype: object

>  <hbond:PHE:134>  (87) 
hbond:PHE:134    0
hbond:PHE:134    0
Name: 86, dtype: object

>  <pistack:PHE:134>  (87) 
pistack:PHE:134    0
pistack:PHE:134    0
Name: 86, dtype: object

>  <pication:PHE:134>  (87) 
pication:PHE:134    0
pication:PHE:134    0
Name: 86, dtype: object

>  <hydroph_interaction:ALA:135>  (87) 
hydroph_interaction:ALA:135    0
hydroph_interaction:ALA:135    0
Name: 86, dtype: object

>  <hbond:ALA:135>  (87) 
hbond:ALA:135    0
hbond:ALA:135    0
Name: 86, dtype: object

$$$$
Z4203483828
     RDKit          3D

 41 41  0  0  0  0  0  0  0  0999 V2000
   12.8520   14.3750   20.3080 C   0  0  0  0  0  0  0  0  0  0  0  0
   12.1600   14.5480   21.6480 C   0  0  0  0  0  0  0  0  0  0  0  0
   10.7670   14.0980   21.7110 N   0  0  0  0  0  0  0  0  0  0  0  0
   10.2240   14.0380   23.0690 C   0  0  0  0  0  0  0  0  0  0  0  0
    9.7010   12.7250   23.4540 C   0  0  0  0  0  0  0  0  0  0  0  0
    8.5410   12.5460   24.4490 C   0  0  0  0  0  0  0  0  0  0  0  0
    7.9580   11.2260   24.8800 C   0  0  0  0  0  0  0  0  0  0  0  0
    8.5800   10.0330   24.2710 C   0  0  0  0  0  0  0  0  0  0  0  0
    9.7140   10.2780   23.3030 C   0  0  0  0  0  0  0  0  0  0  0  0
   10.2300    8.9760   22.7750 C   0  0  0  0  0  0  0  0  0  0  0  0
    9.4090    8.3770   21.9080 N   0  0  0  0  0  0  0  0  0  0  0  0
   11.3020    8.4820   23.0680 O   0  0  0  0  0  0  0  0  0  0  0  0
   10.2030   11.5060   22.9470 C   0  0  0  0  0  0  0  0  0  0  0  0
    9.8080   14.4770   20.7720 C   0  0  0  0  0  0  0  0  0  0  0  0
    8.3990   14.6090   21.3080 C   0  0  0  0  0  0  0  0  0  0  0  0
   10.3070   15.6840   19.9780 C   0  0  0  0  0  0  0  0  0  0  0  0
    9.2260   16.6480   19.5120 C   0  0  0  0  0  0  0  0  0  0  0  0
    9.2270   16.8560   18.0560 N   0  0  0  0  0  0  0  0  0  0  0  0
   13.1950   13.3490   20.1600 H   0  0  0  0  0  0  0  0  0  0  0  0
   12.1600   14.6050   19.4990 H   0  0  0  0  0  0  0  0  0  0  0  0
   13.7200   15.0280   20.2460 H   0  0  0  0  0  0  0  0  0  0  0  0
   12.7460   13.9870   22.3820 H   0  0  0  0  0  0  0  0  0  0  0  0
   12.2100   15.6070   21.9250 H   0  0  0  0  0  0  0  0  0  0  0  0
    9.4020   14.7200   23.1700 H   0  0  0  0  0  0  0  0  0  0  0  0
   10.9820   14.3210   23.8140 H   0  0  0  0  0  0  0  0  0  0  0  0
    8.1100   13.4560   24.8750 H   0  0  0  0  0  0  0  0  0  0  0  0
    7.1310   11.2420   25.5970 H   0  0  0  0  0  0  0  0  0  0  0  0
    8.2330    9.0470   24.5120 H   0  0  0  0  0  0  0  0  0  0  0  0
    8.4540    8.2110   22.2460 H   0  0  0  0  0  0  0  0  0  0  0  0
    9.4930    8.5580   20.9150 H   0  0  0  0  0  0  0  0  0  0  0  0
   11.0220   11.5500   22.2350 H   0  0  0  0  0  0  0  0  0  0  0  0
    9.7850   13.7490   19.9830 H   0  0  0  0  0  0  0  0  0  0  0  0
    7.7600   13.7970   20.9840 H   0  0  0  0  0  0  0  0  0  0  0  0
    8.3940   14.6380   22.3980 H   0  0  0  0  0  0  0  0  0  0  0  0
    7.9320   15.5350   20.9790 H   0  0  0  0  0  0  0  0  0  0  0  0
   10.8750   15.3530   19.1040 H   0  0  0  0  0  0  0  0  0  0  0  0
   11.0020   16.2000   20.6360 H   0  0  0  0  0  0  0  0  0  0  0  0
    9.3480   17.6120   19.9680 H   0  0  0  0  0  0  0  0  0  0  0  0
    8.2730   16.3140   19.8600 H   0  0  0  0  0  0  0  0  0  0  0  0
    9.3120   15.9800   17.5300 H   0  0  0  0  0  0  0  0  0  0  0  0
   10.0270   17.4320   17.7930 H   0  0  0  0  0  0  0  0  0  0  0  0
  1  2  1  0
  2  3  1  0
  3  4  1  0
  4  5  1  0
  5  6  2  0
  6  7  1  0
  7  8  2  0
  8  9  1  0
  9 10  1  0
 10 11  1  0
 10 12  2  0
  9 13  2  0
  3 14  1  0
 14 15  1  0
 14 16  1  0
 16 17  1  0
 17 18  1  0
 13  5  1  0
  1 19  1  0
  1 20  1  0
  1 21  1  0
  2 22  1  0
  2 23  1  0
  4 24  1  0
  4 25  1  0
  6 26  1  0
  7 27  1  0
  8 28  1  0
 11 29  1  0
 11 30  1  0
 13 31  1  0
 14 32  1  0
 15 33  1  0
 15 34  1  0
 15 35  1  0
 16 36  1  0
 16 37  1  0
 17 38  1  0
 17 39  1  0
 18 40  1  0
 18 41  1  0
A    1
 C1 
A    2
 C2 
A    3
 N1 
A    4
 C3 
A    5
 C4 
A    6
 C5 
A    7
 C6 
A    8
 C7 
A    9
 C8 
A   10
 C9 
A   11
 N2 
A   12
 O1 
A   13
 C10
A   14
 C11
A   15
 C12
A   16
 C13
A   17
 C14
A   18
 N3 
A   19
 H1 
A   20
 H2 
A   21
 H3 
A   22
 H4 
A   23
 H5 
A   24
 H6 
A   25
 H7 
A   26
 H8 
A   27
 H9 
A   28
 H10
A   29
 H11
A   30
 H12
A   31
 H13
A   32
 H14
A   33
 H15
A   34
 H16
A   35
 H17
A   36
 H18
A   37
 H19
A   38
 H20
A   39
 H21
A   40
 H22
A   41
 H23
M  END
>  <ref_pdb>  (88) 
x0310_0A

>  <ref_mols>  (88) 
x0554_0A,x0451_0A

>  <original SMILES>  (88) 
CCN(Cc1cccc(C(N)=O)c1)C(C)CCN

>  <rationale>  (88) 
info hbond:D109+S105+S87+T126+R93+Q95; hydroph_interaction:P107+Y90+V84; 

>  <intxn_cluster>  (88) 
103

>  <intxn_cluster_rank>  (88) 
30

>  <N_interactions>  (88) 
10

>  <∆∆G>  (88) 
-6.897487

>  <$/mg>  (88) 
nan

>  <comRMSD>  (88) 
0.690423

>  <N_rotatable_bonds>  (88) 
10

>  <N_analogues_07>  (88) 
2

>  <deep_P1_sidechain>  (88) 
True

>  <farthest_distance_to_substrate>  (88) 
3.458905

>  <hbond:SER:7>  (88) 
hbond:SER:7    0
hbond:SER:7    0
Name: 87, dtype: object

>  <halogenbond:SER:7>  (88) 
halogenbond:SER:7    0
halogenbond:SER:7    0
Name: 87, dtype: object

>  <hbond:GLY:8>  (88) 
hbond:GLY:8    0
hbond:GLY:8    0
Name: 87, dtype: object

>  <hydroph_interaction:ASN:19>  (88) 
hydroph_interaction:ASN:19    0
hydroph_interaction:ASN:19    0
Name: 87, dtype: object

>  <hbond:ASN:19>  (88) 
hbond:ASN:19    0
hbond:ASN:19    0
Name: 87, dtype: object

>  <halogenbond:ASN:19>  (88) 
halogenbond:ASN:19    0
halogenbond:ASN:19    0
Name: 87, dtype: object

>  <hbond:ARG:20>  (88) 
hbond:ARG:20    0
hbond:ARG:20    0
Name: 87, dtype: object

>  <hydroph_interaction:ARG:20>  (88) 
hydroph_interaction:ARG:20    0
hydroph_interaction:ARG:20    0
Name: 87, dtype: object

>  <saltbridge:ARG:20>  (88) 
saltbridge:ARG:20    0
saltbridge:ARG:20    0
Name: 87, dtype: object

>  <halogenbond:ARG:20>  (88) 
halogenbond:ARG:20    0
halogenbond:ARG:20    0
Name: 87, dtype: object

>  <pication:ARG:20>  (88) 
pication:ARG:20    0
pication:ARG:20    0
Name: 87, dtype: object

>  <hbond:HIS:21>  (88) 
hbond:HIS:21    0
hbond:HIS:21    0
Name: 87, dtype: object

>  <hydroph_interaction:HIS:21>  (88) 
hydroph_interaction:HIS:21    0
hydroph_interaction:HIS:21    0
Name: 87, dtype: object

>  <saltbridge:HIS:21>  (88) 
saltbridge:HIS:21    0
saltbridge:HIS:21    0
Name: 87, dtype: object

>  <pistack:HIS:21>  (88) 
pistack:HIS:21    0
pistack:HIS:21    0
Name: 87, dtype: object

>  <pication:HIS:21>  (88) 
pication:HIS:21    0
pication:HIS:21    0
Name: 87, dtype: object

>  <halogenbond:HIS:21>  (88) 
halogenbond:HIS:21    0
halogenbond:HIS:21    0
Name: 87, dtype: object

>  <hydroph_interaction:LEU:22>  (88) 
hydroph_interaction:LEU:22    0
hydroph_interaction:LEU:22    0
Name: 87, dtype: object

>  <hbond:LEU:22>  (88) 
hbond:LEU:22    0
hbond:LEU:22    0
Name: 87, dtype: object

>  <hydroph_interaction:TRP:28>  (88) 
hydroph_interaction:TRP:28    0
hydroph_interaction:TRP:28    0
Name: 87, dtype: object

>  <hbond:SER:36>  (88) 
hbond:SER:36    0
hbond:SER:36    0
Name: 87, dtype: object

>  <halogenbond:SER:36>  (88) 
halogenbond:SER:36    0
halogenbond:SER:36    0
Name: 87, dtype: object

>  <hbond:ARG:38>  (88) 
hbond:ARG:38    0
hbond:ARG:38    0
Name: 87, dtype: object

>  <halogenbond:ARG:38>  (88) 
halogenbond:ARG:38    0
halogenbond:ARG:38    0
Name: 87, dtype: object

>  <hbond:ASP:39>  (88) 
hbond:ASP:39    0
hbond:ASP:39    0
Name: 87, dtype: object

>  <saltbridge:ASP:39>  (88) 
saltbridge:ASP:39    0
saltbridge:ASP:39    0
Name: 87, dtype: object

>  <hydroph_interaction:ASP:39>  (88) 
hydroph_interaction:ASP:39    0
hydroph_interaction:ASP:39    0
Name: 87, dtype: object

>  <halogenbond:ASP:39>  (88) 
halogenbond:ASP:39    0
halogenbond:ASP:39    0
Name: 87, dtype: object

>  <hydroph_interaction:LEU:40>  (88) 
hydroph_interaction:LEU:40    0
hydroph_interaction:LEU:40    0
Name: 87, dtype: object

>  <hydroph_interaction:TYR:63>  (88) 
hydroph_interaction:TYR:63    0
hydroph_interaction:TYR:63    0
Name: 87, dtype: object

>  <pistack:TYR:63>  (88) 
pistack:TYR:63    0
pistack:TYR:63    0
Name: 87, dtype: object

>  <hbond:TYR:63>  (88) 
hbond:TYR:63    0
hbond:TYR:63    0
Name: 87, dtype: object

>  <hbond:TYR:64>  (88) 
hbond:TYR:64    0
hbond:TYR:64    0
Name: 87, dtype: object

>  <halogenbond:TYR:64>  (88) 
halogenbond:TYR:64    0
halogenbond:TYR:64    0
Name: 87, dtype: object

>  <hydroph_interaction:TYR:64>  (88) 
hydroph_interaction:TYR:64    0
hydroph_interaction:TYR:64    0
Name: 87, dtype: object

>  <hbond:CYS:65>  (88) 
hbond:CYS:65    0
hbond:CYS:65    0
Name: 87, dtype: object

>  <halogenbond:CYS:65>  (88) 
halogenbond:CYS:65    0
halogenbond:CYS:65    0
Name: 87, dtype: object

>  <hbond:SER:66>  (88) 
hbond:SER:66    0
hbond:SER:66    0
Name: 87, dtype: object

>  <hbond:SER:67>  (88) 
hbond:SER:67    0
hbond:SER:67    0
Name: 87, dtype: object

>  <halogenbond:SER:67>  (88) 
halogenbond:SER:67    0
halogenbond:SER:67    0
Name: 87, dtype: object

>  <hydroph_interaction:ARG:68>  (88) 
hydroph_interaction:ARG:68    0
hydroph_interaction:ARG:68    0
Name: 87, dtype: object

>  <hbond:ARG:68>  (88) 
hbond:ARG:68    0
hbond:ARG:68    0
Name: 87, dtype: object

>  <saltbridge:ARG:68>  (88) 
saltbridge:ARG:68    0
saltbridge:ARG:68    0
Name: 87, dtype: object

>  <pication:ARG:68>  (88) 
pication:ARG:68    0
pication:ARG:68    0
Name: 87, dtype: object

>  <hydroph_interaction:TYR:72>  (88) 
hydroph_interaction:TYR:72    0
hydroph_interaction:TYR:72    0
Name: 87, dtype: object

>  <hydroph_interaction:VAL:74>  (88) 
hydroph_interaction:VAL:74    0
hydroph_interaction:VAL:74    0
Name: 87, dtype: object

>  <hydroph_interaction:PHE:76>  (88) 
hydroph_interaction:PHE:76    0
hydroph_interaction:PHE:76    0
Name: 87, dtype: object

>  <hbond:SER:77>  (88) 
hbond:SER:77    0
hbond:SER:77    0
Name: 87, dtype: object

>  <hbond:SER:80>  (88) 
hbond:SER:80    0
hbond:SER:80    0
Name: 87, dtype: object

>  <hbond:LEU:81>  (88) 
hbond:LEU:81    0
hbond:LEU:81    0
Name: 87, dtype: object

>  <halogenbond:LEU:81>  (88) 
halogenbond:LEU:81    0
halogenbond:LEU:81    0
Name: 87, dtype: object

>  <hydroph_interaction:LEU:81>  (88) 
hydroph_interaction:LEU:81    0
hydroph_interaction:LEU:81    0
Name: 87, dtype: object

>  <hydroph_interaction:ILE:82>  (88) 
hydroph_interaction:ILE:82    0
hydroph_interaction:ILE:82    0
Name: 87, dtype: object

>  <hbond:ILE:82>  (88) 
hbond:ILE:82    0
hbond:ILE:82    0
Name: 87, dtype: object

>  <hydroph_interaction:PHE:83>  (88) 
hydroph_interaction:PHE:83    0
hydroph_interaction:PHE:83    0
Name: 87, dtype: object

>  <hbond:PHE:83>  (88) 
hbond:PHE:83    0
hbond:PHE:83    0
Name: 87, dtype: object

>  <halogenbond:PHE:83>  (88) 
halogenbond:PHE:83    0
halogenbond:PHE:83    0
Name: 87, dtype: object

>  <pistack:PHE:83>  (88) 
pistack:PHE:83    0
pistack:PHE:83    0
Name: 87, dtype: object

>  <hydroph_interaction:VAL:84>  (88) 
hydroph_interaction:VAL:84    1
hydroph_interaction:VAL:84    1
Name: 87, dtype: object

>  <hbond:VAL:84>  (88) 
hbond:VAL:84    0
hbond:VAL:84    0
Name: 87, dtype: object

>  <halogenbond:VAL:84>  (88) 
halogenbond:VAL:84    0
halogenbond:VAL:84    0
Name: 87, dtype: object

>  <hydroph_interaction:GLU:85>  (88) 
hydroph_interaction:GLU:85    0
hydroph_interaction:GLU:85    0
Name: 87, dtype: object

>  <hbond:GLU:85>  (88) 
hbond:GLU:85    0
hbond:GLU:85    0
Name: 87, dtype: object

>  <saltbridge:GLU:85>  (88) 
saltbridge:GLU:85    0
saltbridge:GLU:85    0
Name: 87, dtype: object

>  <halogenbond:GLU:85>  (88) 
halogenbond:GLU:85    0
halogenbond:GLU:85    0
Name: 87, dtype: object

>  <hbond:ALA:86>  (88) 
hbond:ALA:86    0
hbond:ALA:86    0
Name: 87, dtype: object

>  <halogenbond:ALA:86>  (88) 
halogenbond:ALA:86    0
halogenbond:ALA:86    0
Name: 87, dtype: object

>  <hydroph_interaction:ALA:86>  (88) 
hydroph_interaction:ALA:86    0
hydroph_interaction:ALA:86    0
Name: 87, dtype: object

>  <hbond:SER:87>  (88) 
hbond:SER:87    1
hbond:SER:87    1
Name: 87, dtype: object

>  <halogenbond:SER:87>  (88) 
halogenbond:SER:87    0
halogenbond:SER:87    0
Name: 87, dtype: object

>  <hbond:GLU:88>  (88) 
hbond:GLU:88    0
hbond:GLU:88    0
Name: 87, dtype: object

>  <hydroph_interaction:GLU:88>  (88) 
hydroph_interaction:GLU:88    0
hydroph_interaction:GLU:88    0
Name: 87, dtype: object

>  <halogenbond:GLU:88>  (88) 
halogenbond:GLU:88    0
halogenbond:GLU:88    0
Name: 87, dtype: object

>  <saltbridge:GLU:88>  (88) 
saltbridge:GLU:88    0
saltbridge:GLU:88    0
Name: 87, dtype: object

>  <hydroph_interaction:TYR:89>  (88) 
hydroph_interaction:TYR:89    0
hydroph_interaction:TYR:89    0
Name: 87, dtype: object

>  <pistack:TYR:89>  (88) 
pistack:TYR:89    0
pistack:TYR:89    0
Name: 87, dtype: object

>  <hbond:TYR:89>  (88) 
hbond:TYR:89    0
hbond:TYR:89    0
Name: 87, dtype: object

>  <halogenbond:TYR:89>  (88) 
halogenbond:TYR:89    0
halogenbond:TYR:89    0
Name: 87, dtype: object

>  <hbond:TYR:90>  (88) 
hbond:TYR:90    0
hbond:TYR:90    0
Name: 87, dtype: object

>  <hydroph_interaction:TYR:90>  (88) 
hydroph_interaction:TYR:90    2
hydroph_interaction:TYR:90    2
Name: 87, dtype: object

>  <pistack:TYR:90>  (88) 
pistack:TYR:90    0
pistack:TYR:90    0
Name: 87, dtype: object

>  <halogenbond:TYR:90>  (88) 
halogenbond:TYR:90    0
halogenbond:TYR:90    0
Name: 87, dtype: object

>  <pication:TYR:90>  (88) 
pication:TYR:90    0
pication:TYR:90    0
Name: 87, dtype: object

>  <hydroph_interaction:PRO:91>  (88) 
hydroph_interaction:PRO:91    0
hydroph_interaction:PRO:91    0
Name: 87, dtype: object

>  <halogenbond:PRO:91>  (88) 
halogenbond:PRO:91    0
halogenbond:PRO:91    0
Name: 87, dtype: object

>  <hbond:PRO:91>  (88) 
hbond:PRO:91    0
hbond:PRO:91    0
Name: 87, dtype: object

>  <hydroph_interaction:ALA:92>  (88) 
hydroph_interaction:ALA:92    0
hydroph_interaction:ALA:92    0
Name: 87, dtype: object

>  <hbond:ARG:93>  (88) 
hbond:ARG:93    1
hbond:ARG:93    1
Name: 87, dtype: object

>  <pication:ARG:93>  (88) 
pication:ARG:93    0
pication:ARG:93    0
Name: 87, dtype: object

>  <saltbridge:ARG:93>  (88) 
saltbridge:ARG:93    0
saltbridge:ARG:93    0
Name: 87, dtype: object

>  <hydroph_interaction:ARG:93>  (88) 
hydroph_interaction:ARG:93    0
hydroph_interaction:ARG:93    0
Name: 87, dtype: object

>  <halogenbond:ARG:93>  (88) 
halogenbond:ARG:93    0
halogenbond:ARG:93    0
Name: 87, dtype: object

>  <hydroph_interaction:TYR:94>  (88) 
hydroph_interaction:TYR:94    0
hydroph_interaction:TYR:94    0
Name: 87, dtype: object

>  <hbond:TYR:94>  (88) 
hbond:TYR:94    0
hbond:TYR:94    0
Name: 87, dtype: object

>  <halogenbond:GLN:95>  (88) 
halogenbond:GLN:95    0
halogenbond:GLN:95    0
Name: 87, dtype: object

>  <hbond:GLN:95>  (88) 
hbond:GLN:95    1
hbond:GLN:95    1
Name: 87, dtype: object

>  <hydroph_interaction:GLN:95>  (88) 
hydroph_interaction:GLN:95    0
hydroph_interaction:GLN:95    0
Name: 87, dtype: object

>  <hbond:SER:96>  (88) 
hbond:SER:96    0
hbond:SER:96    0
Name: 87, dtype: object

>  <hydroph_interaction:LEU:98>  (88) 
hydroph_interaction:LEU:98    0
hydroph_interaction:LEU:98    0
Name: 87, dtype: object

>  <hbond:LEU:98>  (88) 
hbond:LEU:98    0
hbond:LEU:98    0
Name: 87, dtype: object

>  <hbond:MET:99>  (88) 
hbond:MET:99    0
hbond:MET:99    0
Name: 87, dtype: object

>  <hydroph_interaction:MET:99>  (88) 
hydroph_interaction:MET:99    0
hydroph_interaction:MET:99    0
Name: 87, dtype: object

>  <halogenbond:MET:99>  (88) 
halogenbond:MET:99    0
halogenbond:MET:99    0
Name: 87, dtype: object

>  <hydroph_interaction:LEU:100>  (88) 
hydroph_interaction:LEU:100    0
hydroph_interaction:LEU:100    0
Name: 87, dtype: object

>  <hbond:LEU:100>  (88) 
hbond:LEU:100    0
hbond:LEU:100    0
Name: 87, dtype: object

>  <hbond:ALA:101>  (88) 
hbond:ALA:101    0
hbond:ALA:101    0
Name: 87, dtype: object

>  <hydroph_interaction:ALA:101>  (88) 
hydroph_interaction:ALA:101    0
hydroph_interaction:ALA:101    0
Name: 87, dtype: object

>  <hydroph_interaction:VAL:102>  (88) 
hydroph_interaction:VAL:102    0
hydroph_interaction:VAL:102    0
Name: 87, dtype: object

>  <hbond:VAL:102>  (88) 
hbond:VAL:102    0
hbond:VAL:102    0
Name: 87, dtype: object

>  <hbond:GLY:103>  (88) 
hbond:GLY:103    0
hbond:GLY:103    0
Name: 87, dtype: object

>  <halogenbond:GLY:103>  (88) 
halogenbond:GLY:103    0
halogenbond:GLY:103    0
Name: 87, dtype: object

>  <hydroph_interaction:HIS:104>  (88) 
hydroph_interaction:HIS:104    0
hydroph_interaction:HIS:104    0
Name: 87, dtype: object

>  <hbond:HIS:104>  (88) 
hbond:HIS:104    0
hbond:HIS:104    0
Name: 87, dtype: object

>  <saltbridge:HIS:104>  (88) 
saltbridge:HIS:104    0
saltbridge:HIS:104    0
Name: 87, dtype: object

>  <pication:HIS:104>  (88) 
pication:HIS:104    0
pication:HIS:104    0
Name: 87, dtype: object

>  <pistack:HIS:104>  (88) 
pistack:HIS:104    0
pistack:HIS:104    0
Name: 87, dtype: object

>  <halogenbond:HIS:104>  (88) 
halogenbond:HIS:104    0
halogenbond:HIS:104    0
Name: 87, dtype: object

>  <hbond:SER:105>  (88) 
hbond:SER:105    1
hbond:SER:105    1
Name: 87, dtype: object

>  <halogenbond:SER:105>  (88) 
halogenbond:SER:105    0
halogenbond:SER:105    0
Name: 87, dtype: object

>  <hbond:GLU:106>  (88) 
hbond:GLU:106    0
hbond:GLU:106    0
Name: 87, dtype: object

>  <hydroph_interaction:GLU:106>  (88) 
hydroph_interaction:GLU:106    0
hydroph_interaction:GLU:106    0
Name: 87, dtype: object

>  <saltbridge:GLU:106>  (88) 
saltbridge:GLU:106    0
saltbridge:GLU:106    0
Name: 87, dtype: object

>  <halogenbond:GLU:106>  (88) 
halogenbond:GLU:106    0
halogenbond:GLU:106    0
Name: 87, dtype: object

>  <hydroph_interaction:PRO:107>  (88) 
hydroph_interaction:PRO:107    1
hydroph_interaction:PRO:107    1
Name: 87, dtype: object

>  <hbond:PRO:107>  (88) 
hbond:PRO:107    0
hbond:PRO:107    0
Name: 87, dtype: object

>  <halogenbond:PRO:107>  (88) 
halogenbond:PRO:107    0
halogenbond:PRO:107    0
Name: 87, dtype: object

>  <hbond:GLY:108>  (88) 
hbond:GLY:108    0
hbond:GLY:108    0
Name: 87, dtype: object

>  <halogenbond:GLY:108>  (88) 
halogenbond:GLY:108    0
halogenbond:GLY:108    0
Name: 87, dtype: object

>  <hbond:ASP:109>  (88) 
hbond:ASP:109    1
hbond:ASP:109    1
Name: 87, dtype: object

>  <hydroph_interaction:ASP:109>  (88) 
hydroph_interaction:ASP:109    0
hydroph_interaction:ASP:109    0
Name: 87, dtype: object

>  <saltbridge:ASP:109>  (88) 
saltbridge:ASP:109    0
saltbridge:ASP:109    0
Name: 87, dtype: object

>  <hbond:CYS:110>  (88) 
hbond:CYS:110    0
hbond:CYS:110    0
Name: 87, dtype: object

>  <halogenbond:CYS:110>  (88) 
halogenbond:CYS:110    0
halogenbond:CYS:110    0
Name: 87, dtype: object

>  <hbond:GLY:111>  (88) 
hbond:GLY:111    0
hbond:GLY:111    0
Name: 87, dtype: object

>  <hbond:GLY:112>  (88) 
hbond:GLY:112    0
hbond:GLY:112    0
Name: 87, dtype: object

>  <hbond:ILE:113>  (88) 
hbond:ILE:113    0
hbond:ILE:113    0
Name: 87, dtype: object

>  <hydroph_interaction:LEU:114>  (88) 
hydroph_interaction:LEU:114    0
hydroph_interaction:LEU:114    0
Name: 87, dtype: object

>  <hbond:LEU:114>  (88) 
hbond:LEU:114    0
hbond:LEU:114    0
Name: 87, dtype: object

>  <hydroph_interaction:ILE:123>  (88) 
hydroph_interaction:ILE:123    0
hydroph_interaction:ILE:123    0
Name: 87, dtype: object

>  <hbond:ILE:123>  (88) 
hbond:ILE:123    0
hbond:ILE:123    0
Name: 87, dtype: object

>  <hydroph_interaction:VAL:124>  (88) 
hydroph_interaction:VAL:124    0
hydroph_interaction:VAL:124    0
Name: 87, dtype: object

>  <hbond:VAL:124>  (88) 
hbond:VAL:124    0
hbond:VAL:124    0
Name: 87, dtype: object

>  <halogenbond:VAL:124>  (88) 
halogenbond:VAL:124    0
halogenbond:VAL:124    0
Name: 87, dtype: object

>  <hbond:SER:125>  (88) 
hbond:SER:125    0
hbond:SER:125    0
Name: 87, dtype: object

>  <halogenbond:SER:125>  (88) 
halogenbond:SER:125    0
halogenbond:SER:125    0
Name: 87, dtype: object

>  <hydroph_interaction:THR:126>  (88) 
hydroph_interaction:THR:126    0
hydroph_interaction:THR:126    0
Name: 87, dtype: object

>  <hbond:THR:126>  (88) 
hbond:THR:126    1
hbond:THR:126    1
Name: 87, dtype: object

>  <halogenbond:THR:126>  (88) 
halogenbond:THR:126    0
halogenbond:THR:126    0
Name: 87, dtype: object

>  <hbond:GLY:127>  (88) 
hbond:GLY:127    0
hbond:GLY:127    0
Name: 87, dtype: object

>  <halogenbond:GLY:127>  (88) 
halogenbond:GLY:127    0
halogenbond:GLY:127    0
Name: 87, dtype: object

>  <hydroph_interaction:GLY:127>  (88) 
hydroph_interaction:GLY:127    0
hydroph_interaction:GLY:127    0
Name: 87, dtype: object

>  <hbond:GLY:128>  (88) 
hbond:GLY:128    0
hbond:GLY:128    0
Name: 87, dtype: object

>  <halogenbond:GLY:128>  (88) 
halogenbond:GLY:128    0
halogenbond:GLY:128    0
Name: 87, dtype: object

>  <hydroph_interaction:GLY:128>  (88) 
hydroph_interaction:GLY:128    0
hydroph_interaction:GLY:128    0
Name: 87, dtype: object

>  <hbond:ASN:129>  (88) 
hbond:ASN:129    0
hbond:ASN:129    0
Name: 87, dtype: object

>  <hydroph_interaction:ASN:129>  (88) 
hydroph_interaction:ASN:129    0
hydroph_interaction:ASN:129    0
Name: 87, dtype: object

>  <halogenbond:ASN:129>  (88) 
halogenbond:ASN:129    0
halogenbond:ASN:129    0
Name: 87, dtype: object

>  <hbond:GLY:130>  (88) 
hbond:GLY:130    0
hbond:GLY:130    0
Name: 87, dtype: object

>  <hydroph_interaction:LEU:131>  (88) 
hydroph_interaction:LEU:131    0
hydroph_interaction:LEU:131    0
Name: 87, dtype: object

>  <hbond:LEU:131>  (88) 
hbond:LEU:131    0
hbond:LEU:131    0
Name: 87, dtype: object

>  <halogenbond:LEU:131>  (88) 
halogenbond:LEU:131    0
halogenbond:LEU:131    0
Name: 87, dtype: object

>  <hydroph_interaction:VAL:132>  (88) 
hydroph_interaction:VAL:132    0
hydroph_interaction:VAL:132    0
Name: 87, dtype: object

>  <hbond:VAL:132>  (88) 
hbond:VAL:132    0
hbond:VAL:132    0
Name: 87, dtype: object

>  <hbond:GLY:133>  (88) 
hbond:GLY:133    0
hbond:GLY:133    0
Name: 87, dtype: object

>  <halogenbond:GLY:133>  (88) 
halogenbond:GLY:133    0
halogenbond:GLY:133    0
Name: 87, dtype: object

>  <hydroph_interaction:PHE:134>  (88) 
hydroph_interaction:PHE:134    0
hydroph_interaction:PHE:134    0
Name: 87, dtype: object

>  <hbond:PHE:134>  (88) 
hbond:PHE:134    0
hbond:PHE:134    0
Name: 87, dtype: object

>  <pistack:PHE:134>  (88) 
pistack:PHE:134    0
pistack:PHE:134    0
Name: 87, dtype: object

>  <pication:PHE:134>  (88) 
pication:PHE:134    0
pication:PHE:134    0
Name: 87, dtype: object

>  <hydroph_interaction:ALA:135>  (88) 
hydroph_interaction:ALA:135    0
hydroph_interaction:ALA:135    0
Name: 87, dtype: object

>  <hbond:ALA:135>  (88) 
hbond:ALA:135    0
hbond:ALA:135    0
Name: 87, dtype: object

$$$$
PV_004774847878
     RDKit          3D

 31 32  0  0  0  0  0  0  0  0999 V2000
    9.8650    9.0210   22.7480 C   0  0  0  0  0  0  0  0  0  0  0  0
    9.6190   10.3510   23.1980 N   0  0  0  0  0  0  0  0  0  0  0  0
   10.2330   11.4420   22.7870 C   0  0  0  0  0  0  0  0  0  0  0  0
    9.6820   12.5830   23.4710 C   0  0  0  0  0  0  0  0  0  0  0  0
   10.1380   13.8570   23.2190 C   0  0  0  0  0  0  0  0  0  0  0  0
   11.0940   14.0360   22.1240 N   0  0  0  0  0  0  0  0  0  0  0  0
   12.2680   14.7120   22.3060 C   0  0  0  0  0  0  0  0  0  0  0  0
   12.6520   15.7900   21.5820 N   0  0  0  0  0  0  0  0  0  0  0  0
   12.9180   14.1030   23.3550 N   0  0  0  0  0  0  0  0  0  0  0  0
   14.2600   14.0920   23.8110 C   0  0  0  0  0  0  0  0  0  0  0  0
   15.1640   15.1240   23.6380 C   0  0  0  0  0  0  0  0  0  0  0  0
   16.4570   15.0130   24.1350 C   0  0  0  0  0  0  0  0  0  0  0  0
   16.7450   13.8440   24.7740 C   0  0  0  0  0  0  0  0  0  0  0  0
   15.9880   12.7410   25.0220 C   0  0  0  0  0  0  0  0  0  0  0  0
   14.6820   12.9340   24.4890 C   0  0  0  0  0  0  0  0  0  0  0  0
    8.7170   12.0860   24.3120 N   0  0  0  0  0  0  0  0  0  0  0  0
    8.6880   10.7250   24.1370 N   0  0  0  0  0  0  0  0  0  0  0  0
    8.9150    8.5670   22.4940 H   0  0  0  0  0  0  0  0  0  0  0  0
   10.4950    9.0880   21.8600 H   0  0  0  0  0  0  0  0  0  0  0  0
   10.3700    8.4420   23.5090 H   0  0  0  0  0  0  0  0  0  0  0  0
   11.0140   11.6240   22.0810 H   0  0  0  0  0  0  0  0  0  0  0  0
   10.5630   14.4380   24.0260 H   0  0  0  0  0  0  0  0  0  0  0  0
    9.2510   14.4390   22.9500 H   0  0  0  0  0  0  0  0  0  0  0  0
   11.1330   13.2510   21.4580 H   0  0  0  0  0  0  0  0  0  0  0  0
   11.9610   16.0030   20.8710 H   0  0  0  0  0  0  0  0  0  0  0  0
   12.3980   13.3180   23.7180 H   0  0  0  0  0  0  0  0  0  0  0  0
   14.8750   16.0110   23.1210 H   0  0  0  0  0  0  0  0  0  0  0  0
   17.1890   15.8050   24.0180 H   0  0  0  0  0  0  0  0  0  0  0  0
   17.7430   13.6830   25.1910 H   0  0  0  0  0  0  0  0  0  0  0  0
   16.3180   11.8480   25.5460 H   0  0  0  0  0  0  0  0  0  0  0  0
   13.9680   12.1390   24.6140 H   0  0  0  0  0  0  0  0  0  0  0  0
  1  2  1  0
  2  3  1  0
  3  4  2  0
  4  5  1  0
  5  6  1  0
  6  7  1  0
  7  8  2  3
  7  9  1  0
  9 10  1  0
 10 11  2  0
 11 12  1  0
 12 13  2  0
 13 14  1  0
 14 15  2  0
  4 16  1  0
 16 17  2  0
 17  2  1  0
 15 10  1  0
  1 18  1  0
  1 19  1  0
  1 20  1  0
  3 21  1  0
  5 22  1  0
  5 23  1  0
  6 24  1  0
  8 25  1  0
  9 26  1  0
 11 27  1  0
 12 28  1  0
 13 29  1  0
 14 30  1  0
 15 31  1  0
A    1
 C1 
A    2
 N1 
A    3
 C2 
A    4
 C3 
A    5
 C4 
A    6
 N2 
A    7
 C5 
A    8
 N3 
A    9
 N4 
A   10
 C6 
A   11
 C7 
A   12
 C8 
A   13
 C9 
A   14
 C10
A   15
 C11
A   16
 N5 
A   17
 N6 
A   18
 H1 
A   19
 H2 
A   20
 H3 
A   21
 H4 
A   22
 H5 
A   23
 H6 
A   24
 H7 
A   25
 H8 
A   26
 H9 
A   27
 H10
A   28
 H11
A   29
 H12
A   30
 H13
A   31
 H14
M  END
>  <ref_pdb>  (89) 
x0310_0A

>  <ref_mols>  (89) 
x0451_0A,x0416_0A

>  <original SMILES>  (89) 
Cn1cc(CNC(=N)Nc2ccccc2)nn1

>  <rationale>  (89) 
info hbond:S125+G127+S87; hydroph_interaction:P107+Y89+H21+L22; pistack:H21; 

>  <intxn_cluster>  (89) 
206

>  <intxn_cluster_rank>  (89) 
31

>  <N_interactions>  (89) 
9

>  <∆∆G>  (89) 
-9.533099

>  <$/mg>  (89) 
163.0

>  <comRMSD>  (89) 
0.707087

>  <N_rotatable_bonds>  (89) 
4

>  <N_analogues_07>  (89) 
0

>  <deep_P1_sidechain>  (89) 
False

>  <farthest_distance_to_substrate>  (89) 
2.310215

>  <hbond:SER:7>  (89) 
hbond:SER:7    0
hbond:SER:7    0
Name: 88, dtype: object

>  <halogenbond:SER:7>  (89) 
halogenbond:SER:7    0
halogenbond:SER:7    0
Name: 88, dtype: object

>  <hbond:GLY:8>  (89) 
hbond:GLY:8    0
hbond:GLY:8    0
Name: 88, dtype: object

>  <hydroph_interaction:ASN:19>  (89) 
hydroph_interaction:ASN:19    0
hydroph_interaction:ASN:19    0
Name: 88, dtype: object

>  <hbond:ASN:19>  (89) 
hbond:ASN:19    0
hbond:ASN:19    0
Name: 88, dtype: object

>  <halogenbond:ASN:19>  (89) 
halogenbond:ASN:19    0
halogenbond:ASN:19    0
Name: 88, dtype: object

>  <hbond:ARG:20>  (89) 
hbond:ARG:20    0
hbond:ARG:20    0
Name: 88, dtype: object

>  <hydroph_interaction:ARG:20>  (89) 
hydroph_interaction:ARG:20    0
hydroph_interaction:ARG:20    0
Name: 88, dtype: object

>  <saltbridge:ARG:20>  (89) 
saltbridge:ARG:20    0
saltbridge:ARG:20    0
Name: 88, dtype: object

>  <halogenbond:ARG:20>  (89) 
halogenbond:ARG:20    0
halogenbond:ARG:20    0
Name: 88, dtype: object

>  <pication:ARG:20>  (89) 
pication:ARG:20    0
pication:ARG:20    0
Name: 88, dtype: object

>  <hbond:HIS:21>  (89) 
hbond:HIS:21    0
hbond:HIS:21    0
Name: 88, dtype: object

>  <hydroph_interaction:HIS:21>  (89) 
hydroph_interaction:HIS:21    1
hydroph_interaction:HIS:21    1
Name: 88, dtype: object

>  <saltbridge:HIS:21>  (89) 
saltbridge:HIS:21    0
saltbridge:HIS:21    0
Name: 88, dtype: object

>  <pistack:HIS:21>  (89) 
pistack:HIS:21    1
pistack:HIS:21    1
Name: 88, dtype: object

>  <pication:HIS:21>  (89) 
pication:HIS:21    0
pication:HIS:21    0
Name: 88, dtype: object

>  <halogenbond:HIS:21>  (89) 
halogenbond:HIS:21    0
halogenbond:HIS:21    0
Name: 88, dtype: object

>  <hydroph_interaction:LEU:22>  (89) 
hydroph_interaction:LEU:22    1
hydroph_interaction:LEU:22    1
Name: 88, dtype: object

>  <hbond:LEU:22>  (89) 
hbond:LEU:22    0
hbond:LEU:22    0
Name: 88, dtype: object

>  <hydroph_interaction:TRP:28>  (89) 
hydroph_interaction:TRP:28    0
hydroph_interaction:TRP:28    0
Name: 88, dtype: object

>  <hbond:SER:36>  (89) 
hbond:SER:36    0
hbond:SER:36    0
Name: 88, dtype: object

>  <halogenbond:SER:36>  (89) 
halogenbond:SER:36    0
halogenbond:SER:36    0
Name: 88, dtype: object

>  <hbond:ARG:38>  (89) 
hbond:ARG:38    0
hbond:ARG:38    0
Name: 88, dtype: object

>  <halogenbond:ARG:38>  (89) 
halogenbond:ARG:38    0
halogenbond:ARG:38    0
Name: 88, dtype: object

>  <hbond:ASP:39>  (89) 
hbond:ASP:39    0
hbond:ASP:39    0
Name: 88, dtype: object

>  <saltbridge:ASP:39>  (89) 
saltbridge:ASP:39    0
saltbridge:ASP:39    0
Name: 88, dtype: object

>  <hydroph_interaction:ASP:39>  (89) 
hydroph_interaction:ASP:39    0
hydroph_interaction:ASP:39    0
Name: 88, dtype: object

>  <halogenbond:ASP:39>  (89) 
halogenbond:ASP:39    0
halogenbond:ASP:39    0
Name: 88, dtype: object

>  <hydroph_interaction:LEU:40>  (89) 
hydroph_interaction:LEU:40    0
hydroph_interaction:LEU:40    0
Name: 88, dtype: object

>  <hydroph_interaction:TYR:63>  (89) 
hydroph_interaction:TYR:63    0
hydroph_interaction:TYR:63    0
Name: 88, dtype: object

>  <pistack:TYR:63>  (89) 
pistack:TYR:63    0
pistack:TYR:63    0
Name: 88, dtype: object

>  <hbond:TYR:63>  (89) 
hbond:TYR:63    0
hbond:TYR:63    0
Name: 88, dtype: object

>  <hbond:TYR:64>  (89) 
hbond:TYR:64    0
hbond:TYR:64    0
Name: 88, dtype: object

>  <halogenbond:TYR:64>  (89) 
halogenbond:TYR:64    0
halogenbond:TYR:64    0
Name: 88, dtype: object

>  <hydroph_interaction:TYR:64>  (89) 
hydroph_interaction:TYR:64    0
hydroph_interaction:TYR:64    0
Name: 88, dtype: object

>  <hbond:CYS:65>  (89) 
hbond:CYS:65    0
hbond:CYS:65    0
Name: 88, dtype: object

>  <halogenbond:CYS:65>  (89) 
halogenbond:CYS:65    0
halogenbond:CYS:65    0
Name: 88, dtype: object

>  <hbond:SER:66>  (89) 
hbond:SER:66    0
hbond:SER:66    0
Name: 88, dtype: object

>  <hbond:SER:67>  (89) 
hbond:SER:67    0
hbond:SER:67    0
Name: 88, dtype: object

>  <halogenbond:SER:67>  (89) 
halogenbond:SER:67    0
halogenbond:SER:67    0
Name: 88, dtype: object

>  <hydroph_interaction:ARG:68>  (89) 
hydroph_interaction:ARG:68    0
hydroph_interaction:ARG:68    0
Name: 88, dtype: object

>  <hbond:ARG:68>  (89) 
hbond:ARG:68    0
hbond:ARG:68    0
Name: 88, dtype: object

>  <saltbridge:ARG:68>  (89) 
saltbridge:ARG:68    0
saltbridge:ARG:68    0
Name: 88, dtype: object

>  <pication:ARG:68>  (89) 
pication:ARG:68    0
pication:ARG:68    0
Name: 88, dtype: object

>  <hydroph_interaction:TYR:72>  (89) 
hydroph_interaction:TYR:72    0
hydroph_interaction:TYR:72    0
Name: 88, dtype: object

>  <hydroph_interaction:VAL:74>  (89) 
hydroph_interaction:VAL:74    0
hydroph_interaction:VAL:74    0
Name: 88, dtype: object

>  <hydroph_interaction:PHE:76>  (89) 
hydroph_interaction:PHE:76    0
hydroph_interaction:PHE:76    0
Name: 88, dtype: object

>  <hbond:SER:77>  (89) 
hbond:SER:77    0
hbond:SER:77    0
Name: 88, dtype: object

>  <hbond:SER:80>  (89) 
hbond:SER:80    0
hbond:SER:80    0
Name: 88, dtype: object

>  <hbond:LEU:81>  (89) 
hbond:LEU:81    0
hbond:LEU:81    0
Name: 88, dtype: object

>  <halogenbond:LEU:81>  (89) 
halogenbond:LEU:81    0
halogenbond:LEU:81    0
Name: 88, dtype: object

>  <hydroph_interaction:LEU:81>  (89) 
hydroph_interaction:LEU:81    0
hydroph_interaction:LEU:81    0
Name: 88, dtype: object

>  <hydroph_interaction:ILE:82>  (89) 
hydroph_interaction:ILE:82    0
hydroph_interaction:ILE:82    0
Name: 88, dtype: object

>  <hbond:ILE:82>  (89) 
hbond:ILE:82    0
hbond:ILE:82    0
Name: 88, dtype: object

>  <hydroph_interaction:PHE:83>  (89) 
hydroph_interaction:PHE:83    0
hydroph_interaction:PHE:83    0
Name: 88, dtype: object

>  <hbond:PHE:83>  (89) 
hbond:PHE:83    0
hbond:PHE:83    0
Name: 88, dtype: object

>  <halogenbond:PHE:83>  (89) 
halogenbond:PHE:83    0
halogenbond:PHE:83    0
Name: 88, dtype: object

>  <pistack:PHE:83>  (89) 
pistack:PHE:83    0
pistack:PHE:83    0
Name: 88, dtype: object

>  <hydroph_interaction:VAL:84>  (89) 
hydroph_interaction:VAL:84    0
hydroph_interaction:VAL:84    0
Name: 88, dtype: object

>  <hbond:VAL:84>  (89) 
hbond:VAL:84    0
hbond:VAL:84    0
Name: 88, dtype: object

>  <halogenbond:VAL:84>  (89) 
halogenbond:VAL:84    0
halogenbond:VAL:84    0
Name: 88, dtype: object

>  <hydroph_interaction:GLU:85>  (89) 
hydroph_interaction:GLU:85    0
hydroph_interaction:GLU:85    0
Name: 88, dtype: object

>  <hbond:GLU:85>  (89) 
hbond:GLU:85    0
hbond:GLU:85    0
Name: 88, dtype: object

>  <saltbridge:GLU:85>  (89) 
saltbridge:GLU:85    0
saltbridge:GLU:85    0
Name: 88, dtype: object

>  <halogenbond:GLU:85>  (89) 
halogenbond:GLU:85    0
halogenbond:GLU:85    0
Name: 88, dtype: object

>  <hbond:ALA:86>  (89) 
hbond:ALA:86    0
hbond:ALA:86    0
Name: 88, dtype: object

>  <halogenbond:ALA:86>  (89) 
halogenbond:ALA:86    0
halogenbond:ALA:86    0
Name: 88, dtype: object

>  <hydroph_interaction:ALA:86>  (89) 
hydroph_interaction:ALA:86    0
hydroph_interaction:ALA:86    0
Name: 88, dtype: object

>  <hbond:SER:87>  (89) 
hbond:SER:87    1
hbond:SER:87    1
Name: 88, dtype: object

>  <halogenbond:SER:87>  (89) 
halogenbond:SER:87    0
halogenbond:SER:87    0
Name: 88, dtype: object

>  <hbond:GLU:88>  (89) 
hbond:GLU:88    0
hbond:GLU:88    0
Name: 88, dtype: object

>  <hydroph_interaction:GLU:88>  (89) 
hydroph_interaction:GLU:88    0
hydroph_interaction:GLU:88    0
Name: 88, dtype: object

>  <halogenbond:GLU:88>  (89) 
halogenbond:GLU:88    0
halogenbond:GLU:88    0
Name: 88, dtype: object

>  <saltbridge:GLU:88>  (89) 
saltbridge:GLU:88    0
saltbridge:GLU:88    0
Name: 88, dtype: object

>  <hydroph_interaction:TYR:89>  (89) 
hydroph_interaction:TYR:89    2
hydroph_interaction:TYR:89    2
Name: 88, dtype: object

>  <pistack:TYR:89>  (89) 
pistack:TYR:89    0
pistack:TYR:89    0
Name: 88, dtype: object

>  <hbond:TYR:89>  (89) 
hbond:TYR:89    0
hbond:TYR:89    0
Name: 88, dtype: object

>  <halogenbond:TYR:89>  (89) 
halogenbond:TYR:89    0
halogenbond:TYR:89    0
Name: 88, dtype: object

>  <hbond:TYR:90>  (89) 
hbond:TYR:90    0
hbond:TYR:90    0
Name: 88, dtype: object

>  <hydroph_interaction:TYR:90>  (89) 
hydroph_interaction:TYR:90    0
hydroph_interaction:TYR:90    0
Name: 88, dtype: object

>  <pistack:TYR:90>  (89) 
pistack:TYR:90    0
pistack:TYR:90    0
Name: 88, dtype: object

>  <halogenbond:TYR:90>  (89) 
halogenbond:TYR:90    0
halogenbond:TYR:90    0
Name: 88, dtype: object

>  <pication:TYR:90>  (89) 
pication:TYR:90    0
pication:TYR:90    0
Name: 88, dtype: object

>  <hydroph_interaction:PRO:91>  (89) 
hydroph_interaction:PRO:91    0
hydroph_interaction:PRO:91    0
Name: 88, dtype: object

>  <halogenbond:PRO:91>  (89) 
halogenbond:PRO:91    0
halogenbond:PRO:91    0
Name: 88, dtype: object

>  <hbond:PRO:91>  (89) 
hbond:PRO:91    0
hbond:PRO:91    0
Name: 88, dtype: object

>  <hydroph_interaction:ALA:92>  (89) 
hydroph_interaction:ALA:92    0
hydroph_interaction:ALA:92    0
Name: 88, dtype: object

>  <hbond:ARG:93>  (89) 
hbond:ARG:93    0
hbond:ARG:93    0
Name: 88, dtype: object

>  <pication:ARG:93>  (89) 
pication:ARG:93    0
pication:ARG:93    0
Name: 88, dtype: object

>  <saltbridge:ARG:93>  (89) 
saltbridge:ARG:93    0
saltbridge:ARG:93    0
Name: 88, dtype: object

>  <hydroph_interaction:ARG:93>  (89) 
hydroph_interaction:ARG:93    0
hydroph_interaction:ARG:93    0
Name: 88, dtype: object

>  <halogenbond:ARG:93>  (89) 
halogenbond:ARG:93    0
halogenbond:ARG:93    0
Name: 88, dtype: object

>  <hydroph_interaction:TYR:94>  (89) 
hydroph_interaction:TYR:94    0
hydroph_interaction:TYR:94    0
Name: 88, dtype: object

>  <hbond:TYR:94>  (89) 
hbond:TYR:94    0
hbond:TYR:94    0
Name: 88, dtype: object

>  <halogenbond:GLN:95>  (89) 
halogenbond:GLN:95    0
halogenbond:GLN:95    0
Name: 88, dtype: object

>  <hbond:GLN:95>  (89) 
hbond:GLN:95    0
hbond:GLN:95    0
Name: 88, dtype: object

>  <hydroph_interaction:GLN:95>  (89) 
hydroph_interaction:GLN:95    0
hydroph_interaction:GLN:95    0
Name: 88, dtype: object

>  <hbond:SER:96>  (89) 
hbond:SER:96    0
hbond:SER:96    0
Name: 88, dtype: object

>  <hydroph_interaction:LEU:98>  (89) 
hydroph_interaction:LEU:98    0
hydroph_interaction:LEU:98    0
Name: 88, dtype: object

>  <hbond:LEU:98>  (89) 
hbond:LEU:98    0
hbond:LEU:98    0
Name: 88, dtype: object

>  <hbond:MET:99>  (89) 
hbond:MET:99    0
hbond:MET:99    0
Name: 88, dtype: object

>  <hydroph_interaction:MET:99>  (89) 
hydroph_interaction:MET:99    0
hydroph_interaction:MET:99    0
Name: 88, dtype: object

>  <halogenbond:MET:99>  (89) 
halogenbond:MET:99    0
halogenbond:MET:99    0
Name: 88, dtype: object

>  <hydroph_interaction:LEU:100>  (89) 
hydroph_interaction:LEU:100    0
hydroph_interaction:LEU:100    0
Name: 88, dtype: object

>  <hbond:LEU:100>  (89) 
hbond:LEU:100    0
hbond:LEU:100    0
Name: 88, dtype: object

>  <hbond:ALA:101>  (89) 
hbond:ALA:101    0
hbond:ALA:101    0
Name: 88, dtype: object

>  <hydroph_interaction:ALA:101>  (89) 
hydroph_interaction:ALA:101    0
hydroph_interaction:ALA:101    0
Name: 88, dtype: object

>  <hydroph_interaction:VAL:102>  (89) 
hydroph_interaction:VAL:102    0
hydroph_interaction:VAL:102    0
Name: 88, dtype: object

>  <hbond:VAL:102>  (89) 
hbond:VAL:102    0
hbond:VAL:102    0
Name: 88, dtype: object

>  <hbond:GLY:103>  (89) 
hbond:GLY:103    0
hbond:GLY:103    0
Name: 88, dtype: object

>  <halogenbond:GLY:103>  (89) 
halogenbond:GLY:103    0
halogenbond:GLY:103    0
Name: 88, dtype: object

>  <hydroph_interaction:HIS:104>  (89) 
hydroph_interaction:HIS:104    0
hydroph_interaction:HIS:104    0
Name: 88, dtype: object

>  <hbond:HIS:104>  (89) 
hbond:HIS:104    0
hbond:HIS:104    0
Name: 88, dtype: object

>  <saltbridge:HIS:104>  (89) 
saltbridge:HIS:104    0
saltbridge:HIS:104    0
Name: 88, dtype: object

>  <pication:HIS:104>  (89) 
pication:HIS:104    0
pication:HIS:104    0
Name: 88, dtype: object

>  <pistack:HIS:104>  (89) 
pistack:HIS:104    0
pistack:HIS:104    0
Name: 88, dtype: object

>  <halogenbond:HIS:104>  (89) 
halogenbond:HIS:104    0
halogenbond:HIS:104    0
Name: 88, dtype: object

>  <hbond:SER:105>  (89) 
hbond:SER:105    0
hbond:SER:105    0
Name: 88, dtype: object

>  <halogenbond:SER:105>  (89) 
halogenbond:SER:105    0
halogenbond:SER:105    0
Name: 88, dtype: object

>  <hbond:GLU:106>  (89) 
hbond:GLU:106    0
hbond:GLU:106    0
Name: 88, dtype: object

>  <hydroph_interaction:GLU:106>  (89) 
hydroph_interaction:GLU:106    0
hydroph_interaction:GLU:106    0
Name: 88, dtype: object

>  <saltbridge:GLU:106>  (89) 
saltbridge:GLU:106    0
saltbridge:GLU:106    0
Name: 88, dtype: object

>  <halogenbond:GLU:106>  (89) 
halogenbond:GLU:106    0
halogenbond:GLU:106    0
Name: 88, dtype: object

>  <hydroph_interaction:PRO:107>  (89) 
hydroph_interaction:PRO:107    1
hydroph_interaction:PRO:107    1
Name: 88, dtype: object

>  <hbond:PRO:107>  (89) 
hbond:PRO:107    0
hbond:PRO:107    0
Name: 88, dtype: object

>  <halogenbond:PRO:107>  (89) 
halogenbond:PRO:107    0
halogenbond:PRO:107    0
Name: 88, dtype: object

>  <hbond:GLY:108>  (89) 
hbond:GLY:108    0
hbond:GLY:108    0
Name: 88, dtype: object

>  <halogenbond:GLY:108>  (89) 
halogenbond:GLY:108    0
halogenbond:GLY:108    0
Name: 88, dtype: object

>  <hbond:ASP:109>  (89) 
hbond:ASP:109    0
hbond:ASP:109    0
Name: 88, dtype: object

>  <hydroph_interaction:ASP:109>  (89) 
hydroph_interaction:ASP:109    0
hydroph_interaction:ASP:109    0
Name: 88, dtype: object

>  <saltbridge:ASP:109>  (89) 
saltbridge:ASP:109    0
saltbridge:ASP:109    0
Name: 88, dtype: object

>  <hbond:CYS:110>  (89) 
hbond:CYS:110    0
hbond:CYS:110    0
Name: 88, dtype: object

>  <halogenbond:CYS:110>  (89) 
halogenbond:CYS:110    0
halogenbond:CYS:110    0
Name: 88, dtype: object

>  <hbond:GLY:111>  (89) 
hbond:GLY:111    0
hbond:GLY:111    0
Name: 88, dtype: object

>  <hbond:GLY:112>  (89) 
hbond:GLY:112    0
hbond:GLY:112    0
Name: 88, dtype: object

>  <hbond:ILE:113>  (89) 
hbond:ILE:113    0
hbond:ILE:113    0
Name: 88, dtype: object

>  <hydroph_interaction:LEU:114>  (89) 
hydroph_interaction:LEU:114    0
hydroph_interaction:LEU:114    0
Name: 88, dtype: object

>  <hbond:LEU:114>  (89) 
hbond:LEU:114    0
hbond:LEU:114    0
Name: 88, dtype: object

>  <hydroph_interaction:ILE:123>  (89) 
hydroph_interaction:ILE:123    0
hydroph_interaction:ILE:123    0
Name: 88, dtype: object

>  <hbond:ILE:123>  (89) 
hbond:ILE:123    0
hbond:ILE:123    0
Name: 88, dtype: object

>  <hydroph_interaction:VAL:124>  (89) 
hydroph_interaction:VAL:124    0
hydroph_interaction:VAL:124    0
Name: 88, dtype: object

>  <hbond:VAL:124>  (89) 
hbond:VAL:124    0
hbond:VAL:124    0
Name: 88, dtype: object

>  <halogenbond:VAL:124>  (89) 
halogenbond:VAL:124    0
halogenbond:VAL:124    0
Name: 88, dtype: object

>  <hbond:SER:125>  (89) 
hbond:SER:125    1
hbond:SER:125    1
Name: 88, dtype: object

>  <halogenbond:SER:125>  (89) 
halogenbond:SER:125    0
halogenbond:SER:125    0
Name: 88, dtype: object

>  <hydroph_interaction:THR:126>  (89) 
hydroph_interaction:THR:126    0
hydroph_interaction:THR:126    0
Name: 88, dtype: object

>  <hbond:THR:126>  (89) 
hbond:THR:126    0
hbond:THR:126    0
Name: 88, dtype: object

>  <halogenbond:THR:126>  (89) 
halogenbond:THR:126    0
halogenbond:THR:126    0
Name: 88, dtype: object

>  <hbond:GLY:127>  (89) 
hbond:GLY:127    1
hbond:GLY:127    1
Name: 88, dtype: object

>  <halogenbond:GLY:127>  (89) 
halogenbond:GLY:127    0
halogenbond:GLY:127    0
Name: 88, dtype: object

>  <hydroph_interaction:GLY:127>  (89) 
hydroph_interaction:GLY:127    0
hydroph_interaction:GLY:127    0
Name: 88, dtype: object

>  <hbond:GLY:128>  (89) 
hbond:GLY:128    0
hbond:GLY:128    0
Name: 88, dtype: object

>  <halogenbond:GLY:128>  (89) 
halogenbond:GLY:128    0
halogenbond:GLY:128    0
Name: 88, dtype: object

>  <hydroph_interaction:GLY:128>  (89) 
hydroph_interaction:GLY:128    0
hydroph_interaction:GLY:128    0
Name: 88, dtype: object

>  <hbond:ASN:129>  (89) 
hbond:ASN:129    0
hbond:ASN:129    0
Name: 88, dtype: object

>  <hydroph_interaction:ASN:129>  (89) 
hydroph_interaction:ASN:129    0
hydroph_interaction:ASN:129    0
Name: 88, dtype: object

>  <halogenbond:ASN:129>  (89) 
halogenbond:ASN:129    0
halogenbond:ASN:129    0
Name: 88, dtype: object

>  <hbond:GLY:130>  (89) 
hbond:GLY:130    0
hbond:GLY:130    0
Name: 88, dtype: object

>  <hydroph_interaction:LEU:131>  (89) 
hydroph_interaction:LEU:131    0
hydroph_interaction:LEU:131    0
Name: 88, dtype: object

>  <hbond:LEU:131>  (89) 
hbond:LEU:131    0
hbond:LEU:131    0
Name: 88, dtype: object

>  <halogenbond:LEU:131>  (89) 
halogenbond:LEU:131    0
halogenbond:LEU:131    0
Name: 88, dtype: object

>  <hydroph_interaction:VAL:132>  (89) 
hydroph_interaction:VAL:132    0
hydroph_interaction:VAL:132    0
Name: 88, dtype: object

>  <hbond:VAL:132>  (89) 
hbond:VAL:132    0
hbond:VAL:132    0
Name: 88, dtype: object

>  <hbond:GLY:133>  (89) 
hbond:GLY:133    0
hbond:GLY:133    0
Name: 88, dtype: object

>  <halogenbond:GLY:133>  (89) 
halogenbond:GLY:133    0
halogenbond:GLY:133    0
Name: 88, dtype: object

>  <hydroph_interaction:PHE:134>  (89) 
hydroph_interaction:PHE:134    0
hydroph_interaction:PHE:134    0
Name: 88, dtype: object

>  <hbond:PHE:134>  (89) 
hbond:PHE:134    0
hbond:PHE:134    0
Name: 88, dtype: object

>  <pistack:PHE:134>  (89) 
pistack:PHE:134    0
pistack:PHE:134    0
Name: 88, dtype: object

>  <pication:PHE:134>  (89) 
pication:PHE:134    0
pication:PHE:134    0
Name: 88, dtype: object

>  <hydroph_interaction:ALA:135>  (89) 
hydroph_interaction:ALA:135    0
hydroph_interaction:ALA:135    0
Name: 88, dtype: object

>  <hbond:ALA:135>  (89) 
hbond:ALA:135    0
hbond:ALA:135    0
Name: 88, dtype: object

$$$$
PV_002380763795
     RDKit          3D

 31 32  0  0  0  0  0  0  0  0999 V2000
   10.2220   15.2680   19.6260 C   0  0  0  0  0  0  0  0  0  0  0  0
   11.3820   14.7430   20.3740 C   0  0  0  0  0  0  0  0  0  0  0  0
   11.2330   14.3780   21.8560 C   0  0  0  0  0  0  0  0  0  0  0  0
   10.0790   14.4660   22.5450 N   0  0  0  0  0  0  0  0  0  0  0  0
   10.0030   14.0990   23.8490 C   0  0  0  0  0  0  0  0  0  0  0  0
   10.3820   14.8520   24.9900 O   0  0  0  0  0  0  0  0  0  0  0  0
    9.4800   12.7280   23.9070 C   0  0  0  0  0  0  0  0  0  0  0  0
   10.1740   11.7270   23.1060 C   0  0  0  0  0  0  0  0  0  0  0  0
   11.2620   12.1860   22.3690 O   0  0  0  0  0  0  0  0  0  0  0  0
    9.5780   10.5420   23.2820 N   0  0  0  0  0  0  0  0  0  0  0  0
    9.9600    9.3070   22.6760 C   0  0  0  0  0  0  0  0  0  0  0  0
    8.5100   10.6420   24.1510 N   0  0  0  0  0  0  0  0  0  0  0  0
    8.4560   11.9990   24.5300 C   0  0  0  0  0  0  0  0  0  0  0  0
   12.4810   13.9530   22.3010 C   0  0  0  0  0  0  0  0  0  0  0  0
   13.5300   13.9650   21.2270 C   0  0  0  0  0  0  0  0  0  0  0  0
   14.9210   13.5190   21.6120 C   0  0  0  0  0  0  0  0  0  0  0  0
   15.6510   13.0280   20.5860 N   0  0  0  0  0  0  0  0  0  0  0  0
   15.5340   13.4960   22.8310 O   0  0  0  0  0  0  0  0  0  0  0  0
   12.9260   14.4930   19.7190 S   0  0  0  0  0  0  0  0  0  0  0  0
   10.1140   16.3450   19.8050 H   0  0  0  0  0  0  0  0  0  0  0  0
    9.2890   14.7840   19.9310 H   0  0  0  0  0  0  0  0  0  0  0  0
   10.3650   15.1130   18.5550 H   0  0  0  0  0  0  0  0  0  0  0  0
    9.2070   14.3760   22.0360 H   0  0  0  0  0  0  0  0  0  0  0  0
   11.0920   12.0180   21.4220 H   0  0  0  0  0  0  0  0  0  0  0  0
   10.5740    8.7190   23.3560 H   0  0  0  0  0  0  0  0  0  0  0  0
    9.0500    8.7750   22.4150 H   0  0  0  0  0  0  0  0  0  0  0  0
   10.5310    9.5350   21.7760 H   0  0  0  0  0  0  0  0  0  0  0  0
    7.6830   12.3180   25.2170 H   0  0  0  0  0  0  0  0  0  0  0  0
   12.7940   13.6160   23.2960 H   0  0  0  0  0  0  0  0  0  0  0  0
   15.2770   13.1290   19.6320 H   0  0  0  0  0  0  0  0  0  0  0  0
   16.5720   12.6440   20.7270 H   0  0  0  0  0  0  0  0  0  0  0  0
  1  2  1  0
  2  3  2  0
  3  4  1  0
  4  5  1  0
  5  6  2  0
  5  7  1  0
  7  8  2  0
  8  9  1  0
  8 10  1  0
 10 11  1  0
 10 12  1  0
 12 13  2  0
  3 14  1  0
 14 15  2  0
 15 16  1  0
 16 17  1  0
 16 18  2  0
 15 19  1  0
 19  2  1  0
 13  7  1  0
  1 20  1  0
  1 21  1  0
  1 22  1  0
  4 23  1  0
  9 24  1  0
 11 25  1  0
 11 26  1  0
 11 27  1  0
 13 28  1  0
 14 29  1  0
 17 30  1  0
 17 31  1  0
A    1
 C1 
A    2
 C2 
A    3
 C3 
A    4
 N1 
A    5
 C4 
A    6
 O1 
A    7
 C5 
A    8
 C6 
A    9
 O2 
A   10
 N2 
A   11
 C7 
A   12
 N3 
A   13
 C8 
A   14
 C9 
A   15
 C10
A   16
 C11
A   17
 N4 
A   18
 O3 
A   19
 S1 
A   20
 H1 
A   21
 H2 
A   22
 H3 
A   23
 H4 
A   24
 H5 
A   25
 H6 
A   26
 H7 
A   27
 H8 
A   28
 H9 
A   29
 H10
A   30
 H11
A   31
 H12
M  END
>  <ref_pdb>  (90) 
x0310_0A

>  <ref_mols>  (90) 
x0451_0A,x0416_0A

>  <original SMILES>  (90) 
Cc1sc(C(N)=O)cc1NC(=O)c1cnn(C)c1O

>  <rationale>  (90) 
info hbond:S105+E88+S87+D39+N19; hydroph_interaction:P107+T126; 

>  <intxn_cluster>  (90) 
105

>  <intxn_cluster_rank>  (90) 
31

>  <N_interactions>  (90) 
8

>  <∆∆G>  (90) 
-7.847209

>  <$/mg>  (90) 
nan

>  <comRMSD>  (90) 
0.913743

>  <N_rotatable_bonds>  (90) 
6

>  <N_analogues_07>  (90) 
3

>  <deep_P1_sidechain>  (90) 
True

>  <farthest_distance_to_substrate>  (90) 
3.425741

>  <hbond:SER:7>  (90) 
hbond:SER:7    0
hbond:SER:7    0
Name: 89, dtype: object

>  <halogenbond:SER:7>  (90) 
halogenbond:SER:7    0
halogenbond:SER:7    0
Name: 89, dtype: object

>  <hbond:GLY:8>  (90) 
hbond:GLY:8    0
hbond:GLY:8    0
Name: 89, dtype: object

>  <hydroph_interaction:ASN:19>  (90) 
hydroph_interaction:ASN:19    0
hydroph_interaction:ASN:19    0
Name: 89, dtype: object

>  <hbond:ASN:19>  (90) 
hbond:ASN:19    1
hbond:ASN:19    1
Name: 89, dtype: object

>  <halogenbond:ASN:19>  (90) 
halogenbond:ASN:19    0
halogenbond:ASN:19    0
Name: 89, dtype: object

>  <hbond:ARG:20>  (90) 
hbond:ARG:20    0
hbond:ARG:20    0
Name: 89, dtype: object

>  <hydroph_interaction:ARG:20>  (90) 
hydroph_interaction:ARG:20    0
hydroph_interaction:ARG:20    0
Name: 89, dtype: object

>  <saltbridge:ARG:20>  (90) 
saltbridge:ARG:20    0
saltbridge:ARG:20    0
Name: 89, dtype: object

>  <halogenbond:ARG:20>  (90) 
halogenbond:ARG:20    0
halogenbond:ARG:20    0
Name: 89, dtype: object

>  <pication:ARG:20>  (90) 
pication:ARG:20    0
pication:ARG:20    0
Name: 89, dtype: object

>  <hbond:HIS:21>  (90) 
hbond:HIS:21    0
hbond:HIS:21    0
Name: 89, dtype: object

>  <hydroph_interaction:HIS:21>  (90) 
hydroph_interaction:HIS:21    0
hydroph_interaction:HIS:21    0
Name: 89, dtype: object

>  <saltbridge:HIS:21>  (90) 
saltbridge:HIS:21    0
saltbridge:HIS:21    0
Name: 89, dtype: object

>  <pistack:HIS:21>  (90) 
pistack:HIS:21    0
pistack:HIS:21    0
Name: 89, dtype: object

>  <pication:HIS:21>  (90) 
pication:HIS:21    0
pication:HIS:21    0
Name: 89, dtype: object

>  <halogenbond:HIS:21>  (90) 
halogenbond:HIS:21    0
halogenbond:HIS:21    0
Name: 89, dtype: object

>  <hydroph_interaction:LEU:22>  (90) 
hydroph_interaction:LEU:22    0
hydroph_interaction:LEU:22    0
Name: 89, dtype: object

>  <hbond:LEU:22>  (90) 
hbond:LEU:22    0
hbond:LEU:22    0
Name: 89, dtype: object

>  <hydroph_interaction:TRP:28>  (90) 
hydroph_interaction:TRP:28    0
hydroph_interaction:TRP:28    0
Name: 89, dtype: object

>  <hbond:SER:36>  (90) 
hbond:SER:36    0
hbond:SER:36    0
Name: 89, dtype: object

>  <halogenbond:SER:36>  (90) 
halogenbond:SER:36    0
halogenbond:SER:36    0
Name: 89, dtype: object

>  <hbond:ARG:38>  (90) 
hbond:ARG:38    0
hbond:ARG:38    0
Name: 89, dtype: object

>  <halogenbond:ARG:38>  (90) 
halogenbond:ARG:38    0
halogenbond:ARG:38    0
Name: 89, dtype: object

>  <hbond:ASP:39>  (90) 
hbond:ASP:39    1
hbond:ASP:39    1
Name: 89, dtype: object

>  <saltbridge:ASP:39>  (90) 
saltbridge:ASP:39    0
saltbridge:ASP:39    0
Name: 89, dtype: object

>  <hydroph_interaction:ASP:39>  (90) 
hydroph_interaction:ASP:39    0
hydroph_interaction:ASP:39    0
Name: 89, dtype: object

>  <halogenbond:ASP:39>  (90) 
halogenbond:ASP:39    0
halogenbond:ASP:39    0
Name: 89, dtype: object

>  <hydroph_interaction:LEU:40>  (90) 
hydroph_interaction:LEU:40    0
hydroph_interaction:LEU:40    0
Name: 89, dtype: object

>  <hydroph_interaction:TYR:63>  (90) 
hydroph_interaction:TYR:63    0
hydroph_interaction:TYR:63    0
Name: 89, dtype: object

>  <pistack:TYR:63>  (90) 
pistack:TYR:63    0
pistack:TYR:63    0
Name: 89, dtype: object

>  <hbond:TYR:63>  (90) 
hbond:TYR:63    0
hbond:TYR:63    0
Name: 89, dtype: object

>  <hbond:TYR:64>  (90) 
hbond:TYR:64    0
hbond:TYR:64    0
Name: 89, dtype: object

>  <halogenbond:TYR:64>  (90) 
halogenbond:TYR:64    0
halogenbond:TYR:64    0
Name: 89, dtype: object

>  <hydroph_interaction:TYR:64>  (90) 
hydroph_interaction:TYR:64    0
hydroph_interaction:TYR:64    0
Name: 89, dtype: object

>  <hbond:CYS:65>  (90) 
hbond:CYS:65    0
hbond:CYS:65    0
Name: 89, dtype: object

>  <halogenbond:CYS:65>  (90) 
halogenbond:CYS:65    0
halogenbond:CYS:65    0
Name: 89, dtype: object

>  <hbond:SER:66>  (90) 
hbond:SER:66    0
hbond:SER:66    0
Name: 89, dtype: object

>  <hbond:SER:67>  (90) 
hbond:SER:67    0
hbond:SER:67    0
Name: 89, dtype: object

>  <halogenbond:SER:67>  (90) 
halogenbond:SER:67    0
halogenbond:SER:67    0
Name: 89, dtype: object

>  <hydroph_interaction:ARG:68>  (90) 
hydroph_interaction:ARG:68    0
hydroph_interaction:ARG:68    0
Name: 89, dtype: object

>  <hbond:ARG:68>  (90) 
hbond:ARG:68    0
hbond:ARG:68    0
Name: 89, dtype: object

>  <saltbridge:ARG:68>  (90) 
saltbridge:ARG:68    0
saltbridge:ARG:68    0
Name: 89, dtype: object

>  <pication:ARG:68>  (90) 
pication:ARG:68    0
pication:ARG:68    0
Name: 89, dtype: object

>  <hydroph_interaction:TYR:72>  (90) 
hydroph_interaction:TYR:72    0
hydroph_interaction:TYR:72    0
Name: 89, dtype: object

>  <hydroph_interaction:VAL:74>  (90) 
hydroph_interaction:VAL:74    0
hydroph_interaction:VAL:74    0
Name: 89, dtype: object

>  <hydroph_interaction:PHE:76>  (90) 
hydroph_interaction:PHE:76    0
hydroph_interaction:PHE:76    0
Name: 89, dtype: object

>  <hbond:SER:77>  (90) 
hbond:SER:77    0
hbond:SER:77    0
Name: 89, dtype: object

>  <hbond:SER:80>  (90) 
hbond:SER:80    0
hbond:SER:80    0
Name: 89, dtype: object

>  <hbond:LEU:81>  (90) 
hbond:LEU:81    0
hbond:LEU:81    0
Name: 89, dtype: object

>  <halogenbond:LEU:81>  (90) 
halogenbond:LEU:81    0
halogenbond:LEU:81    0
Name: 89, dtype: object

>  <hydroph_interaction:LEU:81>  (90) 
hydroph_interaction:LEU:81    0
hydroph_interaction:LEU:81    0
Name: 89, dtype: object

>  <hydroph_interaction:ILE:82>  (90) 
hydroph_interaction:ILE:82    0
hydroph_interaction:ILE:82    0
Name: 89, dtype: object

>  <hbond:ILE:82>  (90) 
hbond:ILE:82    0
hbond:ILE:82    0
Name: 89, dtype: object

>  <hydroph_interaction:PHE:83>  (90) 
hydroph_interaction:PHE:83    0
hydroph_interaction:PHE:83    0
Name: 89, dtype: object

>  <hbond:PHE:83>  (90) 
hbond:PHE:83    0
hbond:PHE:83    0
Name: 89, dtype: object

>  <halogenbond:PHE:83>  (90) 
halogenbond:PHE:83    0
halogenbond:PHE:83    0
Name: 89, dtype: object

>  <pistack:PHE:83>  (90) 
pistack:PHE:83    0
pistack:PHE:83    0
Name: 89, dtype: object

>  <hydroph_interaction:VAL:84>  (90) 
hydroph_interaction:VAL:84    0
hydroph_interaction:VAL:84    0
Name: 89, dtype: object

>  <hbond:VAL:84>  (90) 
hbond:VAL:84    0
hbond:VAL:84    0
Name: 89, dtype: object

>  <halogenbond:VAL:84>  (90) 
halogenbond:VAL:84    0
halogenbond:VAL:84    0
Name: 89, dtype: object

>  <hydroph_interaction:GLU:85>  (90) 
hydroph_interaction:GLU:85    0
hydroph_interaction:GLU:85    0
Name: 89, dtype: object

>  <hbond:GLU:85>  (90) 
hbond:GLU:85    0
hbond:GLU:85    0
Name: 89, dtype: object

>  <saltbridge:GLU:85>  (90) 
saltbridge:GLU:85    0
saltbridge:GLU:85    0
Name: 89, dtype: object

>  <halogenbond:GLU:85>  (90) 
halogenbond:GLU:85    0
halogenbond:GLU:85    0
Name: 89, dtype: object

>  <hbond:ALA:86>  (90) 
hbond:ALA:86    0
hbond:ALA:86    0
Name: 89, dtype: object

>  <halogenbond:ALA:86>  (90) 
halogenbond:ALA:86    0
halogenbond:ALA:86    0
Name: 89, dtype: object

>  <hydroph_interaction:ALA:86>  (90) 
hydroph_interaction:ALA:86    0
hydroph_interaction:ALA:86    0
Name: 89, dtype: object

>  <hbond:SER:87>  (90) 
hbond:SER:87    2
hbond:SER:87    2
Name: 89, dtype: object

>  <halogenbond:SER:87>  (90) 
halogenbond:SER:87    0
halogenbond:SER:87    0
Name: 89, dtype: object

>  <hbond:GLU:88>  (90) 
hbond:GLU:88    1
hbond:GLU:88    1
Name: 89, dtype: object

>  <hydroph_interaction:GLU:88>  (90) 
hydroph_interaction:GLU:88    0
hydroph_interaction:GLU:88    0
Name: 89, dtype: object

>  <halogenbond:GLU:88>  (90) 
halogenbond:GLU:88    0
halogenbond:GLU:88    0
Name: 89, dtype: object

>  <saltbridge:GLU:88>  (90) 
saltbridge:GLU:88    0
saltbridge:GLU:88    0
Name: 89, dtype: object

>  <hydroph_interaction:TYR:89>  (90) 
hydroph_interaction:TYR:89    0
hydroph_interaction:TYR:89    0
Name: 89, dtype: object

>  <pistack:TYR:89>  (90) 
pistack:TYR:89    0
pistack:TYR:89    0
Name: 89, dtype: object

>  <hbond:TYR:89>  (90) 
hbond:TYR:89    0
hbond:TYR:89    0
Name: 89, dtype: object

>  <halogenbond:TYR:89>  (90) 
halogenbond:TYR:89    0
halogenbond:TYR:89    0
Name: 89, dtype: object

>  <hbond:TYR:90>  (90) 
hbond:TYR:90    0
hbond:TYR:90    0
Name: 89, dtype: object

>  <hydroph_interaction:TYR:90>  (90) 
hydroph_interaction:TYR:90    0
hydroph_interaction:TYR:90    0
Name: 89, dtype: object

>  <pistack:TYR:90>  (90) 
pistack:TYR:90    0
pistack:TYR:90    0
Name: 89, dtype: object

>  <halogenbond:TYR:90>  (90) 
halogenbond:TYR:90    0
halogenbond:TYR:90    0
Name: 89, dtype: object

>  <pication:TYR:90>  (90) 
pication:TYR:90    0
pication:TYR:90    0
Name: 89, dtype: object

>  <hydroph_interaction:PRO:91>  (90) 
hydroph_interaction:PRO:91    0
hydroph_interaction:PRO:91    0
Name: 89, dtype: object

>  <halogenbond:PRO:91>  (90) 
halogenbond:PRO:91    0
halogenbond:PRO:91    0
Name: 89, dtype: object

>  <hbond:PRO:91>  (90) 
hbond:PRO:91    0
hbond:PRO:91    0
Name: 89, dtype: object

>  <hydroph_interaction:ALA:92>  (90) 
hydroph_interaction:ALA:92    0
hydroph_interaction:ALA:92    0
Name: 89, dtype: object

>  <hbond:ARG:93>  (90) 
hbond:ARG:93    0
hbond:ARG:93    0
Name: 89, dtype: object

>  <pication:ARG:93>  (90) 
pication:ARG:93    0
pication:ARG:93    0
Name: 89, dtype: object

>  <saltbridge:ARG:93>  (90) 
saltbridge:ARG:93    0
saltbridge:ARG:93    0
Name: 89, dtype: object

>  <hydroph_interaction:ARG:93>  (90) 
hydroph_interaction:ARG:93    0
hydroph_interaction:ARG:93    0
Name: 89, dtype: object

>  <halogenbond:ARG:93>  (90) 
halogenbond:ARG:93    0
halogenbond:ARG:93    0
Name: 89, dtype: object

>  <hydroph_interaction:TYR:94>  (90) 
hydroph_interaction:TYR:94    0
hydroph_interaction:TYR:94    0
Name: 89, dtype: object

>  <hbond:TYR:94>  (90) 
hbond:TYR:94    0
hbond:TYR:94    0
Name: 89, dtype: object

>  <halogenbond:GLN:95>  (90) 
halogenbond:GLN:95    0
halogenbond:GLN:95    0
Name: 89, dtype: object

>  <hbond:GLN:95>  (90) 
hbond:GLN:95    0
hbond:GLN:95    0
Name: 89, dtype: object

>  <hydroph_interaction:GLN:95>  (90) 
hydroph_interaction:GLN:95    0
hydroph_interaction:GLN:95    0
Name: 89, dtype: object

>  <hbond:SER:96>  (90) 
hbond:SER:96    0
hbond:SER:96    0
Name: 89, dtype: object

>  <hydroph_interaction:LEU:98>  (90) 
hydroph_interaction:LEU:98    0
hydroph_interaction:LEU:98    0
Name: 89, dtype: object

>  <hbond:LEU:98>  (90) 
hbond:LEU:98    0
hbond:LEU:98    0
Name: 89, dtype: object

>  <hbond:MET:99>  (90) 
hbond:MET:99    0
hbond:MET:99    0
Name: 89, dtype: object

>  <hydroph_interaction:MET:99>  (90) 
hydroph_interaction:MET:99    0
hydroph_interaction:MET:99    0
Name: 89, dtype: object

>  <halogenbond:MET:99>  (90) 
halogenbond:MET:99    0
halogenbond:MET:99    0
Name: 89, dtype: object

>  <hydroph_interaction:LEU:100>  (90) 
hydroph_interaction:LEU:100    0
hydroph_interaction:LEU:100    0
Name: 89, dtype: object

>  <hbond:LEU:100>  (90) 
hbond:LEU:100    0
hbond:LEU:100    0
Name: 89, dtype: object

>  <hbond:ALA:101>  (90) 
hbond:ALA:101    0
hbond:ALA:101    0
Name: 89, dtype: object

>  <hydroph_interaction:ALA:101>  (90) 
hydroph_interaction:ALA:101    0
hydroph_interaction:ALA:101    0
Name: 89, dtype: object

>  <hydroph_interaction:VAL:102>  (90) 
hydroph_interaction:VAL:102    0
hydroph_interaction:VAL:102    0
Name: 89, dtype: object

>  <hbond:VAL:102>  (90) 
hbond:VAL:102    0
hbond:VAL:102    0
Name: 89, dtype: object

>  <hbond:GLY:103>  (90) 
hbond:GLY:103    0
hbond:GLY:103    0
Name: 89, dtype: object

>  <halogenbond:GLY:103>  (90) 
halogenbond:GLY:103    0
halogenbond:GLY:103    0
Name: 89, dtype: object

>  <hydroph_interaction:HIS:104>  (90) 
hydroph_interaction:HIS:104    0
hydroph_interaction:HIS:104    0
Name: 89, dtype: object

>  <hbond:HIS:104>  (90) 
hbond:HIS:104    0
hbond:HIS:104    0
Name: 89, dtype: object

>  <saltbridge:HIS:104>  (90) 
saltbridge:HIS:104    0
saltbridge:HIS:104    0
Name: 89, dtype: object

>  <pication:HIS:104>  (90) 
pication:HIS:104    0
pication:HIS:104    0
Name: 89, dtype: object

>  <pistack:HIS:104>  (90) 
pistack:HIS:104    0
pistack:HIS:104    0
Name: 89, dtype: object

>  <halogenbond:HIS:104>  (90) 
halogenbond:HIS:104    0
halogenbond:HIS:104    0
Name: 89, dtype: object

>  <hbond:SER:105>  (90) 
hbond:SER:105    1
hbond:SER:105    1
Name: 89, dtype: object

>  <halogenbond:SER:105>  (90) 
halogenbond:SER:105    0
halogenbond:SER:105    0
Name: 89, dtype: object

>  <hbond:GLU:106>  (90) 
hbond:GLU:106    0
hbond:GLU:106    0
Name: 89, dtype: object

>  <hydroph_interaction:GLU:106>  (90) 
hydroph_interaction:GLU:106    0
hydroph_interaction:GLU:106    0
Name: 89, dtype: object

>  <saltbridge:GLU:106>  (90) 
saltbridge:GLU:106    0
saltbridge:GLU:106    0
Name: 89, dtype: object

>  <halogenbond:GLU:106>  (90) 
halogenbond:GLU:106    0
halogenbond:GLU:106    0
Name: 89, dtype: object

>  <hydroph_interaction:PRO:107>  (90) 
hydroph_interaction:PRO:107    1
hydroph_interaction:PRO:107    1
Name: 89, dtype: object

>  <hbond:PRO:107>  (90) 
hbond:PRO:107    0
hbond:PRO:107    0
Name: 89, dtype: object

>  <halogenbond:PRO:107>  (90) 
halogenbond:PRO:107    0
halogenbond:PRO:107    0
Name: 89, dtype: object

>  <hbond:GLY:108>  (90) 
hbond:GLY:108    0
hbond:GLY:108    0
Name: 89, dtype: object

>  <halogenbond:GLY:108>  (90) 
halogenbond:GLY:108    0
halogenbond:GLY:108    0
Name: 89, dtype: object

>  <hbond:ASP:109>  (90) 
hbond:ASP:109    0
hbond:ASP:109    0
Name: 89, dtype: object

>  <hydroph_interaction:ASP:109>  (90) 
hydroph_interaction:ASP:109    0
hydroph_interaction:ASP:109    0
Name: 89, dtype: object

>  <saltbridge:ASP:109>  (90) 
saltbridge:ASP:109    0
saltbridge:ASP:109    0
Name: 89, dtype: object

>  <hbond:CYS:110>  (90) 
hbond:CYS:110    0
hbond:CYS:110    0
Name: 89, dtype: object

>  <halogenbond:CYS:110>  (90) 
halogenbond:CYS:110    0
halogenbond:CYS:110    0
Name: 89, dtype: object

>  <hbond:GLY:111>  (90) 
hbond:GLY:111    0
hbond:GLY:111    0
Name: 89, dtype: object

>  <hbond:GLY:112>  (90) 
hbond:GLY:112    0
hbond:GLY:112    0
Name: 89, dtype: object

>  <hbond:ILE:113>  (90) 
hbond:ILE:113    0
hbond:ILE:113    0
Name: 89, dtype: object

>  <hydroph_interaction:LEU:114>  (90) 
hydroph_interaction:LEU:114    0
hydroph_interaction:LEU:114    0
Name: 89, dtype: object

>  <hbond:LEU:114>  (90) 
hbond:LEU:114    0
hbond:LEU:114    0
Name: 89, dtype: object

>  <hydroph_interaction:ILE:123>  (90) 
hydroph_interaction:ILE:123    0
hydroph_interaction:ILE:123    0
Name: 89, dtype: object

>  <hbond:ILE:123>  (90) 
hbond:ILE:123    0
hbond:ILE:123    0
Name: 89, dtype: object

>  <hydroph_interaction:VAL:124>  (90) 
hydroph_interaction:VAL:124    0
hydroph_interaction:VAL:124    0
Name: 89, dtype: object

>  <hbond:VAL:124>  (90) 
hbond:VAL:124    0
hbond:VAL:124    0
Name: 89, dtype: object

>  <halogenbond:VAL:124>  (90) 
halogenbond:VAL:124    0
halogenbond:VAL:124    0
Name: 89, dtype: object

>  <hbond:SER:125>  (90) 
hbond:SER:125    0
hbond:SER:125    0
Name: 89, dtype: object

>  <halogenbond:SER:125>  (90) 
halogenbond:SER:125    0
halogenbond:SER:125    0
Name: 89, dtype: object

>  <hydroph_interaction:THR:126>  (90) 
hydroph_interaction:THR:126    1
hydroph_interaction:THR:126    1
Name: 89, dtype: object

>  <hbond:THR:126>  (90) 
hbond:THR:126    0
hbond:THR:126    0
Name: 89, dtype: object

>  <halogenbond:THR:126>  (90) 
halogenbond:THR:126    0
halogenbond:THR:126    0
Name: 89, dtype: object

>  <hbond:GLY:127>  (90) 
hbond:GLY:127    0
hbond:GLY:127    0
Name: 89, dtype: object

>  <halogenbond:GLY:127>  (90) 
halogenbond:GLY:127    0
halogenbond:GLY:127    0
Name: 89, dtype: object

>  <hydroph_interaction:GLY:127>  (90) 
hydroph_interaction:GLY:127    0
hydroph_interaction:GLY:127    0
Name: 89, dtype: object

>  <hbond:GLY:128>  (90) 
hbond:GLY:128    0
hbond:GLY:128    0
Name: 89, dtype: object

>  <halogenbond:GLY:128>  (90) 
halogenbond:GLY:128    0
halogenbond:GLY:128    0
Name: 89, dtype: object

>  <hydroph_interaction:GLY:128>  (90) 
hydroph_interaction:GLY:128    0
hydroph_interaction:GLY:128    0
Name: 89, dtype: object

>  <hbond:ASN:129>  (90) 
hbond:ASN:129    0
hbond:ASN:129    0
Name: 89, dtype: object

>  <hydroph_interaction:ASN:129>  (90) 
hydroph_interaction:ASN:129    0
hydroph_interaction:ASN:129    0
Name: 89, dtype: object

>  <halogenbond:ASN:129>  (90) 
halogenbond:ASN:129    0
halogenbond:ASN:129    0
Name: 89, dtype: object

>  <hbond:GLY:130>  (90) 
hbond:GLY:130    0
hbond:GLY:130    0
Name: 89, dtype: object

>  <hydroph_interaction:LEU:131>  (90) 
hydroph_interaction:LEU:131    0
hydroph_interaction:LEU:131    0
Name: 89, dtype: object

>  <hbond:LEU:131>  (90) 
hbond:LEU:131    0
hbond:LEU:131    0
Name: 89, dtype: object

>  <halogenbond:LEU:131>  (90) 
halogenbond:LEU:131    0
halogenbond:LEU:131    0
Name: 89, dtype: object

>  <hydroph_interaction:VAL:132>  (90) 
hydroph_interaction:VAL:132    0
hydroph_interaction:VAL:132    0
Name: 89, dtype: object

>  <hbond:VAL:132>  (90) 
hbond:VAL:132    0
hbond:VAL:132    0
Name: 89, dtype: object

>  <hbond:GLY:133>  (90) 
hbond:GLY:133    0
hbond:GLY:133    0
Name: 89, dtype: object

>  <halogenbond:GLY:133>  (90) 
halogenbond:GLY:133    0
halogenbond:GLY:133    0
Name: 89, dtype: object

>  <hydroph_interaction:PHE:134>  (90) 
hydroph_interaction:PHE:134    0
hydroph_interaction:PHE:134    0
Name: 89, dtype: object

>  <hbond:PHE:134>  (90) 
hbond:PHE:134    0
hbond:PHE:134    0
Name: 89, dtype: object

>  <pistack:PHE:134>  (90) 
pistack:PHE:134    0
pistack:PHE:134    0
Name: 89, dtype: object

>  <pication:PHE:134>  (90) 
pication:PHE:134    0
pication:PHE:134    0
Name: 89, dtype: object

>  <hydroph_interaction:ALA:135>  (90) 
hydroph_interaction:ALA:135    0
hydroph_interaction:ALA:135    0
Name: 89, dtype: object

>  <hbond:ALA:135>  (90) 
hbond:ALA:135    0
hbond:ALA:135    0
Name: 89, dtype: object

$$$$
Z4450632396
     RDKit          3D

 28 29  0  0  0  0  0  0  0  0999 V2000
   10.2490    9.2340   22.6490 C   0  0  0  0  0  0  0  0  0  0  0  0
    9.5570   10.3510   23.3530 C   0  0  0  0  0  0  0  0  0  0  0  0
    8.5150   10.1600   24.2570 C   0  0  0  0  0  0  0  0  0  0  0  0
    7.8630   11.1580   24.8870 N   0  0  0  0  0  0  0  0  0  0  0  0
    8.2850   12.4120   24.5980 C   0  0  0  0  0  0  0  0  0  0  0  0
    7.3760   13.8510   25.4330 Br  0  0  0  0  0  0  0  0  0  0  0  0
    9.3250   12.7020   23.7330 C   0  0  0  0  0  0  0  0  0  0  0  0
    9.6630   14.0010   23.5550 O   0  0  0  0  0  0  0  0  0  0  0  0
   11.0520   14.2170   23.3470 C   0  0  0  0  0  0  0  0  0  0  0  0
   11.2170   14.4350   21.8770 C   0  0  0  0  0  0  0  0  0  0  0  0
   10.1300   14.8320   21.0920 C   0  0  0  0  0  0  0  0  0  0  0  0
   10.3250   15.0440   19.6250 C   0  0  0  0  0  0  0  0  0  0  0  0
   11.5810   14.8310   19.0770 C   0  0  0  0  0  0  0  0  0  0  0  0
   12.6330   14.4340   19.9070 C   0  0  0  0  0  0  0  0  0  0  0  0
   12.4590   14.2420   21.2760 C   0  0  0  0  0  0  0  0  0  0  0  0
    9.9550   11.6460   23.1050 C   0  0  0  0  0  0  0  0  0  0  0  0
    9.5130    8.6130   22.1430 H   0  0  0  0  0  0  0  0  0  0  0  0
   10.9160    9.6250   21.8800 H   0  0  0  0  0  0  0  0  0  0  0  0
   10.8540    8.6260   23.3230 H   0  0  0  0  0  0  0  0  0  0  0  0
    8.1680    9.1630   24.4950 H   0  0  0  0  0  0  0  0  0  0  0  0
   11.6350   13.3370   23.6520 H   0  0  0  0  0  0  0  0  0  0  0  0
   11.4140   15.0920   23.8950 H   0  0  0  0  0  0  0  0  0  0  0  0
    9.1490   14.9890   21.5320 H   0  0  0  0  0  0  0  0  0  0  0  0
    9.4970   15.3580   18.9960 H   0  0  0  0  0  0  0  0  0  0  0  0
   11.7490   14.9720   18.0110 H   0  0  0  0  0  0  0  0  0  0  0  0
   13.6090   14.2690   19.4790 H   0  0  0  0  0  0  0  0  0  0  0  0
   13.3110   13.9330   21.8760 H   0  0  0  0  0  0  0  0  0  0  0  0
   10.7710   11.8060   22.4080 H   0  0  0  0  0  0  0  0  0  0  0  0
  1  2  1  0
  2  3  2  0
  3  4  1  0
  4  5  2  0
  5  6  1  0
  5  7  1  0
  7  8  1  0
  8  9  1  0
  9 10  1  0
 10 11  2  0
 11 12  1  0
 12 13  2  0
 13 14  1  0
 14 15  2  0
  7 16  2  0
 16  2  1  0
 15 10  1  0
  1 17  1  0
  1 18  1  0
  1 19  1  0
  3 20  1  0
  9 21  1  0
  9 22  1  0
 11 23  1  0
 12 24  1  0
 13 25  1  0
 14 26  1  0
 15 27  1  0
 16 28  1  0
A    1
 C1 
A    2
 C2 
A    3
 C3 
A    4
 N1 
A    5
 C4 
A    6
BR1 
A    7
 C5 
A    8
 O1 
A    9
 C6 
A   10
 C7 
A   11
 C8 
A   12
 C9 
A   13
 C10
A   14
 C11
A   15
 C12
A   16
 C13
A   17
 H1 
A   18
 H2 
A   19
 H3 
A   20
 H4 
A   21
 H5 
A   22
 H6 
A   23
 H7 
A   24
 H8 
A   25
 H9 
A   26
 H10
A   27
 H11
A   28
 H12
M  END
>  <ref_pdb>  (91) 
x0310_0A

>  <ref_mols>  (91) 
x0416_0A,x0556_0A

>  <original SMILES>  (91) 
Cc1cnc(Br)c(OCc2ccccc2)c1

>  <rationale>  (91) 
info hydroph_interaction:V124+Y90+T126; 

>  <intxn_cluster>  (91) 
107

>  <intxn_cluster_rank>  (91) 
32

>  <N_interactions>  (91) 
4

>  <∆∆G>  (91) 
-11.027972

>  <$/mg>  (91) 
163.0

>  <comRMSD>  (91) 
0.770838

>  <N_rotatable_bonds>  (91) 
4

>  <N_analogues_07>  (91) 
0

>  <deep_P1_sidechain>  (91) 
True

>  <farthest_distance_to_substrate>  (91) 
2.273343

>  <hbond:SER:7>  (91) 
hbond:SER:7    0
hbond:SER:7    0
Name: 90, dtype: object

>  <halogenbond:SER:7>  (91) 
halogenbond:SER:7    0
halogenbond:SER:7    0
Name: 90, dtype: object

>  <hbond:GLY:8>  (91) 
hbond:GLY:8    0
hbond:GLY:8    0
Name: 90, dtype: object

>  <hydroph_interaction:ASN:19>  (91) 
hydroph_interaction:ASN:19    0
hydroph_interaction:ASN:19    0
Name: 90, dtype: object

>  <hbond:ASN:19>  (91) 
hbond:ASN:19    0
hbond:ASN:19    0
Name: 90, dtype: object

>  <halogenbond:ASN:19>  (91) 
halogenbond:ASN:19    0
halogenbond:ASN:19    0
Name: 90, dtype: object

>  <hbond:ARG:20>  (91) 
hbond:ARG:20    0
hbond:ARG:20    0
Name: 90, dtype: object

>  <hydroph_interaction:ARG:20>  (91) 
hydroph_interaction:ARG:20    0
hydroph_interaction:ARG:20    0
Name: 90, dtype: object

>  <saltbridge:ARG:20>  (91) 
saltbridge:ARG:20    0
saltbridge:ARG:20    0
Name: 90, dtype: object

>  <halogenbond:ARG:20>  (91) 
halogenbond:ARG:20    0
halogenbond:ARG:20    0
Name: 90, dtype: object

>  <pication:ARG:20>  (91) 
pication:ARG:20    0
pication:ARG:20    0
Name: 90, dtype: object

>  <hbond:HIS:21>  (91) 
hbond:HIS:21    0
hbond:HIS:21    0
Name: 90, dtype: object

>  <hydroph_interaction:HIS:21>  (91) 
hydroph_interaction:HIS:21    0
hydroph_interaction:HIS:21    0
Name: 90, dtype: object

>  <saltbridge:HIS:21>  (91) 
saltbridge:HIS:21    0
saltbridge:HIS:21    0
Name: 90, dtype: object

>  <pistack:HIS:21>  (91) 
pistack:HIS:21    0
pistack:HIS:21    0
Name: 90, dtype: object

>  <pication:HIS:21>  (91) 
pication:HIS:21    0
pication:HIS:21    0
Name: 90, dtype: object

>  <halogenbond:HIS:21>  (91) 
halogenbond:HIS:21    0
halogenbond:HIS:21    0
Name: 90, dtype: object

>  <hydroph_interaction:LEU:22>  (91) 
hydroph_interaction:LEU:22    0
hydroph_interaction:LEU:22    0
Name: 90, dtype: object

>  <hbond:LEU:22>  (91) 
hbond:LEU:22    0
hbond:LEU:22    0
Name: 90, dtype: object

>  <hydroph_interaction:TRP:28>  (91) 
hydroph_interaction:TRP:28    0
hydroph_interaction:TRP:28    0
Name: 90, dtype: object

>  <hbond:SER:36>  (91) 
hbond:SER:36    0
hbond:SER:36    0
Name: 90, dtype: object

>  <halogenbond:SER:36>  (91) 
halogenbond:SER:36    0
halogenbond:SER:36    0
Name: 90, dtype: object

>  <hbond:ARG:38>  (91) 
hbond:ARG:38    0
hbond:ARG:38    0
Name: 90, dtype: object

>  <halogenbond:ARG:38>  (91) 
halogenbond:ARG:38    0
halogenbond:ARG:38    0
Name: 90, dtype: object

>  <hbond:ASP:39>  (91) 
hbond:ASP:39    0
hbond:ASP:39    0
Name: 90, dtype: object

>  <saltbridge:ASP:39>  (91) 
saltbridge:ASP:39    0
saltbridge:ASP:39    0
Name: 90, dtype: object

>  <hydroph_interaction:ASP:39>  (91) 
hydroph_interaction:ASP:39    0
hydroph_interaction:ASP:39    0
Name: 90, dtype: object

>  <halogenbond:ASP:39>  (91) 
halogenbond:ASP:39    0
halogenbond:ASP:39    0
Name: 90, dtype: object

>  <hydroph_interaction:LEU:40>  (91) 
hydroph_interaction:LEU:40    0
hydroph_interaction:LEU:40    0
Name: 90, dtype: object

>  <hydroph_interaction:TYR:63>  (91) 
hydroph_interaction:TYR:63    0
hydroph_interaction:TYR:63    0
Name: 90, dtype: object

>  <pistack:TYR:63>  (91) 
pistack:TYR:63    0
pistack:TYR:63    0
Name: 90, dtype: object

>  <hbond:TYR:63>  (91) 
hbond:TYR:63    0
hbond:TYR:63    0
Name: 90, dtype: object

>  <hbond:TYR:64>  (91) 
hbond:TYR:64    0
hbond:TYR:64    0
Name: 90, dtype: object

>  <halogenbond:TYR:64>  (91) 
halogenbond:TYR:64    0
halogenbond:TYR:64    0
Name: 90, dtype: object

>  <hydroph_interaction:TYR:64>  (91) 
hydroph_interaction:TYR:64    0
hydroph_interaction:TYR:64    0
Name: 90, dtype: object

>  <hbond:CYS:65>  (91) 
hbond:CYS:65    0
hbond:CYS:65    0
Name: 90, dtype: object

>  <halogenbond:CYS:65>  (91) 
halogenbond:CYS:65    0
halogenbond:CYS:65    0
Name: 90, dtype: object

>  <hbond:SER:66>  (91) 
hbond:SER:66    0
hbond:SER:66    0
Name: 90, dtype: object

>  <hbond:SER:67>  (91) 
hbond:SER:67    0
hbond:SER:67    0
Name: 90, dtype: object

>  <halogenbond:SER:67>  (91) 
halogenbond:SER:67    0
halogenbond:SER:67    0
Name: 90, dtype: object

>  <hydroph_interaction:ARG:68>  (91) 
hydroph_interaction:ARG:68    0
hydroph_interaction:ARG:68    0
Name: 90, dtype: object

>  <hbond:ARG:68>  (91) 
hbond:ARG:68    0
hbond:ARG:68    0
Name: 90, dtype: object

>  <saltbridge:ARG:68>  (91) 
saltbridge:ARG:68    0
saltbridge:ARG:68    0
Name: 90, dtype: object

>  <pication:ARG:68>  (91) 
pication:ARG:68    0
pication:ARG:68    0
Name: 90, dtype: object

>  <hydroph_interaction:TYR:72>  (91) 
hydroph_interaction:TYR:72    0
hydroph_interaction:TYR:72    0
Name: 90, dtype: object

>  <hydroph_interaction:VAL:74>  (91) 
hydroph_interaction:VAL:74    0
hydroph_interaction:VAL:74    0
Name: 90, dtype: object

>  <hydroph_interaction:PHE:76>  (91) 
hydroph_interaction:PHE:76    0
hydroph_interaction:PHE:76    0
Name: 90, dtype: object

>  <hbond:SER:77>  (91) 
hbond:SER:77    0
hbond:SER:77    0
Name: 90, dtype: object

>  <hbond:SER:80>  (91) 
hbond:SER:80    0
hbond:SER:80    0
Name: 90, dtype: object

>  <hbond:LEU:81>  (91) 
hbond:LEU:81    0
hbond:LEU:81    0
Name: 90, dtype: object

>  <halogenbond:LEU:81>  (91) 
halogenbond:LEU:81    0
halogenbond:LEU:81    0
Name: 90, dtype: object

>  <hydroph_interaction:LEU:81>  (91) 
hydroph_interaction:LEU:81    0
hydroph_interaction:LEU:81    0
Name: 90, dtype: object

>  <hydroph_interaction:ILE:82>  (91) 
hydroph_interaction:ILE:82    0
hydroph_interaction:ILE:82    0
Name: 90, dtype: object

>  <hbond:ILE:82>  (91) 
hbond:ILE:82    0
hbond:ILE:82    0
Name: 90, dtype: object

>  <hydroph_interaction:PHE:83>  (91) 
hydroph_interaction:PHE:83    0
hydroph_interaction:PHE:83    0
Name: 90, dtype: object

>  <hbond:PHE:83>  (91) 
hbond:PHE:83    0
hbond:PHE:83    0
Name: 90, dtype: object

>  <halogenbond:PHE:83>  (91) 
halogenbond:PHE:83    0
halogenbond:PHE:83    0
Name: 90, dtype: object

>  <pistack:PHE:83>  (91) 
pistack:PHE:83    0
pistack:PHE:83    0
Name: 90, dtype: object

>  <hydroph_interaction:VAL:84>  (91) 
hydroph_interaction:VAL:84    0
hydroph_interaction:VAL:84    0
Name: 90, dtype: object

>  <hbond:VAL:84>  (91) 
hbond:VAL:84    0
hbond:VAL:84    0
Name: 90, dtype: object

>  <halogenbond:VAL:84>  (91) 
halogenbond:VAL:84    0
halogenbond:VAL:84    0
Name: 90, dtype: object

>  <hydroph_interaction:GLU:85>  (91) 
hydroph_interaction:GLU:85    0
hydroph_interaction:GLU:85    0
Name: 90, dtype: object

>  <hbond:GLU:85>  (91) 
hbond:GLU:85    0
hbond:GLU:85    0
Name: 90, dtype: object

>  <saltbridge:GLU:85>  (91) 
saltbridge:GLU:85    0
saltbridge:GLU:85    0
Name: 90, dtype: object

>  <halogenbond:GLU:85>  (91) 
halogenbond:GLU:85    0
halogenbond:GLU:85    0
Name: 90, dtype: object

>  <hbond:ALA:86>  (91) 
hbond:ALA:86    0
hbond:ALA:86    0
Name: 90, dtype: object

>  <halogenbond:ALA:86>  (91) 
halogenbond:ALA:86    0
halogenbond:ALA:86    0
Name: 90, dtype: object

>  <hydroph_interaction:ALA:86>  (91) 
hydroph_interaction:ALA:86    0
hydroph_interaction:ALA:86    0
Name: 90, dtype: object

>  <hbond:SER:87>  (91) 
hbond:SER:87    0
hbond:SER:87    0
Name: 90, dtype: object

>  <halogenbond:SER:87>  (91) 
halogenbond:SER:87    0
halogenbond:SER:87    0
Name: 90, dtype: object

>  <hbond:GLU:88>  (91) 
hbond:GLU:88    0
hbond:GLU:88    0
Name: 90, dtype: object

>  <hydroph_interaction:GLU:88>  (91) 
hydroph_interaction:GLU:88    0
hydroph_interaction:GLU:88    0
Name: 90, dtype: object

>  <halogenbond:GLU:88>  (91) 
halogenbond:GLU:88    0
halogenbond:GLU:88    0
Name: 90, dtype: object

>  <saltbridge:GLU:88>  (91) 
saltbridge:GLU:88    0
saltbridge:GLU:88    0
Name: 90, dtype: object

>  <hydroph_interaction:TYR:89>  (91) 
hydroph_interaction:TYR:89    0
hydroph_interaction:TYR:89    0
Name: 90, dtype: object

>  <pistack:TYR:89>  (91) 
pistack:TYR:89    0
pistack:TYR:89    0
Name: 90, dtype: object

>  <hbond:TYR:89>  (91) 
hbond:TYR:89    0
hbond:TYR:89    0
Name: 90, dtype: object

>  <halogenbond:TYR:89>  (91) 
halogenbond:TYR:89    0
halogenbond:TYR:89    0
Name: 90, dtype: object

>  <hbond:TYR:90>  (91) 
hbond:TYR:90    0
hbond:TYR:90    0
Name: 90, dtype: object

>  <hydroph_interaction:TYR:90>  (91) 
hydroph_interaction:TYR:90    2
hydroph_interaction:TYR:90    2
Name: 90, dtype: object

>  <pistack:TYR:90>  (91) 
pistack:TYR:90    0
pistack:TYR:90    0
Name: 90, dtype: object

>  <halogenbond:TYR:90>  (91) 
halogenbond:TYR:90    0
halogenbond:TYR:90    0
Name: 90, dtype: object

>  <pication:TYR:90>  (91) 
pication:TYR:90    0
pication:TYR:90    0
Name: 90, dtype: object

>  <hydroph_interaction:PRO:91>  (91) 
hydroph_interaction:PRO:91    0
hydroph_interaction:PRO:91    0
Name: 90, dtype: object

>  <halogenbond:PRO:91>  (91) 
halogenbond:PRO:91    0
halogenbond:PRO:91    0
Name: 90, dtype: object

>  <hbond:PRO:91>  (91) 
hbond:PRO:91    0
hbond:PRO:91    0
Name: 90, dtype: object

>  <hydroph_interaction:ALA:92>  (91) 
hydroph_interaction:ALA:92    0
hydroph_interaction:ALA:92    0
Name: 90, dtype: object

>  <hbond:ARG:93>  (91) 
hbond:ARG:93    0
hbond:ARG:93    0
Name: 90, dtype: object

>  <pication:ARG:93>  (91) 
pication:ARG:93    0
pication:ARG:93    0
Name: 90, dtype: object

>  <saltbridge:ARG:93>  (91) 
saltbridge:ARG:93    0
saltbridge:ARG:93    0
Name: 90, dtype: object

>  <hydroph_interaction:ARG:93>  (91) 
hydroph_interaction:ARG:93    0
hydroph_interaction:ARG:93    0
Name: 90, dtype: object

>  <halogenbond:ARG:93>  (91) 
halogenbond:ARG:93    0
halogenbond:ARG:93    0
Name: 90, dtype: object

>  <hydroph_interaction:TYR:94>  (91) 
hydroph_interaction:TYR:94    0
hydroph_interaction:TYR:94    0
Name: 90, dtype: object

>  <hbond:TYR:94>  (91) 
hbond:TYR:94    0
hbond:TYR:94    0
Name: 90, dtype: object

>  <halogenbond:GLN:95>  (91) 
halogenbond:GLN:95    0
halogenbond:GLN:95    0
Name: 90, dtype: object

>  <hbond:GLN:95>  (91) 
hbond:GLN:95    0
hbond:GLN:95    0
Name: 90, dtype: object

>  <hydroph_interaction:GLN:95>  (91) 
hydroph_interaction:GLN:95    0
hydroph_interaction:GLN:95    0
Name: 90, dtype: object

>  <hbond:SER:96>  (91) 
hbond:SER:96    0
hbond:SER:96    0
Name: 90, dtype: object

>  <hydroph_interaction:LEU:98>  (91) 
hydroph_interaction:LEU:98    0
hydroph_interaction:LEU:98    0
Name: 90, dtype: object

>  <hbond:LEU:98>  (91) 
hbond:LEU:98    0
hbond:LEU:98    0
Name: 90, dtype: object

>  <hbond:MET:99>  (91) 
hbond:MET:99    0
hbond:MET:99    0
Name: 90, dtype: object

>  <hydroph_interaction:MET:99>  (91) 
hydroph_interaction:MET:99    0
hydroph_interaction:MET:99    0
Name: 90, dtype: object

>  <halogenbond:MET:99>  (91) 
halogenbond:MET:99    0
halogenbond:MET:99    0
Name: 90, dtype: object

>  <hydroph_interaction:LEU:100>  (91) 
hydroph_interaction:LEU:100    0
hydroph_interaction:LEU:100    0
Name: 90, dtype: object

>  <hbond:LEU:100>  (91) 
hbond:LEU:100    0
hbond:LEU:100    0
Name: 90, dtype: object

>  <hbond:ALA:101>  (91) 
hbond:ALA:101    0
hbond:ALA:101    0
Name: 90, dtype: object

>  <hydroph_interaction:ALA:101>  (91) 
hydroph_interaction:ALA:101    0
hydroph_interaction:ALA:101    0
Name: 90, dtype: object

>  <hydroph_interaction:VAL:102>  (91) 
hydroph_interaction:VAL:102    0
hydroph_interaction:VAL:102    0
Name: 90, dtype: object

>  <hbond:VAL:102>  (91) 
hbond:VAL:102    0
hbond:VAL:102    0
Name: 90, dtype: object

>  <hbond:GLY:103>  (91) 
hbond:GLY:103    0
hbond:GLY:103    0
Name: 90, dtype: object

>  <halogenbond:GLY:103>  (91) 
halogenbond:GLY:103    0
halogenbond:GLY:103    0
Name: 90, dtype: object

>  <hydroph_interaction:HIS:104>  (91) 
hydroph_interaction:HIS:104    0
hydroph_interaction:HIS:104    0
Name: 90, dtype: object

>  <hbond:HIS:104>  (91) 
hbond:HIS:104    0
hbond:HIS:104    0
Name: 90, dtype: object

>  <saltbridge:HIS:104>  (91) 
saltbridge:HIS:104    0
saltbridge:HIS:104    0
Name: 90, dtype: object

>  <pication:HIS:104>  (91) 
pication:HIS:104    0
pication:HIS:104    0
Name: 90, dtype: object

>  <pistack:HIS:104>  (91) 
pistack:HIS:104    0
pistack:HIS:104    0
Name: 90, dtype: object

>  <halogenbond:HIS:104>  (91) 
halogenbond:HIS:104    0
halogenbond:HIS:104    0
Name: 90, dtype: object

>  <hbond:SER:105>  (91) 
hbond:SER:105    0
hbond:SER:105    0
Name: 90, dtype: object

>  <halogenbond:SER:105>  (91) 
halogenbond:SER:105    0
halogenbond:SER:105    0
Name: 90, dtype: object

>  <hbond:GLU:106>  (91) 
hbond:GLU:106    0
hbond:GLU:106    0
Name: 90, dtype: object

>  <hydroph_interaction:GLU:106>  (91) 
hydroph_interaction:GLU:106    0
hydroph_interaction:GLU:106    0
Name: 90, dtype: object

>  <saltbridge:GLU:106>  (91) 
saltbridge:GLU:106    0
saltbridge:GLU:106    0
Name: 90, dtype: object

>  <halogenbond:GLU:106>  (91) 
halogenbond:GLU:106    0
halogenbond:GLU:106    0
Name: 90, dtype: object

>  <hydroph_interaction:PRO:107>  (91) 
hydroph_interaction:PRO:107    0
hydroph_interaction:PRO:107    0
Name: 90, dtype: object

>  <hbond:PRO:107>  (91) 
hbond:PRO:107    0
hbond:PRO:107    0
Name: 90, dtype: object

>  <halogenbond:PRO:107>  (91) 
halogenbond:PRO:107    0
halogenbond:PRO:107    0
Name: 90, dtype: object

>  <hbond:GLY:108>  (91) 
hbond:GLY:108    0
hbond:GLY:108    0
Name: 90, dtype: object

>  <halogenbond:GLY:108>  (91) 
halogenbond:GLY:108    0
halogenbond:GLY:108    0
Name: 90, dtype: object

>  <hbond:ASP:109>  (91) 
hbond:ASP:109    0
hbond:ASP:109    0
Name: 90, dtype: object

>  <hydroph_interaction:ASP:109>  (91) 
hydroph_interaction:ASP:109    0
hydroph_interaction:ASP:109    0
Name: 90, dtype: object

>  <saltbridge:ASP:109>  (91) 
saltbridge:ASP:109    0
saltbridge:ASP:109    0
Name: 90, dtype: object

>  <hbond:CYS:110>  (91) 
hbond:CYS:110    0
hbond:CYS:110    0
Name: 90, dtype: object

>  <halogenbond:CYS:110>  (91) 
halogenbond:CYS:110    0
halogenbond:CYS:110    0
Name: 90, dtype: object

>  <hbond:GLY:111>  (91) 
hbond:GLY:111    0
hbond:GLY:111    0
Name: 90, dtype: object

>  <hbond:GLY:112>  (91) 
hbond:GLY:112    0
hbond:GLY:112    0
Name: 90, dtype: object

>  <hbond:ILE:113>  (91) 
hbond:ILE:113    0
hbond:ILE:113    0
Name: 90, dtype: object

>  <hydroph_interaction:LEU:114>  (91) 
hydroph_interaction:LEU:114    0
hydroph_interaction:LEU:114    0
Name: 90, dtype: object

>  <hbond:LEU:114>  (91) 
hbond:LEU:114    0
hbond:LEU:114    0
Name: 90, dtype: object

>  <hydroph_interaction:ILE:123>  (91) 
hydroph_interaction:ILE:123    0
hydroph_interaction:ILE:123    0
Name: 90, dtype: object

>  <hbond:ILE:123>  (91) 
hbond:ILE:123    0
hbond:ILE:123    0
Name: 90, dtype: object

>  <hydroph_interaction:VAL:124>  (91) 
hydroph_interaction:VAL:124    1
hydroph_interaction:VAL:124    1
Name: 90, dtype: object

>  <hbond:VAL:124>  (91) 
hbond:VAL:124    0
hbond:VAL:124    0
Name: 90, dtype: object

>  <halogenbond:VAL:124>  (91) 
halogenbond:VAL:124    0
halogenbond:VAL:124    0
Name: 90, dtype: object

>  <hbond:SER:125>  (91) 
hbond:SER:125    0
hbond:SER:125    0
Name: 90, dtype: object

>  <halogenbond:SER:125>  (91) 
halogenbond:SER:125    0
halogenbond:SER:125    0
Name: 90, dtype: object

>  <hydroph_interaction:THR:126>  (91) 
hydroph_interaction:THR:126    1
hydroph_interaction:THR:126    1
Name: 90, dtype: object

>  <hbond:THR:126>  (91) 
hbond:THR:126    0
hbond:THR:126    0
Name: 90, dtype: object

>  <halogenbond:THR:126>  (91) 
halogenbond:THR:126    0
halogenbond:THR:126    0
Name: 90, dtype: object

>  <hbond:GLY:127>  (91) 
hbond:GLY:127    0
hbond:GLY:127    0
Name: 90, dtype: object

>  <halogenbond:GLY:127>  (91) 
halogenbond:GLY:127    0
halogenbond:GLY:127    0
Name: 90, dtype: object

>  <hydroph_interaction:GLY:127>  (91) 
hydroph_interaction:GLY:127    0
hydroph_interaction:GLY:127    0
Name: 90, dtype: object

>  <hbond:GLY:128>  (91) 
hbond:GLY:128    0
hbond:GLY:128    0
Name: 90, dtype: object

>  <halogenbond:GLY:128>  (91) 
halogenbond:GLY:128    0
halogenbond:GLY:128    0
Name: 90, dtype: object

>  <hydroph_interaction:GLY:128>  (91) 
hydroph_interaction:GLY:128    0
hydroph_interaction:GLY:128    0
Name: 90, dtype: object

>  <hbond:ASN:129>  (91) 
hbond:ASN:129    0
hbond:ASN:129    0
Name: 90, dtype: object

>  <hydroph_interaction:ASN:129>  (91) 
hydroph_interaction:ASN:129    0
hydroph_interaction:ASN:129    0
Name: 90, dtype: object

>  <halogenbond:ASN:129>  (91) 
halogenbond:ASN:129    0
halogenbond:ASN:129    0
Name: 90, dtype: object

>  <hbond:GLY:130>  (91) 
hbond:GLY:130    0
hbond:GLY:130    0
Name: 90, dtype: object

>  <hydroph_interaction:LEU:131>  (91) 
hydroph_interaction:LEU:131    0
hydroph_interaction:LEU:131    0
Name: 90, dtype: object

>  <hbond:LEU:131>  (91) 
hbond:LEU:131    0
hbond:LEU:131    0
Name: 90, dtype: object

>  <halogenbond:LEU:131>  (91) 
halogenbond:LEU:131    0
halogenbond:LEU:131    0
Name: 90, dtype: object

>  <hydroph_interaction:VAL:132>  (91) 
hydroph_interaction:VAL:132    0
hydroph_interaction:VAL:132    0
Name: 90, dtype: object

>  <hbond:VAL:132>  (91) 
hbond:VAL:132    0
hbond:VAL:132    0
Name: 90, dtype: object

>  <hbond:GLY:133>  (91) 
hbond:GLY:133    0
hbond:GLY:133    0
Name: 90, dtype: object

>  <halogenbond:GLY:133>  (91) 
halogenbond:GLY:133    0
halogenbond:GLY:133    0
Name: 90, dtype: object

>  <hydroph_interaction:PHE:134>  (91) 
hydroph_interaction:PHE:134    0
hydroph_interaction:PHE:134    0
Name: 90, dtype: object

>  <hbond:PHE:134>  (91) 
hbond:PHE:134    0
hbond:PHE:134    0
Name: 90, dtype: object

>  <pistack:PHE:134>  (91) 
pistack:PHE:134    0
pistack:PHE:134    0
Name: 90, dtype: object

>  <pication:PHE:134>  (91) 
pication:PHE:134    0
pication:PHE:134    0
Name: 90, dtype: object

>  <hydroph_interaction:ALA:135>  (91) 
hydroph_interaction:ALA:135    0
hydroph_interaction:ALA:135    0
Name: 90, dtype: object

>  <hbond:ALA:135>  (91) 
hbond:ALA:135    0
hbond:ALA:135    0
Name: 90, dtype: object

$$$$
Z3716360840
     RDKit          3D

 33 34  0  0  0  0  0  0  0  0999 V2000
   10.0900    9.5300   22.8480 C   0  0  0  0  0  0  0  0  0  0  0  0
    9.2290   10.4490   23.6370 C   0  0  0  0  0  0  0  0  0  0  0  0
    8.3420   10.0240   24.5520 N   0  0  0  0  0  0  0  0  0  0  0  0
    7.7480   11.1420   25.0440 N   0  0  0  0  0  0  0  0  0  0  0  0
    6.6930   10.9510   26.0730 C   0  0  0  0  0  0  0  0  0  0  0  0
    6.4150   11.9550   27.1830 C   0  0  0  0  0  0  0  0  0  0  0  0
    7.3870   12.8890   27.3210 F   0  0  0  0  0  0  0  0  0  0  0  0
    6.3660   11.2920   28.3810 F   0  0  0  0  0  0  0  0  0  0  0  0
    8.2600   12.2750   24.4500 C   0  0  0  0  0  0  0  0  0  0  0  0
    9.2240   11.8470   23.5290 C   0  0  0  0  0  0  0  0  0  0  0  0
   10.0470   12.5620   22.6620 N   0  0  0  0  0  0  0  0  0  0  0  0
   11.1010   13.2340   23.1730 C   0  0  0  0  0  0  0  0  0  0  0  0
   11.1590   13.5750   24.3480 O   0  0  0  0  0  0  0  0  0  0  0  0
   12.2760   13.6030   22.2510 C   0  0  0  0  0  0  0  0  0  0  0  0
   13.0920   14.7140   22.6640 C   0  0  0  0  0  0  0  0  0  0  0  0
   12.8810   15.4540   23.7420 C   0  0  0  0  0  0  0  0  0  0  0  0
   14.1280   14.8090   21.6460 N   0  0  0  0  0  0  0  0  0  0  0  0
   14.1640   13.5760   21.0240 C   0  0  0  0  0  0  0  0  0  0  0  0
   15.1230   12.9650   20.5890 O   0  0  0  0  0  0  0  0  0  0  0  0
   12.8500   13.1580   21.0210 N   0  0  0  0  0  0  0  0  0  0  0  0
   10.7570    8.9530   23.4860 H   0  0  0  0  0  0  0  0  0  0  0  0
    9.4740    8.8450   22.2660 H   0  0  0  0  0  0  0  0  0  0  0  0
   10.7010   10.0860   22.1360 H   0  0  0  0  0  0  0  0  0  0  0  0
    6.8870    9.9880   26.5220 H   0  0  0  0  0  0  0  0  0  0  0  0
    5.7690   10.8200   25.5330 H   0  0  0  0  0  0  0  0  0  0  0  0
    5.4680   12.4860   27.0540 H   0  0  0  0  0  0  0  0  0  0  0  0
    7.9050   13.2600   24.7210 H   0  0  0  0  0  0  0  0  0  0  0  0
   10.2280   12.1740   21.7270 H   0  0  0  0  0  0  0  0  0  0  0  0
   12.4890   16.4130   23.4270 H   0  0  0  0  0  0  0  0  0  0  0  0
   13.7930   15.5520   24.3270 H   0  0  0  0  0  0  0  0  0  0  0  0
   12.1280   15.0020   24.3850 H   0  0  0  0  0  0  0  0  0  0  0  0
   14.3800   15.6250   21.1070 H   0  0  0  0  0  0  0  0  0  0  0  0
   12.4640   12.5300   20.3530 H   0  0  0  0  0  0  0  0  0  0  0  0
  1  2  1  0
  2  3  2  0
  3  4  1  0
  4  5  1  0
  5  6  1  0
  6  7  1  0
  6  8  1  0
  4  9  1  0
  9 10  2  0
 10 11  1  0
 11 12  1  0
 12 13  2  0
 12 14  1  0
 14 15  2  0
 15 16  1  0
 15 17  1  0
 17 18  1  0
 18 19  2  0
 18 20  1  0
 10  2  1  0
 20 14  1  0
  1 21  1  0
  1 22  1  0
  1 23  1  0
  5 24  1  0
  5 25  1  0
  6 26  1  0
  9 27  1  0
 11 28  1  0
 16 29  1  0
 16 30  1  0
 16 31  1  0
 17 32  1  0
 20 33  1  0
A    1
 C1 
A    2
 C2 
A    3
 N1 
A    4
 N2 
A    5
 C3 
A    6
 C4 
A    7
 F1 
A    8
 F2 
A    9
 C5 
A   10
 C6 
A   11
 N3 
A   12
 C7 
A   13
 O1 
A   14
 C8 
A   15
 C9 
A   16
 C10
A   17
 N4 
A   18
 C11
A   19
 O2 
A   20
 N5 
A   21
 H1 
A   22
 H2 
A   23
 H3 
A   24
 H4 
A   25
 H5 
A   26
 H6 
A   27
 H7 
A   28
 H8 
A   29
 H9 
A   30
 H10
A   31
 H11
A   32
 H12
A   33
 H13
M  END
>  <ref_pdb>  (92) 
x0310_0A

>  <ref_mols>  (92) 
x0451_0A,x0365_0A,x0310_0A

>  <original SMILES>  (92) 
Cc1nn(CC(F)F)cc1NC(=O)c1[nH]c(=O)[nH]c1C

>  <rationale>  (92) 
info hbond:S125+G127+S87+H21+N19; hydroph_interaction:V124+Y89+Y90; 

>  <intxn_cluster>  (92) 
105

>  <intxn_cluster_rank>  (92) 
32

>  <N_interactions>  (92) 
9

>  <∆∆G>  (92) 
-6.491077

>  <$/mg>  (92) 
nan

>  <comRMSD>  (92) 
0.934747

>  <N_rotatable_bonds>  (92) 
6

>  <N_analogues_07>  (92) 
0

>  <deep_P1_sidechain>  (92) 
True

>  <farthest_distance_to_substrate>  (92) 
4.594058

>  <hbond:SER:7>  (92) 
hbond:SER:7    0
hbond:SER:7    0
Name: 91, dtype: object

>  <halogenbond:SER:7>  (92) 
halogenbond:SER:7    0
halogenbond:SER:7    0
Name: 91, dtype: object

>  <hbond:GLY:8>  (92) 
hbond:GLY:8    0
hbond:GLY:8    0
Name: 91, dtype: object

>  <hydroph_interaction:ASN:19>  (92) 
hydroph_interaction:ASN:19    0
hydroph_interaction:ASN:19    0
Name: 91, dtype: object

>  <hbond:ASN:19>  (92) 
hbond:ASN:19    1
hbond:ASN:19    1
Name: 91, dtype: object

>  <halogenbond:ASN:19>  (92) 
halogenbond:ASN:19    0
halogenbond:ASN:19    0
Name: 91, dtype: object

>  <hbond:ARG:20>  (92) 
hbond:ARG:20    0
hbond:ARG:20    0
Name: 91, dtype: object

>  <hydroph_interaction:ARG:20>  (92) 
hydroph_interaction:ARG:20    0
hydroph_interaction:ARG:20    0
Name: 91, dtype: object

>  <saltbridge:ARG:20>  (92) 
saltbridge:ARG:20    0
saltbridge:ARG:20    0
Name: 91, dtype: object

>  <halogenbond:ARG:20>  (92) 
halogenbond:ARG:20    0
halogenbond:ARG:20    0
Name: 91, dtype: object

>  <pication:ARG:20>  (92) 
pication:ARG:20    0
pication:ARG:20    0
Name: 91, dtype: object

>  <hbond:HIS:21>  (92) 
hbond:HIS:21    1
hbond:HIS:21    1
Name: 91, dtype: object

>  <hydroph_interaction:HIS:21>  (92) 
hydroph_interaction:HIS:21    0
hydroph_interaction:HIS:21    0
Name: 91, dtype: object

>  <saltbridge:HIS:21>  (92) 
saltbridge:HIS:21    0
saltbridge:HIS:21    0
Name: 91, dtype: object

>  <pistack:HIS:21>  (92) 
pistack:HIS:21    0
pistack:HIS:21    0
Name: 91, dtype: object

>  <pication:HIS:21>  (92) 
pication:HIS:21    0
pication:HIS:21    0
Name: 91, dtype: object

>  <halogenbond:HIS:21>  (92) 
halogenbond:HIS:21    0
halogenbond:HIS:21    0
Name: 91, dtype: object

>  <hydroph_interaction:LEU:22>  (92) 
hydroph_interaction:LEU:22    0
hydroph_interaction:LEU:22    0
Name: 91, dtype: object

>  <hbond:LEU:22>  (92) 
hbond:LEU:22    0
hbond:LEU:22    0
Name: 91, dtype: object

>  <hydroph_interaction:TRP:28>  (92) 
hydroph_interaction:TRP:28    0
hydroph_interaction:TRP:28    0
Name: 91, dtype: object

>  <hbond:SER:36>  (92) 
hbond:SER:36    0
hbond:SER:36    0
Name: 91, dtype: object

>  <halogenbond:SER:36>  (92) 
halogenbond:SER:36    0
halogenbond:SER:36    0
Name: 91, dtype: object

>  <hbond:ARG:38>  (92) 
hbond:ARG:38    0
hbond:ARG:38    0
Name: 91, dtype: object

>  <halogenbond:ARG:38>  (92) 
halogenbond:ARG:38    0
halogenbond:ARG:38    0
Name: 91, dtype: object

>  <hbond:ASP:39>  (92) 
hbond:ASP:39    0
hbond:ASP:39    0
Name: 91, dtype: object

>  <saltbridge:ASP:39>  (92) 
saltbridge:ASP:39    0
saltbridge:ASP:39    0
Name: 91, dtype: object

>  <hydroph_interaction:ASP:39>  (92) 
hydroph_interaction:ASP:39    0
hydroph_interaction:ASP:39    0
Name: 91, dtype: object

>  <halogenbond:ASP:39>  (92) 
halogenbond:ASP:39    0
halogenbond:ASP:39    0
Name: 91, dtype: object

>  <hydroph_interaction:LEU:40>  (92) 
hydroph_interaction:LEU:40    0
hydroph_interaction:LEU:40    0
Name: 91, dtype: object

>  <hydroph_interaction:TYR:63>  (92) 
hydroph_interaction:TYR:63    0
hydroph_interaction:TYR:63    0
Name: 91, dtype: object

>  <pistack:TYR:63>  (92) 
pistack:TYR:63    0
pistack:TYR:63    0
Name: 91, dtype: object

>  <hbond:TYR:63>  (92) 
hbond:TYR:63    0
hbond:TYR:63    0
Name: 91, dtype: object

>  <hbond:TYR:64>  (92) 
hbond:TYR:64    0
hbond:TYR:64    0
Name: 91, dtype: object

>  <halogenbond:TYR:64>  (92) 
halogenbond:TYR:64    0
halogenbond:TYR:64    0
Name: 91, dtype: object

>  <hydroph_interaction:TYR:64>  (92) 
hydroph_interaction:TYR:64    0
hydroph_interaction:TYR:64    0
Name: 91, dtype: object

>  <hbond:CYS:65>  (92) 
hbond:CYS:65    0
hbond:CYS:65    0
Name: 91, dtype: object

>  <halogenbond:CYS:65>  (92) 
halogenbond:CYS:65    0
halogenbond:CYS:65    0
Name: 91, dtype: object

>  <hbond:SER:66>  (92) 
hbond:SER:66    0
hbond:SER:66    0
Name: 91, dtype: object

>  <hbond:SER:67>  (92) 
hbond:SER:67    0
hbond:SER:67    0
Name: 91, dtype: object

>  <halogenbond:SER:67>  (92) 
halogenbond:SER:67    0
halogenbond:SER:67    0
Name: 91, dtype: object

>  <hydroph_interaction:ARG:68>  (92) 
hydroph_interaction:ARG:68    0
hydroph_interaction:ARG:68    0
Name: 91, dtype: object

>  <hbond:ARG:68>  (92) 
hbond:ARG:68    0
hbond:ARG:68    0
Name: 91, dtype: object

>  <saltbridge:ARG:68>  (92) 
saltbridge:ARG:68    0
saltbridge:ARG:68    0
Name: 91, dtype: object

>  <pication:ARG:68>  (92) 
pication:ARG:68    0
pication:ARG:68    0
Name: 91, dtype: object

>  <hydroph_interaction:TYR:72>  (92) 
hydroph_interaction:TYR:72    0
hydroph_interaction:TYR:72    0
Name: 91, dtype: object

>  <hydroph_interaction:VAL:74>  (92) 
hydroph_interaction:VAL:74    0
hydroph_interaction:VAL:74    0
Name: 91, dtype: object

>  <hydroph_interaction:PHE:76>  (92) 
hydroph_interaction:PHE:76    0
hydroph_interaction:PHE:76    0
Name: 91, dtype: object

>  <hbond:SER:77>  (92) 
hbond:SER:77    0
hbond:SER:77    0
Name: 91, dtype: object

>  <hbond:SER:80>  (92) 
hbond:SER:80    0
hbond:SER:80    0
Name: 91, dtype: object

>  <hbond:LEU:81>  (92) 
hbond:LEU:81    0
hbond:LEU:81    0
Name: 91, dtype: object

>  <halogenbond:LEU:81>  (92) 
halogenbond:LEU:81    0
halogenbond:LEU:81    0
Name: 91, dtype: object

>  <hydroph_interaction:LEU:81>  (92) 
hydroph_interaction:LEU:81    0
hydroph_interaction:LEU:81    0
Name: 91, dtype: object

>  <hydroph_interaction:ILE:82>  (92) 
hydroph_interaction:ILE:82    0
hydroph_interaction:ILE:82    0
Name: 91, dtype: object

>  <hbond:ILE:82>  (92) 
hbond:ILE:82    0
hbond:ILE:82    0
Name: 91, dtype: object

>  <hydroph_interaction:PHE:83>  (92) 
hydroph_interaction:PHE:83    0
hydroph_interaction:PHE:83    0
Name: 91, dtype: object

>  <hbond:PHE:83>  (92) 
hbond:PHE:83    0
hbond:PHE:83    0
Name: 91, dtype: object

>  <halogenbond:PHE:83>  (92) 
halogenbond:PHE:83    0
halogenbond:PHE:83    0
Name: 91, dtype: object

>  <pistack:PHE:83>  (92) 
pistack:PHE:83    0
pistack:PHE:83    0
Name: 91, dtype: object

>  <hydroph_interaction:VAL:84>  (92) 
hydroph_interaction:VAL:84    0
hydroph_interaction:VAL:84    0
Name: 91, dtype: object

>  <hbond:VAL:84>  (92) 
hbond:VAL:84    0
hbond:VAL:84    0
Name: 91, dtype: object

>  <halogenbond:VAL:84>  (92) 
halogenbond:VAL:84    0
halogenbond:VAL:84    0
Name: 91, dtype: object

>  <hydroph_interaction:GLU:85>  (92) 
hydroph_interaction:GLU:85    0
hydroph_interaction:GLU:85    0
Name: 91, dtype: object

>  <hbond:GLU:85>  (92) 
hbond:GLU:85    0
hbond:GLU:85    0
Name: 91, dtype: object

>  <saltbridge:GLU:85>  (92) 
saltbridge:GLU:85    0
saltbridge:GLU:85    0
Name: 91, dtype: object

>  <halogenbond:GLU:85>  (92) 
halogenbond:GLU:85    0
halogenbond:GLU:85    0
Name: 91, dtype: object

>  <hbond:ALA:86>  (92) 
hbond:ALA:86    0
hbond:ALA:86    0
Name: 91, dtype: object

>  <halogenbond:ALA:86>  (92) 
halogenbond:ALA:86    0
halogenbond:ALA:86    0
Name: 91, dtype: object

>  <hydroph_interaction:ALA:86>  (92) 
hydroph_interaction:ALA:86    0
hydroph_interaction:ALA:86    0
Name: 91, dtype: object

>  <hbond:SER:87>  (92) 
hbond:SER:87    1
hbond:SER:87    1
Name: 91, dtype: object

>  <halogenbond:SER:87>  (92) 
halogenbond:SER:87    0
halogenbond:SER:87    0
Name: 91, dtype: object

>  <hbond:GLU:88>  (92) 
hbond:GLU:88    0
hbond:GLU:88    0
Name: 91, dtype: object

>  <hydroph_interaction:GLU:88>  (92) 
hydroph_interaction:GLU:88    0
hydroph_interaction:GLU:88    0
Name: 91, dtype: object

>  <halogenbond:GLU:88>  (92) 
halogenbond:GLU:88    0
halogenbond:GLU:88    0
Name: 91, dtype: object

>  <saltbridge:GLU:88>  (92) 
saltbridge:GLU:88    0
saltbridge:GLU:88    0
Name: 91, dtype: object

>  <hydroph_interaction:TYR:89>  (92) 
hydroph_interaction:TYR:89    1
hydroph_interaction:TYR:89    1
Name: 91, dtype: object

>  <pistack:TYR:89>  (92) 
pistack:TYR:89    0
pistack:TYR:89    0
Name: 91, dtype: object

>  <hbond:TYR:89>  (92) 
hbond:TYR:89    0
hbond:TYR:89    0
Name: 91, dtype: object

>  <halogenbond:TYR:89>  (92) 
halogenbond:TYR:89    0
halogenbond:TYR:89    0
Name: 91, dtype: object

>  <hbond:TYR:90>  (92) 
hbond:TYR:90    0
hbond:TYR:90    0
Name: 91, dtype: object

>  <hydroph_interaction:TYR:90>  (92) 
hydroph_interaction:TYR:90    1
hydroph_interaction:TYR:90    1
Name: 91, dtype: object

>  <pistack:TYR:90>  (92) 
pistack:TYR:90    0
pistack:TYR:90    0
Name: 91, dtype: object

>  <halogenbond:TYR:90>  (92) 
halogenbond:TYR:90    0
halogenbond:TYR:90    0
Name: 91, dtype: object

>  <pication:TYR:90>  (92) 
pication:TYR:90    0
pication:TYR:90    0
Name: 91, dtype: object

>  <hydroph_interaction:PRO:91>  (92) 
hydroph_interaction:PRO:91    0
hydroph_interaction:PRO:91    0
Name: 91, dtype: object

>  <halogenbond:PRO:91>  (92) 
halogenbond:PRO:91    0
halogenbond:PRO:91    0
Name: 91, dtype: object

>  <hbond:PRO:91>  (92) 
hbond:PRO:91    0
hbond:PRO:91    0
Name: 91, dtype: object

>  <hydroph_interaction:ALA:92>  (92) 
hydroph_interaction:ALA:92    0
hydroph_interaction:ALA:92    0
Name: 91, dtype: object

>  <hbond:ARG:93>  (92) 
hbond:ARG:93    0
hbond:ARG:93    0
Name: 91, dtype: object

>  <pication:ARG:93>  (92) 
pication:ARG:93    0
pication:ARG:93    0
Name: 91, dtype: object

>  <saltbridge:ARG:93>  (92) 
saltbridge:ARG:93    0
saltbridge:ARG:93    0
Name: 91, dtype: object

>  <hydroph_interaction:ARG:93>  (92) 
hydroph_interaction:ARG:93    0
hydroph_interaction:ARG:93    0
Name: 91, dtype: object

>  <halogenbond:ARG:93>  (92) 
halogenbond:ARG:93    0
halogenbond:ARG:93    0
Name: 91, dtype: object

>  <hydroph_interaction:TYR:94>  (92) 
hydroph_interaction:TYR:94    0
hydroph_interaction:TYR:94    0
Name: 91, dtype: object

>  <hbond:TYR:94>  (92) 
hbond:TYR:94    0
hbond:TYR:94    0
Name: 91, dtype: object

>  <halogenbond:GLN:95>  (92) 
halogenbond:GLN:95    0
halogenbond:GLN:95    0
Name: 91, dtype: object

>  <hbond:GLN:95>  (92) 
hbond:GLN:95    0
hbond:GLN:95    0
Name: 91, dtype: object

>  <hydroph_interaction:GLN:95>  (92) 
hydroph_interaction:GLN:95    0
hydroph_interaction:GLN:95    0
Name: 91, dtype: object

>  <hbond:SER:96>  (92) 
hbond:SER:96    0
hbond:SER:96    0
Name: 91, dtype: object

>  <hydroph_interaction:LEU:98>  (92) 
hydroph_interaction:LEU:98    0
hydroph_interaction:LEU:98    0
Name: 91, dtype: object

>  <hbond:LEU:98>  (92) 
hbond:LEU:98    0
hbond:LEU:98    0
Name: 91, dtype: object

>  <hbond:MET:99>  (92) 
hbond:MET:99    0
hbond:MET:99    0
Name: 91, dtype: object

>  <hydroph_interaction:MET:99>  (92) 
hydroph_interaction:MET:99    0
hydroph_interaction:MET:99    0
Name: 91, dtype: object

>  <halogenbond:MET:99>  (92) 
halogenbond:MET:99    0
halogenbond:MET:99    0
Name: 91, dtype: object

>  <hydroph_interaction:LEU:100>  (92) 
hydroph_interaction:LEU:100    0
hydroph_interaction:LEU:100    0
Name: 91, dtype: object

>  <hbond:LEU:100>  (92) 
hbond:LEU:100    0
hbond:LEU:100    0
Name: 91, dtype: object

>  <hbond:ALA:101>  (92) 
hbond:ALA:101    0
hbond:ALA:101    0
Name: 91, dtype: object

>  <hydroph_interaction:ALA:101>  (92) 
hydroph_interaction:ALA:101    0
hydroph_interaction:ALA:101    0
Name: 91, dtype: object

>  <hydroph_interaction:VAL:102>  (92) 
hydroph_interaction:VAL:102    0
hydroph_interaction:VAL:102    0
Name: 91, dtype: object

>  <hbond:VAL:102>  (92) 
hbond:VAL:102    0
hbond:VAL:102    0
Name: 91, dtype: object

>  <hbond:GLY:103>  (92) 
hbond:GLY:103    0
hbond:GLY:103    0
Name: 91, dtype: object

>  <halogenbond:GLY:103>  (92) 
halogenbond:GLY:103    0
halogenbond:GLY:103    0
Name: 91, dtype: object

>  <hydroph_interaction:HIS:104>  (92) 
hydroph_interaction:HIS:104    0
hydroph_interaction:HIS:104    0
Name: 91, dtype: object

>  <hbond:HIS:104>  (92) 
hbond:HIS:104    0
hbond:HIS:104    0
Name: 91, dtype: object

>  <saltbridge:HIS:104>  (92) 
saltbridge:HIS:104    0
saltbridge:HIS:104    0
Name: 91, dtype: object

>  <pication:HIS:104>  (92) 
pication:HIS:104    0
pication:HIS:104    0
Name: 91, dtype: object

>  <pistack:HIS:104>  (92) 
pistack:HIS:104    0
pistack:HIS:104    0
Name: 91, dtype: object

>  <halogenbond:HIS:104>  (92) 
halogenbond:HIS:104    0
halogenbond:HIS:104    0
Name: 91, dtype: object

>  <hbond:SER:105>  (92) 
hbond:SER:105    0
hbond:SER:105    0
Name: 91, dtype: object

>  <halogenbond:SER:105>  (92) 
halogenbond:SER:105    0
halogenbond:SER:105    0
Name: 91, dtype: object

>  <hbond:GLU:106>  (92) 
hbond:GLU:106    0
hbond:GLU:106    0
Name: 91, dtype: object

>  <hydroph_interaction:GLU:106>  (92) 
hydroph_interaction:GLU:106    0
hydroph_interaction:GLU:106    0
Name: 91, dtype: object

>  <saltbridge:GLU:106>  (92) 
saltbridge:GLU:106    0
saltbridge:GLU:106    0
Name: 91, dtype: object

>  <halogenbond:GLU:106>  (92) 
halogenbond:GLU:106    0
halogenbond:GLU:106    0
Name: 91, dtype: object

>  <hydroph_interaction:PRO:107>  (92) 
hydroph_interaction:PRO:107    0
hydroph_interaction:PRO:107    0
Name: 91, dtype: object

>  <hbond:PRO:107>  (92) 
hbond:PRO:107    0
hbond:PRO:107    0
Name: 91, dtype: object

>  <halogenbond:PRO:107>  (92) 
halogenbond:PRO:107    0
halogenbond:PRO:107    0
Name: 91, dtype: object

>  <hbond:GLY:108>  (92) 
hbond:GLY:108    0
hbond:GLY:108    0
Name: 91, dtype: object

>  <halogenbond:GLY:108>  (92) 
halogenbond:GLY:108    0
halogenbond:GLY:108    0
Name: 91, dtype: object

>  <hbond:ASP:109>  (92) 
hbond:ASP:109    0
hbond:ASP:109    0
Name: 91, dtype: object

>  <hydroph_interaction:ASP:109>  (92) 
hydroph_interaction:ASP:109    0
hydroph_interaction:ASP:109    0
Name: 91, dtype: object

>  <saltbridge:ASP:109>  (92) 
saltbridge:ASP:109    0
saltbridge:ASP:109    0
Name: 91, dtype: object

>  <hbond:CYS:110>  (92) 
hbond:CYS:110    0
hbond:CYS:110    0
Name: 91, dtype: object

>  <halogenbond:CYS:110>  (92) 
halogenbond:CYS:110    0
halogenbond:CYS:110    0
Name: 91, dtype: object

>  <hbond:GLY:111>  (92) 
hbond:GLY:111    0
hbond:GLY:111    0
Name: 91, dtype: object

>  <hbond:GLY:112>  (92) 
hbond:GLY:112    0
hbond:GLY:112    0
Name: 91, dtype: object

>  <hbond:ILE:113>  (92) 
hbond:ILE:113    0
hbond:ILE:113    0
Name: 91, dtype: object

>  <hydroph_interaction:LEU:114>  (92) 
hydroph_interaction:LEU:114    0
hydroph_interaction:LEU:114    0
Name: 91, dtype: object

>  <hbond:LEU:114>  (92) 
hbond:LEU:114    0
hbond:LEU:114    0
Name: 91, dtype: object

>  <hydroph_interaction:ILE:123>  (92) 
hydroph_interaction:ILE:123    0
hydroph_interaction:ILE:123    0
Name: 91, dtype: object

>  <hbond:ILE:123>  (92) 
hbond:ILE:123    0
hbond:ILE:123    0
Name: 91, dtype: object

>  <hydroph_interaction:VAL:124>  (92) 
hydroph_interaction:VAL:124    1
hydroph_interaction:VAL:124    1
Name: 91, dtype: object

>  <hbond:VAL:124>  (92) 
hbond:VAL:124    0
hbond:VAL:124    0
Name: 91, dtype: object

>  <halogenbond:VAL:124>  (92) 
halogenbond:VAL:124    0
halogenbond:VAL:124    0
Name: 91, dtype: object

>  <hbond:SER:125>  (92) 
hbond:SER:125    2
hbond:SER:125    2
Name: 91, dtype: object

>  <halogenbond:SER:125>  (92) 
halogenbond:SER:125    0
halogenbond:SER:125    0
Name: 91, dtype: object

>  <hydroph_interaction:THR:126>  (92) 
hydroph_interaction:THR:126    0
hydroph_interaction:THR:126    0
Name: 91, dtype: object

>  <hbond:THR:126>  (92) 
hbond:THR:126    0
hbond:THR:126    0
Name: 91, dtype: object

>  <halogenbond:THR:126>  (92) 
halogenbond:THR:126    0
halogenbond:THR:126    0
Name: 91, dtype: object

>  <hbond:GLY:127>  (92) 
hbond:GLY:127    1
hbond:GLY:127    1
Name: 91, dtype: object

>  <halogenbond:GLY:127>  (92) 
halogenbond:GLY:127    0
halogenbond:GLY:127    0
Name: 91, dtype: object

>  <hydroph_interaction:GLY:127>  (92) 
hydroph_interaction:GLY:127    0
hydroph_interaction:GLY:127    0
Name: 91, dtype: object

>  <hbond:GLY:128>  (92) 
hbond:GLY:128    0
hbond:GLY:128    0
Name: 91, dtype: object

>  <halogenbond:GLY:128>  (92) 
halogenbond:GLY:128    0
halogenbond:GLY:128    0
Name: 91, dtype: object

>  <hydroph_interaction:GLY:128>  (92) 
hydroph_interaction:GLY:128    0
hydroph_interaction:GLY:128    0
Name: 91, dtype: object

>  <hbond:ASN:129>  (92) 
hbond:ASN:129    0
hbond:ASN:129    0
Name: 91, dtype: object

>  <hydroph_interaction:ASN:129>  (92) 
hydroph_interaction:ASN:129    0
hydroph_interaction:ASN:129    0
Name: 91, dtype: object

>  <halogenbond:ASN:129>  (92) 
halogenbond:ASN:129    0
halogenbond:ASN:129    0
Name: 91, dtype: object

>  <hbond:GLY:130>  (92) 
hbond:GLY:130    0
hbond:GLY:130    0
Name: 91, dtype: object

>  <hydroph_interaction:LEU:131>  (92) 
hydroph_interaction:LEU:131    0
hydroph_interaction:LEU:131    0
Name: 91, dtype: object

>  <hbond:LEU:131>  (92) 
hbond:LEU:131    0
hbond:LEU:131    0
Name: 91, dtype: object

>  <halogenbond:LEU:131>  (92) 
halogenbond:LEU:131    0
halogenbond:LEU:131    0
Name: 91, dtype: object

>  <hydroph_interaction:VAL:132>  (92) 
hydroph_interaction:VAL:132    0
hydroph_interaction:VAL:132    0
Name: 91, dtype: object

>  <hbond:VAL:132>  (92) 
hbond:VAL:132    0
hbond:VAL:132    0
Name: 91, dtype: object

>  <hbond:GLY:133>  (92) 
hbond:GLY:133    0
hbond:GLY:133    0
Name: 91, dtype: object

>  <halogenbond:GLY:133>  (92) 
halogenbond:GLY:133    0
halogenbond:GLY:133    0
Name: 91, dtype: object

>  <hydroph_interaction:PHE:134>  (92) 
hydroph_interaction:PHE:134    0
hydroph_interaction:PHE:134    0
Name: 91, dtype: object

>  <hbond:PHE:134>  (92) 
hbond:PHE:134    0
hbond:PHE:134    0
Name: 91, dtype: object

>  <pistack:PHE:134>  (92) 
pistack:PHE:134    0
pistack:PHE:134    0
Name: 91, dtype: object

>  <pication:PHE:134>  (92) 
pication:PHE:134    0
pication:PHE:134    0
Name: 91, dtype: object

>  <hydroph_interaction:ALA:135>  (92) 
hydroph_interaction:ALA:135    0
hydroph_interaction:ALA:135    0
Name: 91, dtype: object

>  <hbond:ALA:135>  (92) 
hbond:ALA:135    0
hbond:ALA:135    0
Name: 91, dtype: object

$$$$
Z3219856995
     RDKit          3D

 22 22  0  0  0  0  0  0  0  0999 V2000
    9.9180    9.3410   22.8230 C   0  0  0  0  0  0  0  0  0  0  0  0
    9.3480   10.5500   23.4850 C   0  0  0  0  0  0  0  0  0  0  0  0
    9.8290   11.9240   23.0790 C   0  0  0  0  0  0  0  0  0  0  0  0
    9.1680   13.0740   23.8380 C   0  0  0  0  0  0  0  0  0  0  0  0
    8.2060   12.8680   24.8170 C   0  0  0  0  0  0  0  0  0  0  0  0
    7.5750   13.8770   25.5580 C   0  0  0  0  0  0  0  0  0  0  0  0
    7.2140   13.6320   26.7080 O   0  0  0  0  0  0  0  0  0  0  0  0
    7.3650   15.1380   24.9930 N   0  0  0  0  0  0  0  0  0  0  0  0
    6.5520   16.0030   25.6430 N   0  0  0  0  0  0  0  0  0  0  0  0
    7.8200   11.5900   25.1190 C   0  0  0  0  0  0  0  0  0  0  0  0
    8.3720   10.5160   24.4780 C   0  0  0  0  0  0  0  0  0  0  0  0
    7.7840    9.3940   24.9960 O   0  0  0  0  0  0  0  0  0  0  0  0
   10.3760    9.6240   21.8720 H   0  0  0  0  0  0  0  0  0  0  0  0
   10.6690    8.8690   23.4550 H   0  0  0  0  0  0  0  0  0  0  0  0
    9.1430    8.6100   22.6060 H   0  0  0  0  0  0  0  0  0  0  0  0
   10.5880   12.0940   22.3110 H   0  0  0  0  0  0  0  0  0  0  0  0
    9.5330   14.0590   23.5320 H   0  0  0  0  0  0  0  0  0  0  0  0
    7.6190   15.3640   24.0260 H   0  0  0  0  0  0  0  0  0  0  0  0
    5.5750   15.7020   25.4580 H   0  0  0  0  0  0  0  0  0  0  0  0
    6.5590   16.9200   25.1350 H   0  0  0  0  0  0  0  0  0  0  0  0
    7.0600   11.4160   25.8860 H   0  0  0  0  0  0  0  0  0  0  0  0
    7.4560    8.8300   24.3070 H   0  0  0  0  0  0  0  0  0  0  0  0
  1  2  1  0
  2  3  2  0
  3  4  1  0
  4  5  2  0
  5  6  1  0
  6  7  2  0
  6  8  1  0
  8  9  1  0
  5 10  1  0
 10 11  2  0
 11 12  1  0
 11  2  1  0
  1 13  1  0
  1 14  1  0
  1 15  1  0
  3 16  1  0
  4 17  1  0
  8 18  1  0
  9 19  1  0
  9 20  1  0
 10 21  1  0
 12 22  1  0
A    1
 C1 
A    2
 C2 
A    3
 C3 
A    4
 C4 
A    5
 C5 
A    6
 C6 
A    7
 O1 
A    8
 N1 
A    9
 N2 
A   10
 C7 
A   11
 C8 
A   12
 O2 
A   13
 H1 
A   14
 H2 
A   15
 H3 
A   16
 H4 
A   17
 H5 
A   18
 H6 
A   19
 H7 
A   20
 H8 
A   21
 H9 
A   22
 H10
M  END
>  <ref_pdb>  (93) 
x0310_0A

>  <ref_mols>  (93) 
x0416_0A,x0416_0A

>  <original SMILES>  (93) 
Cc1ccc(C(=O)NN)cc1O

>  <rationale>  (93) 
info hbond:S105+S87+E85; hydroph_interaction:P107+V124; 

>  <intxn_cluster>  (93) 
107

>  <intxn_cluster_rank>  (93) 
33

>  <N_interactions>  (93) 
6

>  <∆∆G>  (93) 
-8.903758

>  <$/mg>  (93) 
82.1

>  <comRMSD>  (93) 
0.904406

>  <N_rotatable_bonds>  (93) 
4

>  <N_analogues_07>  (93) 
0

>  <deep_P1_sidechain>  (93) 
True

>  <farthest_distance_to_substrate>  (93) 
3.253399

>  <hbond:SER:7>  (93) 
hbond:SER:7    0
hbond:SER:7    0
Name: 92, dtype: object

>  <halogenbond:SER:7>  (93) 
halogenbond:SER:7    0
halogenbond:SER:7    0
Name: 92, dtype: object

>  <hbond:GLY:8>  (93) 
hbond:GLY:8    0
hbond:GLY:8    0
Name: 92, dtype: object

>  <hydroph_interaction:ASN:19>  (93) 
hydroph_interaction:ASN:19    0
hydroph_interaction:ASN:19    0
Name: 92, dtype: object

>  <hbond:ASN:19>  (93) 
hbond:ASN:19    0
hbond:ASN:19    0
Name: 92, dtype: object

>  <halogenbond:ASN:19>  (93) 
halogenbond:ASN:19    0
halogenbond:ASN:19    0
Name: 92, dtype: object

>  <hbond:ARG:20>  (93) 
hbond:ARG:20    0
hbond:ARG:20    0
Name: 92, dtype: object

>  <hydroph_interaction:ARG:20>  (93) 
hydroph_interaction:ARG:20    0
hydroph_interaction:ARG:20    0
Name: 92, dtype: object

>  <saltbridge:ARG:20>  (93) 
saltbridge:ARG:20    0
saltbridge:ARG:20    0
Name: 92, dtype: object

>  <halogenbond:ARG:20>  (93) 
halogenbond:ARG:20    0
halogenbond:ARG:20    0
Name: 92, dtype: object

>  <pication:ARG:20>  (93) 
pication:ARG:20    0
pication:ARG:20    0
Name: 92, dtype: object

>  <hbond:HIS:21>  (93) 
hbond:HIS:21    0
hbond:HIS:21    0
Name: 92, dtype: object

>  <hydroph_interaction:HIS:21>  (93) 
hydroph_interaction:HIS:21    0
hydroph_interaction:HIS:21    0
Name: 92, dtype: object

>  <saltbridge:HIS:21>  (93) 
saltbridge:HIS:21    0
saltbridge:HIS:21    0
Name: 92, dtype: object

>  <pistack:HIS:21>  (93) 
pistack:HIS:21    0
pistack:HIS:21    0
Name: 92, dtype: object

>  <pication:HIS:21>  (93) 
pication:HIS:21    0
pication:HIS:21    0
Name: 92, dtype: object

>  <halogenbond:HIS:21>  (93) 
halogenbond:HIS:21    0
halogenbond:HIS:21    0
Name: 92, dtype: object

>  <hydroph_interaction:LEU:22>  (93) 
hydroph_interaction:LEU:22    0
hydroph_interaction:LEU:22    0
Name: 92, dtype: object

>  <hbond:LEU:22>  (93) 
hbond:LEU:22    0
hbond:LEU:22    0
Name: 92, dtype: object

>  <hydroph_interaction:TRP:28>  (93) 
hydroph_interaction:TRP:28    0
hydroph_interaction:TRP:28    0
Name: 92, dtype: object

>  <hbond:SER:36>  (93) 
hbond:SER:36    0
hbond:SER:36    0
Name: 92, dtype: object

>  <halogenbond:SER:36>  (93) 
halogenbond:SER:36    0
halogenbond:SER:36    0
Name: 92, dtype: object

>  <hbond:ARG:38>  (93) 
hbond:ARG:38    0
hbond:ARG:38    0
Name: 92, dtype: object

>  <halogenbond:ARG:38>  (93) 
halogenbond:ARG:38    0
halogenbond:ARG:38    0
Name: 92, dtype: object

>  <hbond:ASP:39>  (93) 
hbond:ASP:39    0
hbond:ASP:39    0
Name: 92, dtype: object

>  <saltbridge:ASP:39>  (93) 
saltbridge:ASP:39    0
saltbridge:ASP:39    0
Name: 92, dtype: object

>  <hydroph_interaction:ASP:39>  (93) 
hydroph_interaction:ASP:39    0
hydroph_interaction:ASP:39    0
Name: 92, dtype: object

>  <halogenbond:ASP:39>  (93) 
halogenbond:ASP:39    0
halogenbond:ASP:39    0
Name: 92, dtype: object

>  <hydroph_interaction:LEU:40>  (93) 
hydroph_interaction:LEU:40    0
hydroph_interaction:LEU:40    0
Name: 92, dtype: object

>  <hydroph_interaction:TYR:63>  (93) 
hydroph_interaction:TYR:63    0
hydroph_interaction:TYR:63    0
Name: 92, dtype: object

>  <pistack:TYR:63>  (93) 
pistack:TYR:63    0
pistack:TYR:63    0
Name: 92, dtype: object

>  <hbond:TYR:63>  (93) 
hbond:TYR:63    0
hbond:TYR:63    0
Name: 92, dtype: object

>  <hbond:TYR:64>  (93) 
hbond:TYR:64    0
hbond:TYR:64    0
Name: 92, dtype: object

>  <halogenbond:TYR:64>  (93) 
halogenbond:TYR:64    0
halogenbond:TYR:64    0
Name: 92, dtype: object

>  <hydroph_interaction:TYR:64>  (93) 
hydroph_interaction:TYR:64    0
hydroph_interaction:TYR:64    0
Name: 92, dtype: object

>  <hbond:CYS:65>  (93) 
hbond:CYS:65    0
hbond:CYS:65    0
Name: 92, dtype: object

>  <halogenbond:CYS:65>  (93) 
halogenbond:CYS:65    0
halogenbond:CYS:65    0
Name: 92, dtype: object

>  <hbond:SER:66>  (93) 
hbond:SER:66    0
hbond:SER:66    0
Name: 92, dtype: object

>  <hbond:SER:67>  (93) 
hbond:SER:67    0
hbond:SER:67    0
Name: 92, dtype: object

>  <halogenbond:SER:67>  (93) 
halogenbond:SER:67    0
halogenbond:SER:67    0
Name: 92, dtype: object

>  <hydroph_interaction:ARG:68>  (93) 
hydroph_interaction:ARG:68    0
hydroph_interaction:ARG:68    0
Name: 92, dtype: object

>  <hbond:ARG:68>  (93) 
hbond:ARG:68    0
hbond:ARG:68    0
Name: 92, dtype: object

>  <saltbridge:ARG:68>  (93) 
saltbridge:ARG:68    0
saltbridge:ARG:68    0
Name: 92, dtype: object

>  <pication:ARG:68>  (93) 
pication:ARG:68    0
pication:ARG:68    0
Name: 92, dtype: object

>  <hydroph_interaction:TYR:72>  (93) 
hydroph_interaction:TYR:72    0
hydroph_interaction:TYR:72    0
Name: 92, dtype: object

>  <hydroph_interaction:VAL:74>  (93) 
hydroph_interaction:VAL:74    0
hydroph_interaction:VAL:74    0
Name: 92, dtype: object

>  <hydroph_interaction:PHE:76>  (93) 
hydroph_interaction:PHE:76    0
hydroph_interaction:PHE:76    0
Name: 92, dtype: object

>  <hbond:SER:77>  (93) 
hbond:SER:77    0
hbond:SER:77    0
Name: 92, dtype: object

>  <hbond:SER:80>  (93) 
hbond:SER:80    0
hbond:SER:80    0
Name: 92, dtype: object

>  <hbond:LEU:81>  (93) 
hbond:LEU:81    0
hbond:LEU:81    0
Name: 92, dtype: object

>  <halogenbond:LEU:81>  (93) 
halogenbond:LEU:81    0
halogenbond:LEU:81    0
Name: 92, dtype: object

>  <hydroph_interaction:LEU:81>  (93) 
hydroph_interaction:LEU:81    0
hydroph_interaction:LEU:81    0
Name: 92, dtype: object

>  <hydroph_interaction:ILE:82>  (93) 
hydroph_interaction:ILE:82    0
hydroph_interaction:ILE:82    0
Name: 92, dtype: object

>  <hbond:ILE:82>  (93) 
hbond:ILE:82    0
hbond:ILE:82    0
Name: 92, dtype: object

>  <hydroph_interaction:PHE:83>  (93) 
hydroph_interaction:PHE:83    0
hydroph_interaction:PHE:83    0
Name: 92, dtype: object

>  <hbond:PHE:83>  (93) 
hbond:PHE:83    0
hbond:PHE:83    0
Name: 92, dtype: object

>  <halogenbond:PHE:83>  (93) 
halogenbond:PHE:83    0
halogenbond:PHE:83    0
Name: 92, dtype: object

>  <pistack:PHE:83>  (93) 
pistack:PHE:83    0
pistack:PHE:83    0
Name: 92, dtype: object

>  <hydroph_interaction:VAL:84>  (93) 
hydroph_interaction:VAL:84    0
hydroph_interaction:VAL:84    0
Name: 92, dtype: object

>  <hbond:VAL:84>  (93) 
hbond:VAL:84    0
hbond:VAL:84    0
Name: 92, dtype: object

>  <halogenbond:VAL:84>  (93) 
halogenbond:VAL:84    0
halogenbond:VAL:84    0
Name: 92, dtype: object

>  <hydroph_interaction:GLU:85>  (93) 
hydroph_interaction:GLU:85    0
hydroph_interaction:GLU:85    0
Name: 92, dtype: object

>  <hbond:GLU:85>  (93) 
hbond:GLU:85    2
hbond:GLU:85    2
Name: 92, dtype: object

>  <saltbridge:GLU:85>  (93) 
saltbridge:GLU:85    0
saltbridge:GLU:85    0
Name: 92, dtype: object

>  <halogenbond:GLU:85>  (93) 
halogenbond:GLU:85    0
halogenbond:GLU:85    0
Name: 92, dtype: object

>  <hbond:ALA:86>  (93) 
hbond:ALA:86    0
hbond:ALA:86    0
Name: 92, dtype: object

>  <halogenbond:ALA:86>  (93) 
halogenbond:ALA:86    0
halogenbond:ALA:86    0
Name: 92, dtype: object

>  <hydroph_interaction:ALA:86>  (93) 
hydroph_interaction:ALA:86    0
hydroph_interaction:ALA:86    0
Name: 92, dtype: object

>  <hbond:SER:87>  (93) 
hbond:SER:87    1
hbond:SER:87    1
Name: 92, dtype: object

>  <halogenbond:SER:87>  (93) 
halogenbond:SER:87    0
halogenbond:SER:87    0
Name: 92, dtype: object

>  <hbond:GLU:88>  (93) 
hbond:GLU:88    0
hbond:GLU:88    0
Name: 92, dtype: object

>  <hydroph_interaction:GLU:88>  (93) 
hydroph_interaction:GLU:88    0
hydroph_interaction:GLU:88    0
Name: 92, dtype: object

>  <halogenbond:GLU:88>  (93) 
halogenbond:GLU:88    0
halogenbond:GLU:88    0
Name: 92, dtype: object

>  <saltbridge:GLU:88>  (93) 
saltbridge:GLU:88    0
saltbridge:GLU:88    0
Name: 92, dtype: object

>  <hydroph_interaction:TYR:89>  (93) 
hydroph_interaction:TYR:89    0
hydroph_interaction:TYR:89    0
Name: 92, dtype: object

>  <pistack:TYR:89>  (93) 
pistack:TYR:89    0
pistack:TYR:89    0
Name: 92, dtype: object

>  <hbond:TYR:89>  (93) 
hbond:TYR:89    0
hbond:TYR:89    0
Name: 92, dtype: object

>  <halogenbond:TYR:89>  (93) 
halogenbond:TYR:89    0
halogenbond:TYR:89    0
Name: 92, dtype: object

>  <hbond:TYR:90>  (93) 
hbond:TYR:90    0
hbond:TYR:90    0
Name: 92, dtype: object

>  <hydroph_interaction:TYR:90>  (93) 
hydroph_interaction:TYR:90    0
hydroph_interaction:TYR:90    0
Name: 92, dtype: object

>  <pistack:TYR:90>  (93) 
pistack:TYR:90    0
pistack:TYR:90    0
Name: 92, dtype: object

>  <halogenbond:TYR:90>  (93) 
halogenbond:TYR:90    0
halogenbond:TYR:90    0
Name: 92, dtype: object

>  <pication:TYR:90>  (93) 
pication:TYR:90    0
pication:TYR:90    0
Name: 92, dtype: object

>  <hydroph_interaction:PRO:91>  (93) 
hydroph_interaction:PRO:91    0
hydroph_interaction:PRO:91    0
Name: 92, dtype: object

>  <halogenbond:PRO:91>  (93) 
halogenbond:PRO:91    0
halogenbond:PRO:91    0
Name: 92, dtype: object

>  <hbond:PRO:91>  (93) 
hbond:PRO:91    0
hbond:PRO:91    0
Name: 92, dtype: object

>  <hydroph_interaction:ALA:92>  (93) 
hydroph_interaction:ALA:92    0
hydroph_interaction:ALA:92    0
Name: 92, dtype: object

>  <hbond:ARG:93>  (93) 
hbond:ARG:93    0
hbond:ARG:93    0
Name: 92, dtype: object

>  <pication:ARG:93>  (93) 
pication:ARG:93    0
pication:ARG:93    0
Name: 92, dtype: object

>  <saltbridge:ARG:93>  (93) 
saltbridge:ARG:93    0
saltbridge:ARG:93    0
Name: 92, dtype: object

>  <hydroph_interaction:ARG:93>  (93) 
hydroph_interaction:ARG:93    0
hydroph_interaction:ARG:93    0
Name: 92, dtype: object

>  <halogenbond:ARG:93>  (93) 
halogenbond:ARG:93    0
halogenbond:ARG:93    0
Name: 92, dtype: object

>  <hydroph_interaction:TYR:94>  (93) 
hydroph_interaction:TYR:94    0
hydroph_interaction:TYR:94    0
Name: 92, dtype: object

>  <hbond:TYR:94>  (93) 
hbond:TYR:94    0
hbond:TYR:94    0
Name: 92, dtype: object

>  <halogenbond:GLN:95>  (93) 
halogenbond:GLN:95    0
halogenbond:GLN:95    0
Name: 92, dtype: object

>  <hbond:GLN:95>  (93) 
hbond:GLN:95    0
hbond:GLN:95    0
Name: 92, dtype: object

>  <hydroph_interaction:GLN:95>  (93) 
hydroph_interaction:GLN:95    0
hydroph_interaction:GLN:95    0
Name: 92, dtype: object

>  <hbond:SER:96>  (93) 
hbond:SER:96    0
hbond:SER:96    0
Name: 92, dtype: object

>  <hydroph_interaction:LEU:98>  (93) 
hydroph_interaction:LEU:98    0
hydroph_interaction:LEU:98    0
Name: 92, dtype: object

>  <hbond:LEU:98>  (93) 
hbond:LEU:98    0
hbond:LEU:98    0
Name: 92, dtype: object

>  <hbond:MET:99>  (93) 
hbond:MET:99    0
hbond:MET:99    0
Name: 92, dtype: object

>  <hydroph_interaction:MET:99>  (93) 
hydroph_interaction:MET:99    0
hydroph_interaction:MET:99    0
Name: 92, dtype: object

>  <halogenbond:MET:99>  (93) 
halogenbond:MET:99    0
halogenbond:MET:99    0
Name: 92, dtype: object

>  <hydroph_interaction:LEU:100>  (93) 
hydroph_interaction:LEU:100    0
hydroph_interaction:LEU:100    0
Name: 92, dtype: object

>  <hbond:LEU:100>  (93) 
hbond:LEU:100    0
hbond:LEU:100    0
Name: 92, dtype: object

>  <hbond:ALA:101>  (93) 
hbond:ALA:101    0
hbond:ALA:101    0
Name: 92, dtype: object

>  <hydroph_interaction:ALA:101>  (93) 
hydroph_interaction:ALA:101    0
hydroph_interaction:ALA:101    0
Name: 92, dtype: object

>  <hydroph_interaction:VAL:102>  (93) 
hydroph_interaction:VAL:102    0
hydroph_interaction:VAL:102    0
Name: 92, dtype: object

>  <hbond:VAL:102>  (93) 
hbond:VAL:102    0
hbond:VAL:102    0
Name: 92, dtype: object

>  <hbond:GLY:103>  (93) 
hbond:GLY:103    0
hbond:GLY:103    0
Name: 92, dtype: object

>  <halogenbond:GLY:103>  (93) 
halogenbond:GLY:103    0
halogenbond:GLY:103    0
Name: 92, dtype: object

>  <hydroph_interaction:HIS:104>  (93) 
hydroph_interaction:HIS:104    0
hydroph_interaction:HIS:104    0
Name: 92, dtype: object

>  <hbond:HIS:104>  (93) 
hbond:HIS:104    0
hbond:HIS:104    0
Name: 92, dtype: object

>  <saltbridge:HIS:104>  (93) 
saltbridge:HIS:104    0
saltbridge:HIS:104    0
Name: 92, dtype: object

>  <pication:HIS:104>  (93) 
pication:HIS:104    0
pication:HIS:104    0
Name: 92, dtype: object

>  <pistack:HIS:104>  (93) 
pistack:HIS:104    0
pistack:HIS:104    0
Name: 92, dtype: object

>  <halogenbond:HIS:104>  (93) 
halogenbond:HIS:104    0
halogenbond:HIS:104    0
Name: 92, dtype: object

>  <hbond:SER:105>  (93) 
hbond:SER:105    1
hbond:SER:105    1
Name: 92, dtype: object

>  <halogenbond:SER:105>  (93) 
halogenbond:SER:105    0
halogenbond:SER:105    0
Name: 92, dtype: object

>  <hbond:GLU:106>  (93) 
hbond:GLU:106    0
hbond:GLU:106    0
Name: 92, dtype: object

>  <hydroph_interaction:GLU:106>  (93) 
hydroph_interaction:GLU:106    0
hydroph_interaction:GLU:106    0
Name: 92, dtype: object

>  <saltbridge:GLU:106>  (93) 
saltbridge:GLU:106    0
saltbridge:GLU:106    0
Name: 92, dtype: object

>  <halogenbond:GLU:106>  (93) 
halogenbond:GLU:106    0
halogenbond:GLU:106    0
Name: 92, dtype: object

>  <hydroph_interaction:PRO:107>  (93) 
hydroph_interaction:PRO:107    1
hydroph_interaction:PRO:107    1
Name: 92, dtype: object

>  <hbond:PRO:107>  (93) 
hbond:PRO:107    0
hbond:PRO:107    0
Name: 92, dtype: object

>  <halogenbond:PRO:107>  (93) 
halogenbond:PRO:107    0
halogenbond:PRO:107    0
Name: 92, dtype: object

>  <hbond:GLY:108>  (93) 
hbond:GLY:108    0
hbond:GLY:108    0
Name: 92, dtype: object

>  <halogenbond:GLY:108>  (93) 
halogenbond:GLY:108    0
halogenbond:GLY:108    0
Name: 92, dtype: object

>  <hbond:ASP:109>  (93) 
hbond:ASP:109    0
hbond:ASP:109    0
Name: 92, dtype: object

>  <hydroph_interaction:ASP:109>  (93) 
hydroph_interaction:ASP:109    0
hydroph_interaction:ASP:109    0
Name: 92, dtype: object

>  <saltbridge:ASP:109>  (93) 
saltbridge:ASP:109    0
saltbridge:ASP:109    0
Name: 92, dtype: object

>  <hbond:CYS:110>  (93) 
hbond:CYS:110    0
hbond:CYS:110    0
Name: 92, dtype: object

>  <halogenbond:CYS:110>  (93) 
halogenbond:CYS:110    0
halogenbond:CYS:110    0
Name: 92, dtype: object

>  <hbond:GLY:111>  (93) 
hbond:GLY:111    0
hbond:GLY:111    0
Name: 92, dtype: object

>  <hbond:GLY:112>  (93) 
hbond:GLY:112    0
hbond:GLY:112    0
Name: 92, dtype: object

>  <hbond:ILE:113>  (93) 
hbond:ILE:113    0
hbond:ILE:113    0
Name: 92, dtype: object

>  <hydroph_interaction:LEU:114>  (93) 
hydroph_interaction:LEU:114    0
hydroph_interaction:LEU:114    0
Name: 92, dtype: object

>  <hbond:LEU:114>  (93) 
hbond:LEU:114    0
hbond:LEU:114    0
Name: 92, dtype: object

>  <hydroph_interaction:ILE:123>  (93) 
hydroph_interaction:ILE:123    0
hydroph_interaction:ILE:123    0
Name: 92, dtype: object

>  <hbond:ILE:123>  (93) 
hbond:ILE:123    0
hbond:ILE:123    0
Name: 92, dtype: object

>  <hydroph_interaction:VAL:124>  (93) 
hydroph_interaction:VAL:124    1
hydroph_interaction:VAL:124    1
Name: 92, dtype: object

>  <hbond:VAL:124>  (93) 
hbond:VAL:124    0
hbond:VAL:124    0
Name: 92, dtype: object

>  <halogenbond:VAL:124>  (93) 
halogenbond:VAL:124    0
halogenbond:VAL:124    0
Name: 92, dtype: object

>  <hbond:SER:125>  (93) 
hbond:SER:125    0
hbond:SER:125    0
Name: 92, dtype: object

>  <halogenbond:SER:125>  (93) 
halogenbond:SER:125    0
halogenbond:SER:125    0
Name: 92, dtype: object

>  <hydroph_interaction:THR:126>  (93) 
hydroph_interaction:THR:126    0
hydroph_interaction:THR:126    0
Name: 92, dtype: object

>  <hbond:THR:126>  (93) 
hbond:THR:126    0
hbond:THR:126    0
Name: 92, dtype: object

>  <halogenbond:THR:126>  (93) 
halogenbond:THR:126    0
halogenbond:THR:126    0
Name: 92, dtype: object

>  <hbond:GLY:127>  (93) 
hbond:GLY:127    0
hbond:GLY:127    0
Name: 92, dtype: object

>  <halogenbond:GLY:127>  (93) 
halogenbond:GLY:127    0
halogenbond:GLY:127    0
Name: 92, dtype: object

>  <hydroph_interaction:GLY:127>  (93) 
hydroph_interaction:GLY:127    0
hydroph_interaction:GLY:127    0
Name: 92, dtype: object

>  <hbond:GLY:128>  (93) 
hbond:GLY:128    0
hbond:GLY:128    0
Name: 92, dtype: object

>  <halogenbond:GLY:128>  (93) 
halogenbond:GLY:128    0
halogenbond:GLY:128    0
Name: 92, dtype: object

>  <hydroph_interaction:GLY:128>  (93) 
hydroph_interaction:GLY:128    0
hydroph_interaction:GLY:128    0
Name: 92, dtype: object

>  <hbond:ASN:129>  (93) 
hbond:ASN:129    0
hbond:ASN:129    0
Name: 92, dtype: object

>  <hydroph_interaction:ASN:129>  (93) 
hydroph_interaction:ASN:129    0
hydroph_interaction:ASN:129    0
Name: 92, dtype: object

>  <halogenbond:ASN:129>  (93) 
halogenbond:ASN:129    0
halogenbond:ASN:129    0
Name: 92, dtype: object

>  <hbond:GLY:130>  (93) 
hbond:GLY:130    0
hbond:GLY:130    0
Name: 92, dtype: object

>  <hydroph_interaction:LEU:131>  (93) 
hydroph_interaction:LEU:131    0
hydroph_interaction:LEU:131    0
Name: 92, dtype: object

>  <hbond:LEU:131>  (93) 
hbond:LEU:131    0
hbond:LEU:131    0
Name: 92, dtype: object

>  <halogenbond:LEU:131>  (93) 
halogenbond:LEU:131    0
halogenbond:LEU:131    0
Name: 92, dtype: object

>  <hydroph_interaction:VAL:132>  (93) 
hydroph_interaction:VAL:132    0
hydroph_interaction:VAL:132    0
Name: 92, dtype: object

>  <hbond:VAL:132>  (93) 
hbond:VAL:132    0
hbond:VAL:132    0
Name: 92, dtype: object

>  <hbond:GLY:133>  (93) 
hbond:GLY:133    0
hbond:GLY:133    0
Name: 92, dtype: object

>  <halogenbond:GLY:133>  (93) 
halogenbond:GLY:133    0
halogenbond:GLY:133    0
Name: 92, dtype: object

>  <hydroph_interaction:PHE:134>  (93) 
hydroph_interaction:PHE:134    0
hydroph_interaction:PHE:134    0
Name: 92, dtype: object

>  <hbond:PHE:134>  (93) 
hbond:PHE:134    0
hbond:PHE:134    0
Name: 92, dtype: object

>  <pistack:PHE:134>  (93) 
pistack:PHE:134    0
pistack:PHE:134    0
Name: 92, dtype: object

>  <pication:PHE:134>  (93) 
pication:PHE:134    0
pication:PHE:134    0
Name: 92, dtype: object

>  <hydroph_interaction:ALA:135>  (93) 
hydroph_interaction:ALA:135    0
hydroph_interaction:ALA:135    0
Name: 92, dtype: object

>  <hbond:ALA:135>  (93) 
hbond:ALA:135    0
hbond:ALA:135    0
Name: 92, dtype: object

$$$$
PV_002790175030
     RDKit          3D

 21 21  0  0  0  0  0  0  0  0999 V2000
    4.0110   13.1310   16.8470 C   0  0  0  0  0  0  0  0  0  0  0  0
    3.2340   12.1920   17.6470 C   0  0  2  0  0  0  0  0  0  0  0  0
    2.1670   12.7950   18.2220 C   0  0  0  0  0  0  0  0  0  0  0  0
    1.9930   12.3530   19.5580 N   0  0  0  0  0  0  0  0  0  0  0  0
    1.2270   13.1160   20.4040 C   0  0  0  0  0  0  0  0  0  0  0  0
    1.6460   14.1370   20.9420 O   0  0  0  0  0  0  0  0  0  0  0  0
   -0.1460   12.5940   20.5980 C   0  0  0  0  0  0  0  0  0  0  0  0
   -0.9490   13.5440   21.5120 C   0  0  0  0  0  0  0  0  0  0  0  0
   -1.5890   14.2240   22.2040 N   0  0  0  0  0  0  0  0  0  0  0  0
    3.1610   11.5580   19.8730 C   0  0  0  0  0  0  0  0  0  0  0  0
    4.0050   11.5790   18.7060 O   0  0  0  0  0  0  0  0  0  0  0  0
    3.9600   12.8430   15.8140 H   0  0  0  0  0  0  0  0  0  0  0  0
    5.0530   13.1620   17.1700 H   0  0  0  0  0  0  0  0  0  0  0  0
    3.5920   14.1230   16.9000 H   0  0  0  0  0  0  0  0  0  0  0  0
    2.8510   11.4180   17.0040 H   0  0  0  0  0  0  0  0  0  0  0  0
    1.2920   12.5780   17.6020 H   0  0  0  0  0  0  0  0  0  0  0  0
    2.3430   13.8690   18.2550 H   0  0  0  0  0  0  0  0  0  0  0  0
   -0.1040   11.6180   21.0930 H   0  0  0  0  0  0  0  0  0  0  0  0
   -0.6590   12.4650   19.6390 H   0  0  0  0  0  0  0  0  0  0  0  0
    2.9010   10.5300   20.1330 H   0  0  0  0  0  0  0  0  0  0  0  0
    3.6920   12.0300   20.7010 H   0  0  0  0  0  0  0  0  0  0  0  0
  1  2  1  0
  2  3  1  0
  3  4  1  0
  4  5  1  0
  5  6  2  0
  5  7  1  0
  7  8  1  0
  8  9  3  0
  4 10  1  0
 10 11  1  0
 11  2  1  0
  1 12  1  0
  1 13  1  0
  1 14  1  0
  2 15  1  6
  3 16  1  0
  3 17  1  0
  7 18  1  0
  7 19  1  0
 10 20  1  0
 10 21  1  0
A    1
 C1 
A    2
 C2 
A    3
 C3 
A    4
 N1 
A    5
 C4 
A    6
 O1 
A    7
 C5 
A    8
 C6 
A    9
 N2 
A   10
 C7 
A   11
 O2 
A   12
 H1 
A   13
 H2 
A   14
 H3 
A   15
 H4 
A   16
 H5 
A   17
 H6 
A   18
 H7 
A   19
 H8 
A   20
 H9 
A   21
 H10
M  END
>  <ref_pdb>  (94) 
x0310_0A

>  <ref_mols>  (94) 
x0473_0A,x1097_0A

>  <original SMILES>  (94) 
C[C@@H]1CN(C(=O)CC#N)CO1

>  <rationale>  (94) 
info hbond:T126+E85+N129; hydroph_interaction:V84+I82+L100+L131+L98; 

>  <intxn_cluster>  (94) 
206

>  <intxn_cluster_rank>  (94) 
33

>  <N_interactions>  (94) 
8

>  <∆∆G>  (94) 
-5.923548

>  <$/mg>  (94) 
244.5

>  <comRMSD>  (94) 
0.879442

>  <N_rotatable_bonds>  (94) 
2

>  <N_analogues_07>  (94) 
0

>  <deep_P1_sidechain>  (94) 
False

>  <farthest_distance_to_substrate>  (94) 
3.803096

>  <hbond:SER:7>  (94) 
hbond:SER:7    0
hbond:SER:7    0
Name: 93, dtype: object

>  <halogenbond:SER:7>  (94) 
halogenbond:SER:7    0
halogenbond:SER:7    0
Name: 93, dtype: object

>  <hbond:GLY:8>  (94) 
hbond:GLY:8    0
hbond:GLY:8    0
Name: 93, dtype: object

>  <hydroph_interaction:ASN:19>  (94) 
hydroph_interaction:ASN:19    0
hydroph_interaction:ASN:19    0
Name: 93, dtype: object

>  <hbond:ASN:19>  (94) 
hbond:ASN:19    0
hbond:ASN:19    0
Name: 93, dtype: object

>  <halogenbond:ASN:19>  (94) 
halogenbond:ASN:19    0
halogenbond:ASN:19    0
Name: 93, dtype: object

>  <hbond:ARG:20>  (94) 
hbond:ARG:20    0
hbond:ARG:20    0
Name: 93, dtype: object

>  <hydroph_interaction:ARG:20>  (94) 
hydroph_interaction:ARG:20    0
hydroph_interaction:ARG:20    0
Name: 93, dtype: object

>  <saltbridge:ARG:20>  (94) 
saltbridge:ARG:20    0
saltbridge:ARG:20    0
Name: 93, dtype: object

>  <halogenbond:ARG:20>  (94) 
halogenbond:ARG:20    0
halogenbond:ARG:20    0
Name: 93, dtype: object

>  <pication:ARG:20>  (94) 
pication:ARG:20    0
pication:ARG:20    0
Name: 93, dtype: object

>  <hbond:HIS:21>  (94) 
hbond:HIS:21    0
hbond:HIS:21    0
Name: 93, dtype: object

>  <hydroph_interaction:HIS:21>  (94) 
hydroph_interaction:HIS:21    0
hydroph_interaction:HIS:21    0
Name: 93, dtype: object

>  <saltbridge:HIS:21>  (94) 
saltbridge:HIS:21    0
saltbridge:HIS:21    0
Name: 93, dtype: object

>  <pistack:HIS:21>  (94) 
pistack:HIS:21    0
pistack:HIS:21    0
Name: 93, dtype: object

>  <pication:HIS:21>  (94) 
pication:HIS:21    0
pication:HIS:21    0
Name: 93, dtype: object

>  <halogenbond:HIS:21>  (94) 
halogenbond:HIS:21    0
halogenbond:HIS:21    0
Name: 93, dtype: object

>  <hydroph_interaction:LEU:22>  (94) 
hydroph_interaction:LEU:22    0
hydroph_interaction:LEU:22    0
Name: 93, dtype: object

>  <hbond:LEU:22>  (94) 
hbond:LEU:22    0
hbond:LEU:22    0
Name: 93, dtype: object

>  <hydroph_interaction:TRP:28>  (94) 
hydroph_interaction:TRP:28    0
hydroph_interaction:TRP:28    0
Name: 93, dtype: object

>  <hbond:SER:36>  (94) 
hbond:SER:36    0
hbond:SER:36    0
Name: 93, dtype: object

>  <halogenbond:SER:36>  (94) 
halogenbond:SER:36    0
halogenbond:SER:36    0
Name: 93, dtype: object

>  <hbond:ARG:38>  (94) 
hbond:ARG:38    0
hbond:ARG:38    0
Name: 93, dtype: object

>  <halogenbond:ARG:38>  (94) 
halogenbond:ARG:38    0
halogenbond:ARG:38    0
Name: 93, dtype: object

>  <hbond:ASP:39>  (94) 
hbond:ASP:39    0
hbond:ASP:39    0
Name: 93, dtype: object

>  <saltbridge:ASP:39>  (94) 
saltbridge:ASP:39    0
saltbridge:ASP:39    0
Name: 93, dtype: object

>  <hydroph_interaction:ASP:39>  (94) 
hydroph_interaction:ASP:39    0
hydroph_interaction:ASP:39    0
Name: 93, dtype: object

>  <halogenbond:ASP:39>  (94) 
halogenbond:ASP:39    0
halogenbond:ASP:39    0
Name: 93, dtype: object

>  <hydroph_interaction:LEU:40>  (94) 
hydroph_interaction:LEU:40    0
hydroph_interaction:LEU:40    0
Name: 93, dtype: object

>  <hydroph_interaction:TYR:63>  (94) 
hydroph_interaction:TYR:63    0
hydroph_interaction:TYR:63    0
Name: 93, dtype: object

>  <pistack:TYR:63>  (94) 
pistack:TYR:63    0
pistack:TYR:63    0
Name: 93, dtype: object

>  <hbond:TYR:63>  (94) 
hbond:TYR:63    0
hbond:TYR:63    0
Name: 93, dtype: object

>  <hbond:TYR:64>  (94) 
hbond:TYR:64    0
hbond:TYR:64    0
Name: 93, dtype: object

>  <halogenbond:TYR:64>  (94) 
halogenbond:TYR:64    0
halogenbond:TYR:64    0
Name: 93, dtype: object

>  <hydroph_interaction:TYR:64>  (94) 
hydroph_interaction:TYR:64    0
hydroph_interaction:TYR:64    0
Name: 93, dtype: object

>  <hbond:CYS:65>  (94) 
hbond:CYS:65    0
hbond:CYS:65    0
Name: 93, dtype: object

>  <halogenbond:CYS:65>  (94) 
halogenbond:CYS:65    0
halogenbond:CYS:65    0
Name: 93, dtype: object

>  <hbond:SER:66>  (94) 
hbond:SER:66    0
hbond:SER:66    0
Name: 93, dtype: object

>  <hbond:SER:67>  (94) 
hbond:SER:67    0
hbond:SER:67    0
Name: 93, dtype: object

>  <halogenbond:SER:67>  (94) 
halogenbond:SER:67    0
halogenbond:SER:67    0
Name: 93, dtype: object

>  <hydroph_interaction:ARG:68>  (94) 
hydroph_interaction:ARG:68    0
hydroph_interaction:ARG:68    0
Name: 93, dtype: object

>  <hbond:ARG:68>  (94) 
hbond:ARG:68    0
hbond:ARG:68    0
Name: 93, dtype: object

>  <saltbridge:ARG:68>  (94) 
saltbridge:ARG:68    0
saltbridge:ARG:68    0
Name: 93, dtype: object

>  <pication:ARG:68>  (94) 
pication:ARG:68    0
pication:ARG:68    0
Name: 93, dtype: object

>  <hydroph_interaction:TYR:72>  (94) 
hydroph_interaction:TYR:72    0
hydroph_interaction:TYR:72    0
Name: 93, dtype: object

>  <hydroph_interaction:VAL:74>  (94) 
hydroph_interaction:VAL:74    0
hydroph_interaction:VAL:74    0
Name: 93, dtype: object

>  <hydroph_interaction:PHE:76>  (94) 
hydroph_interaction:PHE:76    0
hydroph_interaction:PHE:76    0
Name: 93, dtype: object

>  <hbond:SER:77>  (94) 
hbond:SER:77    0
hbond:SER:77    0
Name: 93, dtype: object

>  <hbond:SER:80>  (94) 
hbond:SER:80    0
hbond:SER:80    0
Name: 93, dtype: object

>  <hbond:LEU:81>  (94) 
hbond:LEU:81    0
hbond:LEU:81    0
Name: 93, dtype: object

>  <halogenbond:LEU:81>  (94) 
halogenbond:LEU:81    0
halogenbond:LEU:81    0
Name: 93, dtype: object

>  <hydroph_interaction:LEU:81>  (94) 
hydroph_interaction:LEU:81    0
hydroph_interaction:LEU:81    0
Name: 93, dtype: object

>  <hydroph_interaction:ILE:82>  (94) 
hydroph_interaction:ILE:82    1
hydroph_interaction:ILE:82    1
Name: 93, dtype: object

>  <hbond:ILE:82>  (94) 
hbond:ILE:82    0
hbond:ILE:82    0
Name: 93, dtype: object

>  <hydroph_interaction:PHE:83>  (94) 
hydroph_interaction:PHE:83    0
hydroph_interaction:PHE:83    0
Name: 93, dtype: object

>  <hbond:PHE:83>  (94) 
hbond:PHE:83    0
hbond:PHE:83    0
Name: 93, dtype: object

>  <halogenbond:PHE:83>  (94) 
halogenbond:PHE:83    0
halogenbond:PHE:83    0
Name: 93, dtype: object

>  <pistack:PHE:83>  (94) 
pistack:PHE:83    0
pistack:PHE:83    0
Name: 93, dtype: object

>  <hydroph_interaction:VAL:84>  (94) 
hydroph_interaction:VAL:84    1
hydroph_interaction:VAL:84    1
Name: 93, dtype: object

>  <hbond:VAL:84>  (94) 
hbond:VAL:84    0
hbond:VAL:84    0
Name: 93, dtype: object

>  <halogenbond:VAL:84>  (94) 
halogenbond:VAL:84    0
halogenbond:VAL:84    0
Name: 93, dtype: object

>  <hydroph_interaction:GLU:85>  (94) 
hydroph_interaction:GLU:85    0
hydroph_interaction:GLU:85    0
Name: 93, dtype: object

>  <hbond:GLU:85>  (94) 
hbond:GLU:85    1
hbond:GLU:85    1
Name: 93, dtype: object

>  <saltbridge:GLU:85>  (94) 
saltbridge:GLU:85    0
saltbridge:GLU:85    0
Name: 93, dtype: object

>  <halogenbond:GLU:85>  (94) 
halogenbond:GLU:85    0
halogenbond:GLU:85    0
Name: 93, dtype: object

>  <hbond:ALA:86>  (94) 
hbond:ALA:86    0
hbond:ALA:86    0
Name: 93, dtype: object

>  <halogenbond:ALA:86>  (94) 
halogenbond:ALA:86    0
halogenbond:ALA:86    0
Name: 93, dtype: object

>  <hydroph_interaction:ALA:86>  (94) 
hydroph_interaction:ALA:86    0
hydroph_interaction:ALA:86    0
Name: 93, dtype: object

>  <hbond:SER:87>  (94) 
hbond:SER:87    0
hbond:SER:87    0
Name: 93, dtype: object

>  <halogenbond:SER:87>  (94) 
halogenbond:SER:87    0
halogenbond:SER:87    0
Name: 93, dtype: object

>  <hbond:GLU:88>  (94) 
hbond:GLU:88    0
hbond:GLU:88    0
Name: 93, dtype: object

>  <hydroph_interaction:GLU:88>  (94) 
hydroph_interaction:GLU:88    0
hydroph_interaction:GLU:88    0
Name: 93, dtype: object

>  <halogenbond:GLU:88>  (94) 
halogenbond:GLU:88    0
halogenbond:GLU:88    0
Name: 93, dtype: object

>  <saltbridge:GLU:88>  (94) 
saltbridge:GLU:88    0
saltbridge:GLU:88    0
Name: 93, dtype: object

>  <hydroph_interaction:TYR:89>  (94) 
hydroph_interaction:TYR:89    0
hydroph_interaction:TYR:89    0
Name: 93, dtype: object

>  <pistack:TYR:89>  (94) 
pistack:TYR:89    0
pistack:TYR:89    0
Name: 93, dtype: object

>  <hbond:TYR:89>  (94) 
hbond:TYR:89    0
hbond:TYR:89    0
Name: 93, dtype: object

>  <halogenbond:TYR:89>  (94) 
halogenbond:TYR:89    0
halogenbond:TYR:89    0
Name: 93, dtype: object

>  <hbond:TYR:90>  (94) 
hbond:TYR:90    0
hbond:TYR:90    0
Name: 93, dtype: object

>  <hydroph_interaction:TYR:90>  (94) 
hydroph_interaction:TYR:90    0
hydroph_interaction:TYR:90    0
Name: 93, dtype: object

>  <pistack:TYR:90>  (94) 
pistack:TYR:90    0
pistack:TYR:90    0
Name: 93, dtype: object

>  <halogenbond:TYR:90>  (94) 
halogenbond:TYR:90    0
halogenbond:TYR:90    0
Name: 93, dtype: object

>  <pication:TYR:90>  (94) 
pication:TYR:90    0
pication:TYR:90    0
Name: 93, dtype: object

>  <hydroph_interaction:PRO:91>  (94) 
hydroph_interaction:PRO:91    0
hydroph_interaction:PRO:91    0
Name: 93, dtype: object

>  <halogenbond:PRO:91>  (94) 
halogenbond:PRO:91    0
halogenbond:PRO:91    0
Name: 93, dtype: object

>  <hbond:PRO:91>  (94) 
hbond:PRO:91    0
hbond:PRO:91    0
Name: 93, dtype: object

>  <hydroph_interaction:ALA:92>  (94) 
hydroph_interaction:ALA:92    0
hydroph_interaction:ALA:92    0
Name: 93, dtype: object

>  <hbond:ARG:93>  (94) 
hbond:ARG:93    0
hbond:ARG:93    0
Name: 93, dtype: object

>  <pication:ARG:93>  (94) 
pication:ARG:93    0
pication:ARG:93    0
Name: 93, dtype: object

>  <saltbridge:ARG:93>  (94) 
saltbridge:ARG:93    0
saltbridge:ARG:93    0
Name: 93, dtype: object

>  <hydroph_interaction:ARG:93>  (94) 
hydroph_interaction:ARG:93    0
hydroph_interaction:ARG:93    0
Name: 93, dtype: object

>  <halogenbond:ARG:93>  (94) 
halogenbond:ARG:93    0
halogenbond:ARG:93    0
Name: 93, dtype: object

>  <hydroph_interaction:TYR:94>  (94) 
hydroph_interaction:TYR:94    0
hydroph_interaction:TYR:94    0
Name: 93, dtype: object

>  <hbond:TYR:94>  (94) 
hbond:TYR:94    0
hbond:TYR:94    0
Name: 93, dtype: object

>  <halogenbond:GLN:95>  (94) 
halogenbond:GLN:95    0
halogenbond:GLN:95    0
Name: 93, dtype: object

>  <hbond:GLN:95>  (94) 
hbond:GLN:95    0
hbond:GLN:95    0
Name: 93, dtype: object

>  <hydroph_interaction:GLN:95>  (94) 
hydroph_interaction:GLN:95    0
hydroph_interaction:GLN:95    0
Name: 93, dtype: object

>  <hbond:SER:96>  (94) 
hbond:SER:96    0
hbond:SER:96    0
Name: 93, dtype: object

>  <hydroph_interaction:LEU:98>  (94) 
hydroph_interaction:LEU:98    1
hydroph_interaction:LEU:98    1
Name: 93, dtype: object

>  <hbond:LEU:98>  (94) 
hbond:LEU:98    0
hbond:LEU:98    0
Name: 93, dtype: object

>  <hbond:MET:99>  (94) 
hbond:MET:99    0
hbond:MET:99    0
Name: 93, dtype: object

>  <hydroph_interaction:MET:99>  (94) 
hydroph_interaction:MET:99    0
hydroph_interaction:MET:99    0
Name: 93, dtype: object

>  <halogenbond:MET:99>  (94) 
halogenbond:MET:99    0
halogenbond:MET:99    0
Name: 93, dtype: object

>  <hydroph_interaction:LEU:100>  (94) 
hydroph_interaction:LEU:100    1
hydroph_interaction:LEU:100    1
Name: 93, dtype: object

>  <hbond:LEU:100>  (94) 
hbond:LEU:100    0
hbond:LEU:100    0
Name: 93, dtype: object

>  <hbond:ALA:101>  (94) 
hbond:ALA:101    0
hbond:ALA:101    0
Name: 93, dtype: object

>  <hydroph_interaction:ALA:101>  (94) 
hydroph_interaction:ALA:101    0
hydroph_interaction:ALA:101    0
Name: 93, dtype: object

>  <hydroph_interaction:VAL:102>  (94) 
hydroph_interaction:VAL:102    0
hydroph_interaction:VAL:102    0
Name: 93, dtype: object

>  <hbond:VAL:102>  (94) 
hbond:VAL:102    0
hbond:VAL:102    0
Name: 93, dtype: object

>  <hbond:GLY:103>  (94) 
hbond:GLY:103    0
hbond:GLY:103    0
Name: 93, dtype: object

>  <halogenbond:GLY:103>  (94) 
halogenbond:GLY:103    0
halogenbond:GLY:103    0
Name: 93, dtype: object

>  <hydroph_interaction:HIS:104>  (94) 
hydroph_interaction:HIS:104    0
hydroph_interaction:HIS:104    0
Name: 93, dtype: object

>  <hbond:HIS:104>  (94) 
hbond:HIS:104    0
hbond:HIS:104    0
Name: 93, dtype: object

>  <saltbridge:HIS:104>  (94) 
saltbridge:HIS:104    0
saltbridge:HIS:104    0
Name: 93, dtype: object

>  <pication:HIS:104>  (94) 
pication:HIS:104    0
pication:HIS:104    0
Name: 93, dtype: object

>  <pistack:HIS:104>  (94) 
pistack:HIS:104    0
pistack:HIS:104    0
Name: 93, dtype: object

>  <halogenbond:HIS:104>  (94) 
halogenbond:HIS:104    0
halogenbond:HIS:104    0
Name: 93, dtype: object

>  <hbond:SER:105>  (94) 
hbond:SER:105    0
hbond:SER:105    0
Name: 93, dtype: object

>  <halogenbond:SER:105>  (94) 
halogenbond:SER:105    0
halogenbond:SER:105    0
Name: 93, dtype: object

>  <hbond:GLU:106>  (94) 
hbond:GLU:106    0
hbond:GLU:106    0
Name: 93, dtype: object

>  <hydroph_interaction:GLU:106>  (94) 
hydroph_interaction:GLU:106    0
hydroph_interaction:GLU:106    0
Name: 93, dtype: object

>  <saltbridge:GLU:106>  (94) 
saltbridge:GLU:106    0
saltbridge:GLU:106    0
Name: 93, dtype: object

>  <halogenbond:GLU:106>  (94) 
halogenbond:GLU:106    0
halogenbond:GLU:106    0
Name: 93, dtype: object

>  <hydroph_interaction:PRO:107>  (94) 
hydroph_interaction:PRO:107    0
hydroph_interaction:PRO:107    0
Name: 93, dtype: object

>  <hbond:PRO:107>  (94) 
hbond:PRO:107    0
hbond:PRO:107    0
Name: 93, dtype: object

>  <halogenbond:PRO:107>  (94) 
halogenbond:PRO:107    0
halogenbond:PRO:107    0
Name: 93, dtype: object

>  <hbond:GLY:108>  (94) 
hbond:GLY:108    0
hbond:GLY:108    0
Name: 93, dtype: object

>  <halogenbond:GLY:108>  (94) 
halogenbond:GLY:108    0
halogenbond:GLY:108    0
Name: 93, dtype: object

>  <hbond:ASP:109>  (94) 
hbond:ASP:109    0
hbond:ASP:109    0
Name: 93, dtype: object

>  <hydroph_interaction:ASP:109>  (94) 
hydroph_interaction:ASP:109    0
hydroph_interaction:ASP:109    0
Name: 93, dtype: object

>  <saltbridge:ASP:109>  (94) 
saltbridge:ASP:109    0
saltbridge:ASP:109    0
Name: 93, dtype: object

>  <hbond:CYS:110>  (94) 
hbond:CYS:110    0
hbond:CYS:110    0
Name: 93, dtype: object

>  <halogenbond:CYS:110>  (94) 
halogenbond:CYS:110    0
halogenbond:CYS:110    0
Name: 93, dtype: object

>  <hbond:GLY:111>  (94) 
hbond:GLY:111    0
hbond:GLY:111    0
Name: 93, dtype: object

>  <hbond:GLY:112>  (94) 
hbond:GLY:112    0
hbond:GLY:112    0
Name: 93, dtype: object

>  <hbond:ILE:113>  (94) 
hbond:ILE:113    0
hbond:ILE:113    0
Name: 93, dtype: object

>  <hydroph_interaction:LEU:114>  (94) 
hydroph_interaction:LEU:114    0
hydroph_interaction:LEU:114    0
Name: 93, dtype: object

>  <hbond:LEU:114>  (94) 
hbond:LEU:114    0
hbond:LEU:114    0
Name: 93, dtype: object

>  <hydroph_interaction:ILE:123>  (94) 
hydroph_interaction:ILE:123    0
hydroph_interaction:ILE:123    0
Name: 93, dtype: object

>  <hbond:ILE:123>  (94) 
hbond:ILE:123    0
hbond:ILE:123    0
Name: 93, dtype: object

>  <hydroph_interaction:VAL:124>  (94) 
hydroph_interaction:VAL:124    0
hydroph_interaction:VAL:124    0
Name: 93, dtype: object

>  <hbond:VAL:124>  (94) 
hbond:VAL:124    0
hbond:VAL:124    0
Name: 93, dtype: object

>  <halogenbond:VAL:124>  (94) 
halogenbond:VAL:124    0
halogenbond:VAL:124    0
Name: 93, dtype: object

>  <hbond:SER:125>  (94) 
hbond:SER:125    0
hbond:SER:125    0
Name: 93, dtype: object

>  <halogenbond:SER:125>  (94) 
halogenbond:SER:125    0
halogenbond:SER:125    0
Name: 93, dtype: object

>  <hydroph_interaction:THR:126>  (94) 
hydroph_interaction:THR:126    0
hydroph_interaction:THR:126    0
Name: 93, dtype: object

>  <hbond:THR:126>  (94) 
hbond:THR:126    1
hbond:THR:126    1
Name: 93, dtype: object

>  <halogenbond:THR:126>  (94) 
halogenbond:THR:126    0
halogenbond:THR:126    0
Name: 93, dtype: object

>  <hbond:GLY:127>  (94) 
hbond:GLY:127    0
hbond:GLY:127    0
Name: 93, dtype: object

>  <halogenbond:GLY:127>  (94) 
halogenbond:GLY:127    0
halogenbond:GLY:127    0
Name: 93, dtype: object

>  <hydroph_interaction:GLY:127>  (94) 
hydroph_interaction:GLY:127    0
hydroph_interaction:GLY:127    0
Name: 93, dtype: object

>  <hbond:GLY:128>  (94) 
hbond:GLY:128    0
hbond:GLY:128    0
Name: 93, dtype: object

>  <halogenbond:GLY:128>  (94) 
halogenbond:GLY:128    0
halogenbond:GLY:128    0
Name: 93, dtype: object

>  <hydroph_interaction:GLY:128>  (94) 
hydroph_interaction:GLY:128    0
hydroph_interaction:GLY:128    0
Name: 93, dtype: object

>  <hbond:ASN:129>  (94) 
hbond:ASN:129    1
hbond:ASN:129    1
Name: 93, dtype: object

>  <hydroph_interaction:ASN:129>  (94) 
hydroph_interaction:ASN:129    0
hydroph_interaction:ASN:129    0
Name: 93, dtype: object

>  <halogenbond:ASN:129>  (94) 
halogenbond:ASN:129    0
halogenbond:ASN:129    0
Name: 93, dtype: object

>  <hbond:GLY:130>  (94) 
hbond:GLY:130    0
hbond:GLY:130    0
Name: 93, dtype: object

>  <hydroph_interaction:LEU:131>  (94) 
hydroph_interaction:LEU:131    1
hydroph_interaction:LEU:131    1
Name: 93, dtype: object

>  <hbond:LEU:131>  (94) 
hbond:LEU:131    0
hbond:LEU:131    0
Name: 93, dtype: object

>  <halogenbond:LEU:131>  (94) 
halogenbond:LEU:131    0
halogenbond:LEU:131    0
Name: 93, dtype: object

>  <hydroph_interaction:VAL:132>  (94) 
hydroph_interaction:VAL:132    0
hydroph_interaction:VAL:132    0
Name: 93, dtype: object

>  <hbond:VAL:132>  (94) 
hbond:VAL:132    0
hbond:VAL:132    0
Name: 93, dtype: object

>  <hbond:GLY:133>  (94) 
hbond:GLY:133    0
hbond:GLY:133    0
Name: 93, dtype: object

>  <halogenbond:GLY:133>  (94) 
halogenbond:GLY:133    0
halogenbond:GLY:133    0
Name: 93, dtype: object

>  <hydroph_interaction:PHE:134>  (94) 
hydroph_interaction:PHE:134    0
hydroph_interaction:PHE:134    0
Name: 93, dtype: object

>  <hbond:PHE:134>  (94) 
hbond:PHE:134    0
hbond:PHE:134    0
Name: 93, dtype: object

>  <pistack:PHE:134>  (94) 
pistack:PHE:134    0
pistack:PHE:134    0
Name: 93, dtype: object

>  <pication:PHE:134>  (94) 
pication:PHE:134    0
pication:PHE:134    0
Name: 93, dtype: object

>  <hydroph_interaction:ALA:135>  (94) 
hydroph_interaction:ALA:135    0
hydroph_interaction:ALA:135    0
Name: 93, dtype: object

>  <hbond:ALA:135>  (94) 
hbond:ALA:135    0
hbond:ALA:135    0
Name: 93, dtype: object

$$$$
Z2764581732
     RDKit          3D

 30 30  0  0  0  0  0  0  0  0999 V2000
    7.5120   16.1600   26.8340 C   0  0  0  0  0  0  0  0  0  0  0  0
    8.2240   15.3990   25.8380 N   0  0  0  0  0  0  0  0  0  0  0  0
    9.6570   15.2580   26.0070 C   0  0  0  0  0  0  0  0  0  0  0  0
    7.5450   14.6330   24.8710 C   0  0  0  0  0  0  0  0  0  0  0  0
    6.6060   15.0540   24.2110 O   0  0  0  0  0  0  0  0  0  0  0  0
    7.9810   13.2300   24.6370 C   0  0  0  0  0  0  0  0  0  0  0  0
    7.3170   12.2270   25.3510 C   0  0  0  0  0  0  0  0  0  0  0  0
    7.6760   10.8930   25.1760 C   0  0  0  0  0  0  0  0  0  0  0  0
    8.6940   10.5390   24.2930 C   0  0  0  0  0  0  0  0  0  0  0  0
    9.3460   11.5510   23.5870 C   0  0  0  0  0  0  0  0  0  0  0  0
    9.0190   12.8980   23.7320 C   0  0  0  0  0  0  0  0  0  0  0  0
    9.7050   13.8880   23.0000 N   0  0  0  0  0  0  0  0  0  0  0  0
   10.9970   13.6750   22.6680 C   0  0  0  0  0  0  0  0  0  0  0  0
   11.5490   14.7020   21.6850 C   0  0  0  0  0  0  0  0  0  0  0  0
   12.1670   15.7120   22.3300 F   0  0  0  0  0  0  0  0  0  0  0  0
   10.5800   15.2200   20.8970 F   0  0  0  0  0  0  0  0  0  0  0  0
   12.4650   14.1520   20.8700 F   0  0  0  0  0  0  0  0  0  0  0  0
    8.1990   16.8860   27.2800 H   0  0  0  0  0  0  0  0  0  0  0  0
    7.1540   15.4830   27.6110 H   0  0  0  0  0  0  0  0  0  0  0  0
    6.6540   16.6730   26.3850 H   0  0  0  0  0  0  0  0  0  0  0  0
    9.8690   15.0440   27.0590 H   0  0  0  0  0  0  0  0  0  0  0  0
   10.1830   16.1570   25.7430 H   0  0  0  0  0  0  0  0  0  0  0  0
   10.0190   14.4520   25.3640 H   0  0  0  0  0  0  0  0  0  0  0  0
    6.5190   12.4880   26.0430 H   0  0  0  0  0  0  0  0  0  0  0  0
    7.1600   10.1140   25.7290 H   0  0  0  0  0  0  0  0  0  0  0  0
    9.0460    9.5380   24.0840 H   0  0  0  0  0  0  0  0  0  0  0  0
   10.1520   11.3130   22.8810 H   0  0  0  0  0  0  0  0  0  0  0  0
    9.1580   14.1290   22.1830 H   0  0  0  0  0  0  0  0  0  0  0  0
   11.1300   12.6460   22.3250 H   0  0  0  0  0  0  0  0  0  0  0  0
   11.6330   13.7680   23.5590 H   0  0  0  0  0  0  0  0  0  0  0  0
  1  2  1  0
  2  3  1  0
  2  4  1  0
  4  5  2  0
  4  6  1  0
  6  7  2  0
  7  8  1  0
  8  9  2  0
  9 10  1  0
 10 11  2  0
 11 12  1  0
 12 13  1  0
 13 14  1  0
 14 15  1  0
 14 16  1  0
 14 17  1  0
 11  6  1  0
  1 18  1  0
  1 19  1  0
  1 20  1  0
  3 21  1  0
  3 22  1  0
  3 23  1  0
  7 24  1  0
  8 25  1  0
  9 26  1  0
 10 27  1  0
 12 28  1  0
 13 29  1  0
 13 30  1  0
A    1
 C1 
A    2
 N1 
A    3
 C2 
A    4
 C3 
A    5
 O1 
A    6
 C4 
A    7
 C5 
A    8
 C6 
A    9
 C7 
A   10
 C8 
A   11
 C9 
A   12
 N2 
A   13
 C10
A   14
 C11
A   15
 F1 
A   16
 F2 
A   17
 F3 
A   18
 H1 
A   19
 H2 
A   20
 H3 
A   21
 H4 
A   22
 H5 
A   23
 H6 
A   24
 H7 
A   25
 H8 
A   26
 H9 
A   27
 H10
A   28
 H11
A   29
 H12
A   30
 H13
M  END
>  <ref_pdb>  (95) 
x0310_0A

>  <ref_mols>  (95) 
x0351_0A,x1148_0A

>  <original SMILES>  (95) 
CN(C)C(=O)c1ccccc1NCC(F)(F)F

>  <rationale>  (95) 
info halogenbond:E88+D39; 

>  <intxn_cluster>  (95) 
205

>  <intxn_cluster_rank>  (95) 
33

>  <N_interactions>  (95) 
2

>  <∆∆G>  (95) 
-6.281402

>  <$/mg>  (95) 
nan

>  <comRMSD>  (95) 
0.701558

>  <N_rotatable_bonds>  (95) 
5

>  <N_analogues_07>  (95) 
0

>  <deep_P1_sidechain>  (95) 
False

>  <farthest_distance_to_substrate>  (95) 
4.020799

>  <hbond:SER:7>  (95) 
hbond:SER:7    0
hbond:SER:7    0
Name: 94, dtype: object

>  <halogenbond:SER:7>  (95) 
halogenbond:SER:7    0
halogenbond:SER:7    0
Name: 94, dtype: object

>  <hbond:GLY:8>  (95) 
hbond:GLY:8    0
hbond:GLY:8    0
Name: 94, dtype: object

>  <hydroph_interaction:ASN:19>  (95) 
hydroph_interaction:ASN:19    0
hydroph_interaction:ASN:19    0
Name: 94, dtype: object

>  <hbond:ASN:19>  (95) 
hbond:ASN:19    0
hbond:ASN:19    0
Name: 94, dtype: object

>  <halogenbond:ASN:19>  (95) 
halogenbond:ASN:19    0
halogenbond:ASN:19    0
Name: 94, dtype: object

>  <hbond:ARG:20>  (95) 
hbond:ARG:20    0
hbond:ARG:20    0
Name: 94, dtype: object

>  <hydroph_interaction:ARG:20>  (95) 
hydroph_interaction:ARG:20    0
hydroph_interaction:ARG:20    0
Name: 94, dtype: object

>  <saltbridge:ARG:20>  (95) 
saltbridge:ARG:20    0
saltbridge:ARG:20    0
Name: 94, dtype: object

>  <halogenbond:ARG:20>  (95) 
halogenbond:ARG:20    0
halogenbond:ARG:20    0
Name: 94, dtype: object

>  <pication:ARG:20>  (95) 
pication:ARG:20    0
pication:ARG:20    0
Name: 94, dtype: object

>  <hbond:HIS:21>  (95) 
hbond:HIS:21    0
hbond:HIS:21    0
Name: 94, dtype: object

>  <hydroph_interaction:HIS:21>  (95) 
hydroph_interaction:HIS:21    0
hydroph_interaction:HIS:21    0
Name: 94, dtype: object

>  <saltbridge:HIS:21>  (95) 
saltbridge:HIS:21    0
saltbridge:HIS:21    0
Name: 94, dtype: object

>  <pistack:HIS:21>  (95) 
pistack:HIS:21    0
pistack:HIS:21    0
Name: 94, dtype: object

>  <pication:HIS:21>  (95) 
pication:HIS:21    0
pication:HIS:21    0
Name: 94, dtype: object

>  <halogenbond:HIS:21>  (95) 
halogenbond:HIS:21    0
halogenbond:HIS:21    0
Name: 94, dtype: object

>  <hydroph_interaction:LEU:22>  (95) 
hydroph_interaction:LEU:22    0
hydroph_interaction:LEU:22    0
Name: 94, dtype: object

>  <hbond:LEU:22>  (95) 
hbond:LEU:22    0
hbond:LEU:22    0
Name: 94, dtype: object

>  <hydroph_interaction:TRP:28>  (95) 
hydroph_interaction:TRP:28    0
hydroph_interaction:TRP:28    0
Name: 94, dtype: object

>  <hbond:SER:36>  (95) 
hbond:SER:36    0
hbond:SER:36    0
Name: 94, dtype: object

>  <halogenbond:SER:36>  (95) 
halogenbond:SER:36    0
halogenbond:SER:36    0
Name: 94, dtype: object

>  <hbond:ARG:38>  (95) 
hbond:ARG:38    0
hbond:ARG:38    0
Name: 94, dtype: object

>  <halogenbond:ARG:38>  (95) 
halogenbond:ARG:38    0
halogenbond:ARG:38    0
Name: 94, dtype: object

>  <hbond:ASP:39>  (95) 
hbond:ASP:39    0
hbond:ASP:39    0
Name: 94, dtype: object

>  <saltbridge:ASP:39>  (95) 
saltbridge:ASP:39    0
saltbridge:ASP:39    0
Name: 94, dtype: object

>  <hydroph_interaction:ASP:39>  (95) 
hydroph_interaction:ASP:39    0
hydroph_interaction:ASP:39    0
Name: 94, dtype: object

>  <halogenbond:ASP:39>  (95) 
halogenbond:ASP:39    1
halogenbond:ASP:39    1
Name: 94, dtype: object

>  <hydroph_interaction:LEU:40>  (95) 
hydroph_interaction:LEU:40    0
hydroph_interaction:LEU:40    0
Name: 94, dtype: object

>  <hydroph_interaction:TYR:63>  (95) 
hydroph_interaction:TYR:63    0
hydroph_interaction:TYR:63    0
Name: 94, dtype: object

>  <pistack:TYR:63>  (95) 
pistack:TYR:63    0
pistack:TYR:63    0
Name: 94, dtype: object

>  <hbond:TYR:63>  (95) 
hbond:TYR:63    0
hbond:TYR:63    0
Name: 94, dtype: object

>  <hbond:TYR:64>  (95) 
hbond:TYR:64    0
hbond:TYR:64    0
Name: 94, dtype: object

>  <halogenbond:TYR:64>  (95) 
halogenbond:TYR:64    0
halogenbond:TYR:64    0
Name: 94, dtype: object

>  <hydroph_interaction:TYR:64>  (95) 
hydroph_interaction:TYR:64    0
hydroph_interaction:TYR:64    0
Name: 94, dtype: object

>  <hbond:CYS:65>  (95) 
hbond:CYS:65    0
hbond:CYS:65    0
Name: 94, dtype: object

>  <halogenbond:CYS:65>  (95) 
halogenbond:CYS:65    0
halogenbond:CYS:65    0
Name: 94, dtype: object

>  <hbond:SER:66>  (95) 
hbond:SER:66    0
hbond:SER:66    0
Name: 94, dtype: object

>  <hbond:SER:67>  (95) 
hbond:SER:67    0
hbond:SER:67    0
Name: 94, dtype: object

>  <halogenbond:SER:67>  (95) 
halogenbond:SER:67    0
halogenbond:SER:67    0
Name: 94, dtype: object

>  <hydroph_interaction:ARG:68>  (95) 
hydroph_interaction:ARG:68    0
hydroph_interaction:ARG:68    0
Name: 94, dtype: object

>  <hbond:ARG:68>  (95) 
hbond:ARG:68    0
hbond:ARG:68    0
Name: 94, dtype: object

>  <saltbridge:ARG:68>  (95) 
saltbridge:ARG:68    0
saltbridge:ARG:68    0
Name: 94, dtype: object

>  <pication:ARG:68>  (95) 
pication:ARG:68    0
pication:ARG:68    0
Name: 94, dtype: object

>  <hydroph_interaction:TYR:72>  (95) 
hydroph_interaction:TYR:72    0
hydroph_interaction:TYR:72    0
Name: 94, dtype: object

>  <hydroph_interaction:VAL:74>  (95) 
hydroph_interaction:VAL:74    0
hydroph_interaction:VAL:74    0
Name: 94, dtype: object

>  <hydroph_interaction:PHE:76>  (95) 
hydroph_interaction:PHE:76    0
hydroph_interaction:PHE:76    0
Name: 94, dtype: object

>  <hbond:SER:77>  (95) 
hbond:SER:77    0
hbond:SER:77    0
Name: 94, dtype: object

>  <hbond:SER:80>  (95) 
hbond:SER:80    0
hbond:SER:80    0
Name: 94, dtype: object

>  <hbond:LEU:81>  (95) 
hbond:LEU:81    0
hbond:LEU:81    0
Name: 94, dtype: object

>  <halogenbond:LEU:81>  (95) 
halogenbond:LEU:81    0
halogenbond:LEU:81    0
Name: 94, dtype: object

>  <hydroph_interaction:LEU:81>  (95) 
hydroph_interaction:LEU:81    0
hydroph_interaction:LEU:81    0
Name: 94, dtype: object

>  <hydroph_interaction:ILE:82>  (95) 
hydroph_interaction:ILE:82    0
hydroph_interaction:ILE:82    0
Name: 94, dtype: object

>  <hbond:ILE:82>  (95) 
hbond:ILE:82    0
hbond:ILE:82    0
Name: 94, dtype: object

>  <hydroph_interaction:PHE:83>  (95) 
hydroph_interaction:PHE:83    0
hydroph_interaction:PHE:83    0
Name: 94, dtype: object

>  <hbond:PHE:83>  (95) 
hbond:PHE:83    0
hbond:PHE:83    0
Name: 94, dtype: object

>  <halogenbond:PHE:83>  (95) 
halogenbond:PHE:83    0
halogenbond:PHE:83    0
Name: 94, dtype: object

>  <pistack:PHE:83>  (95) 
pistack:PHE:83    0
pistack:PHE:83    0
Name: 94, dtype: object

>  <hydroph_interaction:VAL:84>  (95) 
hydroph_interaction:VAL:84    0
hydroph_interaction:VAL:84    0
Name: 94, dtype: object

>  <hbond:VAL:84>  (95) 
hbond:VAL:84    0
hbond:VAL:84    0
Name: 94, dtype: object

>  <halogenbond:VAL:84>  (95) 
halogenbond:VAL:84    0
halogenbond:VAL:84    0
Name: 94, dtype: object

>  <hydroph_interaction:GLU:85>  (95) 
hydroph_interaction:GLU:85    0
hydroph_interaction:GLU:85    0
Name: 94, dtype: object

>  <hbond:GLU:85>  (95) 
hbond:GLU:85    0
hbond:GLU:85    0
Name: 94, dtype: object

>  <saltbridge:GLU:85>  (95) 
saltbridge:GLU:85    0
saltbridge:GLU:85    0
Name: 94, dtype: object

>  <halogenbond:GLU:85>  (95) 
halogenbond:GLU:85    0
halogenbond:GLU:85    0
Name: 94, dtype: object

>  <hbond:ALA:86>  (95) 
hbond:ALA:86    0
hbond:ALA:86    0
Name: 94, dtype: object

>  <halogenbond:ALA:86>  (95) 
halogenbond:ALA:86    0
halogenbond:ALA:86    0
Name: 94, dtype: object

>  <hydroph_interaction:ALA:86>  (95) 
hydroph_interaction:ALA:86    0
hydroph_interaction:ALA:86    0
Name: 94, dtype: object

>  <hbond:SER:87>  (95) 
hbond:SER:87    0
hbond:SER:87    0
Name: 94, dtype: object

>  <halogenbond:SER:87>  (95) 
halogenbond:SER:87    0
halogenbond:SER:87    0
Name: 94, dtype: object

>  <hbond:GLU:88>  (95) 
hbond:GLU:88    0
hbond:GLU:88    0
Name: 94, dtype: object

>  <hydroph_interaction:GLU:88>  (95) 
hydroph_interaction:GLU:88    0
hydroph_interaction:GLU:88    0
Name: 94, dtype: object

>  <halogenbond:GLU:88>  (95) 
halogenbond:GLU:88    1
halogenbond:GLU:88    1
Name: 94, dtype: object

>  <saltbridge:GLU:88>  (95) 
saltbridge:GLU:88    0
saltbridge:GLU:88    0
Name: 94, dtype: object

>  <hydroph_interaction:TYR:89>  (95) 
hydroph_interaction:TYR:89    0
hydroph_interaction:TYR:89    0
Name: 94, dtype: object

>  <pistack:TYR:89>  (95) 
pistack:TYR:89    0
pistack:TYR:89    0
Name: 94, dtype: object

>  <hbond:TYR:89>  (95) 
hbond:TYR:89    0
hbond:TYR:89    0
Name: 94, dtype: object

>  <halogenbond:TYR:89>  (95) 
halogenbond:TYR:89    0
halogenbond:TYR:89    0
Name: 94, dtype: object

>  <hbond:TYR:90>  (95) 
hbond:TYR:90    0
hbond:TYR:90    0
Name: 94, dtype: object

>  <hydroph_interaction:TYR:90>  (95) 
hydroph_interaction:TYR:90    0
hydroph_interaction:TYR:90    0
Name: 94, dtype: object

>  <pistack:TYR:90>  (95) 
pistack:TYR:90    0
pistack:TYR:90    0
Name: 94, dtype: object

>  <halogenbond:TYR:90>  (95) 
halogenbond:TYR:90    0
halogenbond:TYR:90    0
Name: 94, dtype: object

>  <pication:TYR:90>  (95) 
pication:TYR:90    0
pication:TYR:90    0
Name: 94, dtype: object

>  <hydroph_interaction:PRO:91>  (95) 
hydroph_interaction:PRO:91    0
hydroph_interaction:PRO:91    0
Name: 94, dtype: object

>  <halogenbond:PRO:91>  (95) 
halogenbond:PRO:91    0
halogenbond:PRO:91    0
Name: 94, dtype: object

>  <hbond:PRO:91>  (95) 
hbond:PRO:91    0
hbond:PRO:91    0
Name: 94, dtype: object

>  <hydroph_interaction:ALA:92>  (95) 
hydroph_interaction:ALA:92    0
hydroph_interaction:ALA:92    0
Name: 94, dtype: object

>  <hbond:ARG:93>  (95) 
hbond:ARG:93    0
hbond:ARG:93    0
Name: 94, dtype: object

>  <pication:ARG:93>  (95) 
pication:ARG:93    0
pication:ARG:93    0
Name: 94, dtype: object

>  <saltbridge:ARG:93>  (95) 
saltbridge:ARG:93    0
saltbridge:ARG:93    0
Name: 94, dtype: object

>  <hydroph_interaction:ARG:93>  (95) 
hydroph_interaction:ARG:93    0
hydroph_interaction:ARG:93    0
Name: 94, dtype: object

>  <halogenbond:ARG:93>  (95) 
halogenbond:ARG:93    0
halogenbond:ARG:93    0
Name: 94, dtype: object

>  <hydroph_interaction:TYR:94>  (95) 
hydroph_interaction:TYR:94    0
hydroph_interaction:TYR:94    0
Name: 94, dtype: object

>  <hbond:TYR:94>  (95) 
hbond:TYR:94    0
hbond:TYR:94    0
Name: 94, dtype: object

>  <halogenbond:GLN:95>  (95) 
halogenbond:GLN:95    0
halogenbond:GLN:95    0
Name: 94, dtype: object

>  <hbond:GLN:95>  (95) 
hbond:GLN:95    0
hbond:GLN:95    0
Name: 94, dtype: object

>  <hydroph_interaction:GLN:95>  (95) 
hydroph_interaction:GLN:95    0
hydroph_interaction:GLN:95    0
Name: 94, dtype: object

>  <hbond:SER:96>  (95) 
hbond:SER:96    0
hbond:SER:96    0
Name: 94, dtype: object

>  <hydroph_interaction:LEU:98>  (95) 
hydroph_interaction:LEU:98    0
hydroph_interaction:LEU:98    0
Name: 94, dtype: object

>  <hbond:LEU:98>  (95) 
hbond:LEU:98    0
hbond:LEU:98    0
Name: 94, dtype: object

>  <hbond:MET:99>  (95) 
hbond:MET:99    0
hbond:MET:99    0
Name: 94, dtype: object

>  <hydroph_interaction:MET:99>  (95) 
hydroph_interaction:MET:99    0
hydroph_interaction:MET:99    0
Name: 94, dtype: object

>  <halogenbond:MET:99>  (95) 
halogenbond:MET:99    0
halogenbond:MET:99    0
Name: 94, dtype: object

>  <hydroph_interaction:LEU:100>  (95) 
hydroph_interaction:LEU:100    0
hydroph_interaction:LEU:100    0
Name: 94, dtype: object

>  <hbond:LEU:100>  (95) 
hbond:LEU:100    0
hbond:LEU:100    0
Name: 94, dtype: object

>  <hbond:ALA:101>  (95) 
hbond:ALA:101    0
hbond:ALA:101    0
Name: 94, dtype: object

>  <hydroph_interaction:ALA:101>  (95) 
hydroph_interaction:ALA:101    0
hydroph_interaction:ALA:101    0
Name: 94, dtype: object

>  <hydroph_interaction:VAL:102>  (95) 
hydroph_interaction:VAL:102    0
hydroph_interaction:VAL:102    0
Name: 94, dtype: object

>  <hbond:VAL:102>  (95) 
hbond:VAL:102    0
hbond:VAL:102    0
Name: 94, dtype: object

>  <hbond:GLY:103>  (95) 
hbond:GLY:103    0
hbond:GLY:103    0
Name: 94, dtype: object

>  <halogenbond:GLY:103>  (95) 
halogenbond:GLY:103    0
halogenbond:GLY:103    0
Name: 94, dtype: object

>  <hydroph_interaction:HIS:104>  (95) 
hydroph_interaction:HIS:104    0
hydroph_interaction:HIS:104    0
Name: 94, dtype: object

>  <hbond:HIS:104>  (95) 
hbond:HIS:104    0
hbond:HIS:104    0
Name: 94, dtype: object

>  <saltbridge:HIS:104>  (95) 
saltbridge:HIS:104    0
saltbridge:HIS:104    0
Name: 94, dtype: object

>  <pication:HIS:104>  (95) 
pication:HIS:104    0
pication:HIS:104    0
Name: 94, dtype: object

>  <pistack:HIS:104>  (95) 
pistack:HIS:104    0
pistack:HIS:104    0
Name: 94, dtype: object

>  <halogenbond:HIS:104>  (95) 
halogenbond:HIS:104    0
halogenbond:HIS:104    0
Name: 94, dtype: object

>  <hbond:SER:105>  (95) 
hbond:SER:105    0
hbond:SER:105    0
Name: 94, dtype: object

>  <halogenbond:SER:105>  (95) 
halogenbond:SER:105    0
halogenbond:SER:105    0
Name: 94, dtype: object

>  <hbond:GLU:106>  (95) 
hbond:GLU:106    0
hbond:GLU:106    0
Name: 94, dtype: object

>  <hydroph_interaction:GLU:106>  (95) 
hydroph_interaction:GLU:106    0
hydroph_interaction:GLU:106    0
Name: 94, dtype: object

>  <saltbridge:GLU:106>  (95) 
saltbridge:GLU:106    0
saltbridge:GLU:106    0
Name: 94, dtype: object

>  <halogenbond:GLU:106>  (95) 
halogenbond:GLU:106    0
halogenbond:GLU:106    0
Name: 94, dtype: object

>  <hydroph_interaction:PRO:107>  (95) 
hydroph_interaction:PRO:107    0
hydroph_interaction:PRO:107    0
Name: 94, dtype: object

>  <hbond:PRO:107>  (95) 
hbond:PRO:107    0
hbond:PRO:107    0
Name: 94, dtype: object

>  <halogenbond:PRO:107>  (95) 
halogenbond:PRO:107    0
halogenbond:PRO:107    0
Name: 94, dtype: object

>  <hbond:GLY:108>  (95) 
hbond:GLY:108    0
hbond:GLY:108    0
Name: 94, dtype: object

>  <halogenbond:GLY:108>  (95) 
halogenbond:GLY:108    0
halogenbond:GLY:108    0
Name: 94, dtype: object

>  <hbond:ASP:109>  (95) 
hbond:ASP:109    0
hbond:ASP:109    0
Name: 94, dtype: object

>  <hydroph_interaction:ASP:109>  (95) 
hydroph_interaction:ASP:109    0
hydroph_interaction:ASP:109    0
Name: 94, dtype: object

>  <saltbridge:ASP:109>  (95) 
saltbridge:ASP:109    0
saltbridge:ASP:109    0
Name: 94, dtype: object

>  <hbond:CYS:110>  (95) 
hbond:CYS:110    0
hbond:CYS:110    0
Name: 94, dtype: object

>  <halogenbond:CYS:110>  (95) 
halogenbond:CYS:110    0
halogenbond:CYS:110    0
Name: 94, dtype: object

>  <hbond:GLY:111>  (95) 
hbond:GLY:111    0
hbond:GLY:111    0
Name: 94, dtype: object

>  <hbond:GLY:112>  (95) 
hbond:GLY:112    0
hbond:GLY:112    0
Name: 94, dtype: object

>  <hbond:ILE:113>  (95) 
hbond:ILE:113    0
hbond:ILE:113    0
Name: 94, dtype: object

>  <hydroph_interaction:LEU:114>  (95) 
hydroph_interaction:LEU:114    0
hydroph_interaction:LEU:114    0
Name: 94, dtype: object

>  <hbond:LEU:114>  (95) 
hbond:LEU:114    0
hbond:LEU:114    0
Name: 94, dtype: object

>  <hydroph_interaction:ILE:123>  (95) 
hydroph_interaction:ILE:123    0
hydroph_interaction:ILE:123    0
Name: 94, dtype: object

>  <hbond:ILE:123>  (95) 
hbond:ILE:123    0
hbond:ILE:123    0
Name: 94, dtype: object

>  <hydroph_interaction:VAL:124>  (95) 
hydroph_interaction:VAL:124    0
hydroph_interaction:VAL:124    0
Name: 94, dtype: object

>  <hbond:VAL:124>  (95) 
hbond:VAL:124    0
hbond:VAL:124    0
Name: 94, dtype: object

>  <halogenbond:VAL:124>  (95) 
halogenbond:VAL:124    0
halogenbond:VAL:124    0
Name: 94, dtype: object

>  <hbond:SER:125>  (95) 
hbond:SER:125    0
hbond:SER:125    0
Name: 94, dtype: object

>  <halogenbond:SER:125>  (95) 
halogenbond:SER:125    0
halogenbond:SER:125    0
Name: 94, dtype: object

>  <hydroph_interaction:THR:126>  (95) 
hydroph_interaction:THR:126    0
hydroph_interaction:THR:126    0
Name: 94, dtype: object

>  <hbond:THR:126>  (95) 
hbond:THR:126    0
hbond:THR:126    0
Name: 94, dtype: object

>  <halogenbond:THR:126>  (95) 
halogenbond:THR:126    0
halogenbond:THR:126    0
Name: 94, dtype: object

>  <hbond:GLY:127>  (95) 
hbond:GLY:127    0
hbond:GLY:127    0
Name: 94, dtype: object

>  <halogenbond:GLY:127>  (95) 
halogenbond:GLY:127    0
halogenbond:GLY:127    0
Name: 94, dtype: object

>  <hydroph_interaction:GLY:127>  (95) 
hydroph_interaction:GLY:127    0
hydroph_interaction:GLY:127    0
Name: 94, dtype: object

>  <hbond:GLY:128>  (95) 
hbond:GLY:128    0
hbond:GLY:128    0
Name: 94, dtype: object

>  <halogenbond:GLY:128>  (95) 
halogenbond:GLY:128    0
halogenbond:GLY:128    0
Name: 94, dtype: object

>  <hydroph_interaction:GLY:128>  (95) 
hydroph_interaction:GLY:128    0
hydroph_interaction:GLY:128    0
Name: 94, dtype: object

>  <hbond:ASN:129>  (95) 
hbond:ASN:129    0
hbond:ASN:129    0
Name: 94, dtype: object

>  <hydroph_interaction:ASN:129>  (95) 
hydroph_interaction:ASN:129    0
hydroph_interaction:ASN:129    0
Name: 94, dtype: object

>  <halogenbond:ASN:129>  (95) 
halogenbond:ASN:129    0
halogenbond:ASN:129    0
Name: 94, dtype: object

>  <hbond:GLY:130>  (95) 
hbond:GLY:130    0
hbond:GLY:130    0
Name: 94, dtype: object

>  <hydroph_interaction:LEU:131>  (95) 
hydroph_interaction:LEU:131    0
hydroph_interaction:LEU:131    0
Name: 94, dtype: object

>  <hbond:LEU:131>  (95) 
hbond:LEU:131    0
hbond:LEU:131    0
Name: 94, dtype: object

>  <halogenbond:LEU:131>  (95) 
halogenbond:LEU:131    0
halogenbond:LEU:131    0
Name: 94, dtype: object

>  <hydroph_interaction:VAL:132>  (95) 
hydroph_interaction:VAL:132    0
hydroph_interaction:VAL:132    0
Name: 94, dtype: object

>  <hbond:VAL:132>  (95) 
hbond:VAL:132    0
hbond:VAL:132    0
Name: 94, dtype: object

>  <hbond:GLY:133>  (95) 
hbond:GLY:133    0
hbond:GLY:133    0
Name: 94, dtype: object

>  <halogenbond:GLY:133>  (95) 
halogenbond:GLY:133    0
halogenbond:GLY:133    0
Name: 94, dtype: object

>  <hydroph_interaction:PHE:134>  (95) 
hydroph_interaction:PHE:134    0
hydroph_interaction:PHE:134    0
Name: 94, dtype: object

>  <hbond:PHE:134>  (95) 
hbond:PHE:134    0
hbond:PHE:134    0
Name: 94, dtype: object

>  <pistack:PHE:134>  (95) 
pistack:PHE:134    0
pistack:PHE:134    0
Name: 94, dtype: object

>  <pication:PHE:134>  (95) 
pication:PHE:134    0
pication:PHE:134    0
Name: 94, dtype: object

>  <hydroph_interaction:ALA:135>  (95) 
hydroph_interaction:ALA:135    0
hydroph_interaction:ALA:135    0
Name: 94, dtype: object

>  <hbond:ALA:135>  (95) 
hbond:ALA:135    0
hbond:ALA:135    0
Name: 94, dtype: object

$$$$
Z1612469077
     RDKit          3D

 43 45  0  0  0  0  0  0  0  0999 V2000
   15.9270   12.4570   24.2170 C   0  0  0  0  0  0  0  0  0  0  0  0
   16.3950   13.6920   24.9780 C   0  0  0  0  0  0  0  0  0  0  0  0
   17.0080   14.7930   24.1070 C   0  0  0  0  0  0  0  0  0  0  0  0
   15.2650   14.2570   25.7730 C   0  0  0  0  0  0  0  0  0  0  0  0
   15.3960   14.4260   27.1050 N   0  0  0  0  0  0  0  0  0  0  0  0
   14.2210   14.9410   27.4910 N   0  0  0  0  0  0  0  0  0  0  0  0
   14.0120   15.2260   28.7930 C   0  0  0  0  0  0  0  0  0  0  0  0
   13.3360   15.1200   26.4740 C   0  0  0  0  0  0  0  0  0  0  0  0
   13.9630   14.6850   25.3430 C   0  0  0  0  0  0  0  0  0  0  0  0
   13.2760   14.7130   23.9850 C   0  0  0  0  0  0  0  0  0  0  0  0
   11.9980   14.1910   23.9570 N   0  0  0  0  0  0  0  0  0  0  0  0
   10.9190   14.6440   24.6710 C   0  0  0  0  0  0  0  0  0  0  0  0
   10.8940   15.1770   25.7660 O   0  0  0  0  0  0  0  0  0  0  0  0
    9.7620   14.4060   23.9260 N   0  0  0  0  0  0  0  0  0  0  0  0
   10.0080   13.6110   22.8960 C   0  0  2  0  0  0  0  0  0  0  0  0
    9.5950   12.2280   23.3130 C   0  0  0  0  0  0  0  0  0  0  0  0
   10.1530   10.9470   22.7810 C   0  0  0  0  0  0  0  0  0  0  0  0
    9.7030    9.7580   23.2100 C   0  0  0  0  0  0  0  0  0  0  0  0
    8.7030    9.7420   24.1620 C   0  0  0  0  0  0  0  0  0  0  0  0
    8.1530   10.8980   24.6960 C   0  0  0  0  0  0  0  0  0  0  0  0
    8.5970   12.1340   24.2730 C   0  0  0  0  0  0  0  0  0  0  0  0
   11.4750   13.9460   22.7380 C   0  0  0  0  0  0  0  0  0  0  0  0
   12.0680   14.0430   21.6880 O   0  0  0  0  0  0  0  0  0  0  0  0
   16.0640   11.5550   24.8220 H   0  0  0  0  0  0  0  0  0  0  0  0
   14.8640   12.5360   23.9730 H   0  0  0  0  0  0  0  0  0  0  0  0
   16.4690   12.3090   23.2860 H   0  0  0  0  0  0  0  0  0  0  0  0
   17.1900   13.3750   25.6610 H   0  0  0  0  0  0  0  0  0  0  0  0
   17.8270   14.4200   23.4960 H   0  0  0  0  0  0  0  0  0  0  0  0
   17.4020   15.6210   24.7030 H   0  0  0  0  0  0  0  0  0  0  0  0
   16.2480   15.2130   23.4420 H   0  0  0  0  0  0  0  0  0  0  0  0
   14.7390   15.9820   29.1000 H   0  0  0  0  0  0  0  0  0  0  0  0
   14.1380   14.3080   29.3710 H   0  0  0  0  0  0  0  0  0  0  0  0
   12.9950   15.6130   28.9200 H   0  0  0  0  0  0  0  0  0  0  0  0
   12.3540   15.5240   26.6330 H   0  0  0  0  0  0  0  0  0  0  0  0
   13.2440   15.7250   23.5830 H   0  0  0  0  0  0  0  0  0  0  0  0
   13.8830   14.1240   23.2870 H   0  0  0  0  0  0  0  0  0  0  0  0
    9.0070   15.0850   23.8860 H   0  0  0  0  0  0  0  0  0  0  0  0
    9.5250   13.8620   21.9610 H   0  0  0  0  0  0  0  0  0  0  0  0
   10.9290   11.0480   22.0350 H   0  0  0  0  0  0  0  0  0  0  0  0
   10.1180    8.8370   22.8110 H   0  0  0  0  0  0  0  0  0  0  0  0
    8.3390    8.8100   24.4980 H   0  0  0  0  0  0  0  0  0  0  0  0
    7.3700   10.8250   25.4460 H   0  0  0  0  0  0  0  0  0  0  0  0
    8.1490   13.0300   24.7020 H   0  0  0  0  0  0  0  0  0  0  0  0
  1  2  1  0
  2  3  1  0
  2  4  1  0
  4  5  2  0
  5  6  1  0
  6  7  1  0
  6  8  1  0
  8  9  2  0
  9 10  1  0
 10 11  1  0
 11 12  1  0
 12 13  2  0
 12 14  1  0
 14 15  1  0
 15 16  1  0
 16 17  2  0
 17 18  1  0
 18 19  2  0
 19 20  1  0
 20 21  2  0
 15 22  1  0
 22 23  2  0
  9  4  1  0
 22 11  1  0
 21 16  1  0
  1 24  1  0
  1 25  1  0
  1 26  1  0
  2 27  1  0
  3 28  1  0
  3 29  1  0
  3 30  1  0
  7 31  1  0
  7 32  1  0
  7 33  1  0
  8 34  1  0
 10 35  1  0
 10 36  1  0
 14 37  1  0
 15 38  1  6
 17 39  1  0
 18 40  1  0
 19 41  1  0
 20 42  1  0
 21 43  1  0
A    1
 C1 
A    2
 C2 
A    3
 C3 
A    4
 C4 
A    5
 N1 
A    6
 N2 
A    7
 C5 
A    8
 C6 
A    9
 C7 
A   10
 C8 
A   11
 N3 
A   12
 C9 
A   13
 O1 
A   14
 N4 
A   15
 C10
A   16
 C11
A   17
 C12
A   18
 C13
A   19
 C14
A   20
 C15
A   21
 C16
A   22
 C17
A   23
 O2 
A   24
 H1 
A   25
 H2 
A   26
 H3 
A   27
 H4 
A   28
 H5 
A   29
 H6 
A   30
 H7 
A   31
 H8 
A   32
 H9 
A   33
 H10
A   34
 H11
A   35
 H12
A   36
 H13
A   37
 H14
A   38
 H15
A   39
 H16
A   40
 H17
A   41
 H18
A   42
 H19
A   43
 H20
M  END
>  <ref_pdb>  (96) 
x0310_0A

>  <ref_mols>  (96) 
x0554_0A,x0310_0A

>  <original SMILES>  (96) 
CC(C)c1nn(C)cc1CN1C(=O)N[C@H](c2ccccc2)C1=O

>  <rationale>  (96) 
info hbond:E88+S87; hydroph_interaction:P107+Y89+H21+L22; 

>  <intxn_cluster>  (96) 
206

>  <intxn_cluster_rank>  (96) 
34

>  <N_interactions>  (96) 
7

>  <∆∆G>  (96) 
-12.07796

>  <$/mg>  (96) 
163.0

>  <comRMSD>  (96) 
0.84778

>  <N_rotatable_bonds>  (96) 
7

>  <N_analogues_07>  (96) 
2

>  <deep_P1_sidechain>  (96) 
False

>  <farthest_distance_to_substrate>  (96) 
3.479234

>  <hbond:SER:7>  (96) 
hbond:SER:7    0
hbond:SER:7    0
Name: 95, dtype: object

>  <halogenbond:SER:7>  (96) 
halogenbond:SER:7    0
halogenbond:SER:7    0
Name: 95, dtype: object

>  <hbond:GLY:8>  (96) 
hbond:GLY:8    0
hbond:GLY:8    0
Name: 95, dtype: object

>  <hydroph_interaction:ASN:19>  (96) 
hydroph_interaction:ASN:19    0
hydroph_interaction:ASN:19    0
Name: 95, dtype: object

>  <hbond:ASN:19>  (96) 
hbond:ASN:19    0
hbond:ASN:19    0
Name: 95, dtype: object

>  <halogenbond:ASN:19>  (96) 
halogenbond:ASN:19    0
halogenbond:ASN:19    0
Name: 95, dtype: object

>  <hbond:ARG:20>  (96) 
hbond:ARG:20    0
hbond:ARG:20    0
Name: 95, dtype: object

>  <hydroph_interaction:ARG:20>  (96) 
hydroph_interaction:ARG:20    0
hydroph_interaction:ARG:20    0
Name: 95, dtype: object

>  <saltbridge:ARG:20>  (96) 
saltbridge:ARG:20    0
saltbridge:ARG:20    0
Name: 95, dtype: object

>  <halogenbond:ARG:20>  (96) 
halogenbond:ARG:20    0
halogenbond:ARG:20    0
Name: 95, dtype: object

>  <pication:ARG:20>  (96) 
pication:ARG:20    0
pication:ARG:20    0
Name: 95, dtype: object

>  <hbond:HIS:21>  (96) 
hbond:HIS:21    0
hbond:HIS:21    0
Name: 95, dtype: object

>  <hydroph_interaction:HIS:21>  (96) 
hydroph_interaction:HIS:21    1
hydroph_interaction:HIS:21    1
Name: 95, dtype: object

>  <saltbridge:HIS:21>  (96) 
saltbridge:HIS:21    0
saltbridge:HIS:21    0
Name: 95, dtype: object

>  <pistack:HIS:21>  (96) 
pistack:HIS:21    0
pistack:HIS:21    0
Name: 95, dtype: object

>  <pication:HIS:21>  (96) 
pication:HIS:21    0
pication:HIS:21    0
Name: 95, dtype: object

>  <halogenbond:HIS:21>  (96) 
halogenbond:HIS:21    0
halogenbond:HIS:21    0
Name: 95, dtype: object

>  <hydroph_interaction:LEU:22>  (96) 
hydroph_interaction:LEU:22    1
hydroph_interaction:LEU:22    1
Name: 95, dtype: object

>  <hbond:LEU:22>  (96) 
hbond:LEU:22    0
hbond:LEU:22    0
Name: 95, dtype: object

>  <hydroph_interaction:TRP:28>  (96) 
hydroph_interaction:TRP:28    0
hydroph_interaction:TRP:28    0
Name: 95, dtype: object

>  <hbond:SER:36>  (96) 
hbond:SER:36    0
hbond:SER:36    0
Name: 95, dtype: object

>  <halogenbond:SER:36>  (96) 
halogenbond:SER:36    0
halogenbond:SER:36    0
Name: 95, dtype: object

>  <hbond:ARG:38>  (96) 
hbond:ARG:38    0
hbond:ARG:38    0
Name: 95, dtype: object

>  <halogenbond:ARG:38>  (96) 
halogenbond:ARG:38    0
halogenbond:ARG:38    0
Name: 95, dtype: object

>  <hbond:ASP:39>  (96) 
hbond:ASP:39    0
hbond:ASP:39    0
Name: 95, dtype: object

>  <saltbridge:ASP:39>  (96) 
saltbridge:ASP:39    0
saltbridge:ASP:39    0
Name: 95, dtype: object

>  <hydroph_interaction:ASP:39>  (96) 
hydroph_interaction:ASP:39    0
hydroph_interaction:ASP:39    0
Name: 95, dtype: object

>  <halogenbond:ASP:39>  (96) 
halogenbond:ASP:39    0
halogenbond:ASP:39    0
Name: 95, dtype: object

>  <hydroph_interaction:LEU:40>  (96) 
hydroph_interaction:LEU:40    0
hydroph_interaction:LEU:40    0
Name: 95, dtype: object

>  <hydroph_interaction:TYR:63>  (96) 
hydroph_interaction:TYR:63    0
hydroph_interaction:TYR:63    0
Name: 95, dtype: object

>  <pistack:TYR:63>  (96) 
pistack:TYR:63    0
pistack:TYR:63    0
Name: 95, dtype: object

>  <hbond:TYR:63>  (96) 
hbond:TYR:63    0
hbond:TYR:63    0
Name: 95, dtype: object

>  <hbond:TYR:64>  (96) 
hbond:TYR:64    0
hbond:TYR:64    0
Name: 95, dtype: object

>  <halogenbond:TYR:64>  (96) 
halogenbond:TYR:64    0
halogenbond:TYR:64    0
Name: 95, dtype: object

>  <hydroph_interaction:TYR:64>  (96) 
hydroph_interaction:TYR:64    0
hydroph_interaction:TYR:64    0
Name: 95, dtype: object

>  <hbond:CYS:65>  (96) 
hbond:CYS:65    0
hbond:CYS:65    0
Name: 95, dtype: object

>  <halogenbond:CYS:65>  (96) 
halogenbond:CYS:65    0
halogenbond:CYS:65    0
Name: 95, dtype: object

>  <hbond:SER:66>  (96) 
hbond:SER:66    0
hbond:SER:66    0
Name: 95, dtype: object

>  <hbond:SER:67>  (96) 
hbond:SER:67    0
hbond:SER:67    0
Name: 95, dtype: object

>  <halogenbond:SER:67>  (96) 
halogenbond:SER:67    0
halogenbond:SER:67    0
Name: 95, dtype: object

>  <hydroph_interaction:ARG:68>  (96) 
hydroph_interaction:ARG:68    0
hydroph_interaction:ARG:68    0
Name: 95, dtype: object

>  <hbond:ARG:68>  (96) 
hbond:ARG:68    0
hbond:ARG:68    0
Name: 95, dtype: object

>  <saltbridge:ARG:68>  (96) 
saltbridge:ARG:68    0
saltbridge:ARG:68    0
Name: 95, dtype: object

>  <pication:ARG:68>  (96) 
pication:ARG:68    0
pication:ARG:68    0
Name: 95, dtype: object

>  <hydroph_interaction:TYR:72>  (96) 
hydroph_interaction:TYR:72    0
hydroph_interaction:TYR:72    0
Name: 95, dtype: object

>  <hydroph_interaction:VAL:74>  (96) 
hydroph_interaction:VAL:74    0
hydroph_interaction:VAL:74    0
Name: 95, dtype: object

>  <hydroph_interaction:PHE:76>  (96) 
hydroph_interaction:PHE:76    0
hydroph_interaction:PHE:76    0
Name: 95, dtype: object

>  <hbond:SER:77>  (96) 
hbond:SER:77    0
hbond:SER:77    0
Name: 95, dtype: object

>  <hbond:SER:80>  (96) 
hbond:SER:80    0
hbond:SER:80    0
Name: 95, dtype: object

>  <hbond:LEU:81>  (96) 
hbond:LEU:81    0
hbond:LEU:81    0
Name: 95, dtype: object

>  <halogenbond:LEU:81>  (96) 
halogenbond:LEU:81    0
halogenbond:LEU:81    0
Name: 95, dtype: object

>  <hydroph_interaction:LEU:81>  (96) 
hydroph_interaction:LEU:81    0
hydroph_interaction:LEU:81    0
Name: 95, dtype: object

>  <hydroph_interaction:ILE:82>  (96) 
hydroph_interaction:ILE:82    0
hydroph_interaction:ILE:82    0
Name: 95, dtype: object

>  <hbond:ILE:82>  (96) 
hbond:ILE:82    0
hbond:ILE:82    0
Name: 95, dtype: object

>  <hydroph_interaction:PHE:83>  (96) 
hydroph_interaction:PHE:83    0
hydroph_interaction:PHE:83    0
Name: 95, dtype: object

>  <hbond:PHE:83>  (96) 
hbond:PHE:83    0
hbond:PHE:83    0
Name: 95, dtype: object

>  <halogenbond:PHE:83>  (96) 
halogenbond:PHE:83    0
halogenbond:PHE:83    0
Name: 95, dtype: object

>  <pistack:PHE:83>  (96) 
pistack:PHE:83    0
pistack:PHE:83    0
Name: 95, dtype: object

>  <hydroph_interaction:VAL:84>  (96) 
hydroph_interaction:VAL:84    0
hydroph_interaction:VAL:84    0
Name: 95, dtype: object

>  <hbond:VAL:84>  (96) 
hbond:VAL:84    0
hbond:VAL:84    0
Name: 95, dtype: object

>  <halogenbond:VAL:84>  (96) 
halogenbond:VAL:84    0
halogenbond:VAL:84    0
Name: 95, dtype: object

>  <hydroph_interaction:GLU:85>  (96) 
hydroph_interaction:GLU:85    0
hydroph_interaction:GLU:85    0
Name: 95, dtype: object

>  <hbond:GLU:85>  (96) 
hbond:GLU:85    0
hbond:GLU:85    0
Name: 95, dtype: object

>  <saltbridge:GLU:85>  (96) 
saltbridge:GLU:85    0
saltbridge:GLU:85    0
Name: 95, dtype: object

>  <halogenbond:GLU:85>  (96) 
halogenbond:GLU:85    0
halogenbond:GLU:85    0
Name: 95, dtype: object

>  <hbond:ALA:86>  (96) 
hbond:ALA:86    0
hbond:ALA:86    0
Name: 95, dtype: object

>  <halogenbond:ALA:86>  (96) 
halogenbond:ALA:86    0
halogenbond:ALA:86    0
Name: 95, dtype: object

>  <hydroph_interaction:ALA:86>  (96) 
hydroph_interaction:ALA:86    0
hydroph_interaction:ALA:86    0
Name: 95, dtype: object

>  <hbond:SER:87>  (96) 
hbond:SER:87    1
hbond:SER:87    1
Name: 95, dtype: object

>  <halogenbond:SER:87>  (96) 
halogenbond:SER:87    0
halogenbond:SER:87    0
Name: 95, dtype: object

>  <hbond:GLU:88>  (96) 
hbond:GLU:88    1
hbond:GLU:88    1
Name: 95, dtype: object

>  <hydroph_interaction:GLU:88>  (96) 
hydroph_interaction:GLU:88    0
hydroph_interaction:GLU:88    0
Name: 95, dtype: object

>  <halogenbond:GLU:88>  (96) 
halogenbond:GLU:88    0
halogenbond:GLU:88    0
Name: 95, dtype: object

>  <saltbridge:GLU:88>  (96) 
saltbridge:GLU:88    0
saltbridge:GLU:88    0
Name: 95, dtype: object

>  <hydroph_interaction:TYR:89>  (96) 
hydroph_interaction:TYR:89    1
hydroph_interaction:TYR:89    1
Name: 95, dtype: object

>  <pistack:TYR:89>  (96) 
pistack:TYR:89    0
pistack:TYR:89    0
Name: 95, dtype: object

>  <hbond:TYR:89>  (96) 
hbond:TYR:89    0
hbond:TYR:89    0
Name: 95, dtype: object

>  <halogenbond:TYR:89>  (96) 
halogenbond:TYR:89    0
halogenbond:TYR:89    0
Name: 95, dtype: object

>  <hbond:TYR:90>  (96) 
hbond:TYR:90    0
hbond:TYR:90    0
Name: 95, dtype: object

>  <hydroph_interaction:TYR:90>  (96) 
hydroph_interaction:TYR:90    0
hydroph_interaction:TYR:90    0
Name: 95, dtype: object

>  <pistack:TYR:90>  (96) 
pistack:TYR:90    0
pistack:TYR:90    0
Name: 95, dtype: object

>  <halogenbond:TYR:90>  (96) 
halogenbond:TYR:90    0
halogenbond:TYR:90    0
Name: 95, dtype: object

>  <pication:TYR:90>  (96) 
pication:TYR:90    0
pication:TYR:90    0
Name: 95, dtype: object

>  <hydroph_interaction:PRO:91>  (96) 
hydroph_interaction:PRO:91    0
hydroph_interaction:PRO:91    0
Name: 95, dtype: object

>  <halogenbond:PRO:91>  (96) 
halogenbond:PRO:91    0
halogenbond:PRO:91    0
Name: 95, dtype: object

>  <hbond:PRO:91>  (96) 
hbond:PRO:91    0
hbond:PRO:91    0
Name: 95, dtype: object

>  <hydroph_interaction:ALA:92>  (96) 
hydroph_interaction:ALA:92    0
hydroph_interaction:ALA:92    0
Name: 95, dtype: object

>  <hbond:ARG:93>  (96) 
hbond:ARG:93    0
hbond:ARG:93    0
Name: 95, dtype: object

>  <pication:ARG:93>  (96) 
pication:ARG:93    0
pication:ARG:93    0
Name: 95, dtype: object

>  <saltbridge:ARG:93>  (96) 
saltbridge:ARG:93    0
saltbridge:ARG:93    0
Name: 95, dtype: object

>  <hydroph_interaction:ARG:93>  (96) 
hydroph_interaction:ARG:93    0
hydroph_interaction:ARG:93    0
Name: 95, dtype: object

>  <halogenbond:ARG:93>  (96) 
halogenbond:ARG:93    0
halogenbond:ARG:93    0
Name: 95, dtype: object

>  <hydroph_interaction:TYR:94>  (96) 
hydroph_interaction:TYR:94    0
hydroph_interaction:TYR:94    0
Name: 95, dtype: object

>  <hbond:TYR:94>  (96) 
hbond:TYR:94    0
hbond:TYR:94    0
Name: 95, dtype: object

>  <halogenbond:GLN:95>  (96) 
halogenbond:GLN:95    0
halogenbond:GLN:95    0
Name: 95, dtype: object

>  <hbond:GLN:95>  (96) 
hbond:GLN:95    0
hbond:GLN:95    0
Name: 95, dtype: object

>  <hydroph_interaction:GLN:95>  (96) 
hydroph_interaction:GLN:95    0
hydroph_interaction:GLN:95    0
Name: 95, dtype: object

>  <hbond:SER:96>  (96) 
hbond:SER:96    0
hbond:SER:96    0
Name: 95, dtype: object

>  <hydroph_interaction:LEU:98>  (96) 
hydroph_interaction:LEU:98    0
hydroph_interaction:LEU:98    0
Name: 95, dtype: object

>  <hbond:LEU:98>  (96) 
hbond:LEU:98    0
hbond:LEU:98    0
Name: 95, dtype: object

>  <hbond:MET:99>  (96) 
hbond:MET:99    0
hbond:MET:99    0
Name: 95, dtype: object

>  <hydroph_interaction:MET:99>  (96) 
hydroph_interaction:MET:99    0
hydroph_interaction:MET:99    0
Name: 95, dtype: object

>  <halogenbond:MET:99>  (96) 
halogenbond:MET:99    0
halogenbond:MET:99    0
Name: 95, dtype: object

>  <hydroph_interaction:LEU:100>  (96) 
hydroph_interaction:LEU:100    0
hydroph_interaction:LEU:100    0
Name: 95, dtype: object

>  <hbond:LEU:100>  (96) 
hbond:LEU:100    0
hbond:LEU:100    0
Name: 95, dtype: object

>  <hbond:ALA:101>  (96) 
hbond:ALA:101    0
hbond:ALA:101    0
Name: 95, dtype: object

>  <hydroph_interaction:ALA:101>  (96) 
hydroph_interaction:ALA:101    0
hydroph_interaction:ALA:101    0
Name: 95, dtype: object

>  <hydroph_interaction:VAL:102>  (96) 
hydroph_interaction:VAL:102    0
hydroph_interaction:VAL:102    0
Name: 95, dtype: object

>  <hbond:VAL:102>  (96) 
hbond:VAL:102    0
hbond:VAL:102    0
Name: 95, dtype: object

>  <hbond:GLY:103>  (96) 
hbond:GLY:103    0
hbond:GLY:103    0
Name: 95, dtype: object

>  <halogenbond:GLY:103>  (96) 
halogenbond:GLY:103    0
halogenbond:GLY:103    0
Name: 95, dtype: object

>  <hydroph_interaction:HIS:104>  (96) 
hydroph_interaction:HIS:104    0
hydroph_interaction:HIS:104    0
Name: 95, dtype: object

>  <hbond:HIS:104>  (96) 
hbond:HIS:104    0
hbond:HIS:104    0
Name: 95, dtype: object

>  <saltbridge:HIS:104>  (96) 
saltbridge:HIS:104    0
saltbridge:HIS:104    0
Name: 95, dtype: object

>  <pication:HIS:104>  (96) 
pication:HIS:104    0
pication:HIS:104    0
Name: 95, dtype: object

>  <pistack:HIS:104>  (96) 
pistack:HIS:104    0
pistack:HIS:104    0
Name: 95, dtype: object

>  <halogenbond:HIS:104>  (96) 
halogenbond:HIS:104    0
halogenbond:HIS:104    0
Name: 95, dtype: object

>  <hbond:SER:105>  (96) 
hbond:SER:105    0
hbond:SER:105    0
Name: 95, dtype: object

>  <halogenbond:SER:105>  (96) 
halogenbond:SER:105    0
halogenbond:SER:105    0
Name: 95, dtype: object

>  <hbond:GLU:106>  (96) 
hbond:GLU:106    0
hbond:GLU:106    0
Name: 95, dtype: object

>  <hydroph_interaction:GLU:106>  (96) 
hydroph_interaction:GLU:106    0
hydroph_interaction:GLU:106    0
Name: 95, dtype: object

>  <saltbridge:GLU:106>  (96) 
saltbridge:GLU:106    0
saltbridge:GLU:106    0
Name: 95, dtype: object

>  <halogenbond:GLU:106>  (96) 
halogenbond:GLU:106    0
halogenbond:GLU:106    0
Name: 95, dtype: object

>  <hydroph_interaction:PRO:107>  (96) 
hydroph_interaction:PRO:107    2
hydroph_interaction:PRO:107    2
Name: 95, dtype: object

>  <hbond:PRO:107>  (96) 
hbond:PRO:107    0
hbond:PRO:107    0
Name: 95, dtype: object

>  <halogenbond:PRO:107>  (96) 
halogenbond:PRO:107    0
halogenbond:PRO:107    0
Name: 95, dtype: object

>  <hbond:GLY:108>  (96) 
hbond:GLY:108    0
hbond:GLY:108    0
Name: 95, dtype: object

>  <halogenbond:GLY:108>  (96) 
halogenbond:GLY:108    0
halogenbond:GLY:108    0
Name: 95, dtype: object

>  <hbond:ASP:109>  (96) 
hbond:ASP:109    0
hbond:ASP:109    0
Name: 95, dtype: object

>  <hydroph_interaction:ASP:109>  (96) 
hydroph_interaction:ASP:109    0
hydroph_interaction:ASP:109    0
Name: 95, dtype: object

>  <saltbridge:ASP:109>  (96) 
saltbridge:ASP:109    0
saltbridge:ASP:109    0
Name: 95, dtype: object

>  <hbond:CYS:110>  (96) 
hbond:CYS:110    0
hbond:CYS:110    0
Name: 95, dtype: object

>  <halogenbond:CYS:110>  (96) 
halogenbond:CYS:110    0
halogenbond:CYS:110    0
Name: 95, dtype: object

>  <hbond:GLY:111>  (96) 
hbond:GLY:111    0
hbond:GLY:111    0
Name: 95, dtype: object

>  <hbond:GLY:112>  (96) 
hbond:GLY:112    0
hbond:GLY:112    0
Name: 95, dtype: object

>  <hbond:ILE:113>  (96) 
hbond:ILE:113    0
hbond:ILE:113    0
Name: 95, dtype: object

>  <hydroph_interaction:LEU:114>  (96) 
hydroph_interaction:LEU:114    0
hydroph_interaction:LEU:114    0
Name: 95, dtype: object

>  <hbond:LEU:114>  (96) 
hbond:LEU:114    0
hbond:LEU:114    0
Name: 95, dtype: object

>  <hydroph_interaction:ILE:123>  (96) 
hydroph_interaction:ILE:123    0
hydroph_interaction:ILE:123    0
Name: 95, dtype: object

>  <hbond:ILE:123>  (96) 
hbond:ILE:123    0
hbond:ILE:123    0
Name: 95, dtype: object

>  <hydroph_interaction:VAL:124>  (96) 
hydroph_interaction:VAL:124    0
hydroph_interaction:VAL:124    0
Name: 95, dtype: object

>  <hbond:VAL:124>  (96) 
hbond:VAL:124    0
hbond:VAL:124    0
Name: 95, dtype: object

>  <halogenbond:VAL:124>  (96) 
halogenbond:VAL:124    0
halogenbond:VAL:124    0
Name: 95, dtype: object

>  <hbond:SER:125>  (96) 
hbond:SER:125    0
hbond:SER:125    0
Name: 95, dtype: object

>  <halogenbond:SER:125>  (96) 
halogenbond:SER:125    0
halogenbond:SER:125    0
Name: 95, dtype: object

>  <hydroph_interaction:THR:126>  (96) 
hydroph_interaction:THR:126    0
hydroph_interaction:THR:126    0
Name: 95, dtype: object

>  <hbond:THR:126>  (96) 
hbond:THR:126    0
hbond:THR:126    0
Name: 95, dtype: object

>  <halogenbond:THR:126>  (96) 
halogenbond:THR:126    0
halogenbond:THR:126    0
Name: 95, dtype: object

>  <hbond:GLY:127>  (96) 
hbond:GLY:127    0
hbond:GLY:127    0
Name: 95, dtype: object

>  <halogenbond:GLY:127>  (96) 
halogenbond:GLY:127    0
halogenbond:GLY:127    0
Name: 95, dtype: object

>  <hydroph_interaction:GLY:127>  (96) 
hydroph_interaction:GLY:127    0
hydroph_interaction:GLY:127    0
Name: 95, dtype: object

>  <hbond:GLY:128>  (96) 
hbond:GLY:128    0
hbond:GLY:128    0
Name: 95, dtype: object

>  <halogenbond:GLY:128>  (96) 
halogenbond:GLY:128    0
halogenbond:GLY:128    0
Name: 95, dtype: object

>  <hydroph_interaction:GLY:128>  (96) 
hydroph_interaction:GLY:128    0
hydroph_interaction:GLY:128    0
Name: 95, dtype: object

>  <hbond:ASN:129>  (96) 
hbond:ASN:129    0
hbond:ASN:129    0
Name: 95, dtype: object

>  <hydroph_interaction:ASN:129>  (96) 
hydroph_interaction:ASN:129    0
hydroph_interaction:ASN:129    0
Name: 95, dtype: object

>  <halogenbond:ASN:129>  (96) 
halogenbond:ASN:129    0
halogenbond:ASN:129    0
Name: 95, dtype: object

>  <hbond:GLY:130>  (96) 
hbond:GLY:130    0
hbond:GLY:130    0
Name: 95, dtype: object

>  <hydroph_interaction:LEU:131>  (96) 
hydroph_interaction:LEU:131    0
hydroph_interaction:LEU:131    0
Name: 95, dtype: object

>  <hbond:LEU:131>  (96) 
hbond:LEU:131    0
hbond:LEU:131    0
Name: 95, dtype: object

>  <halogenbond:LEU:131>  (96) 
halogenbond:LEU:131    0
halogenbond:LEU:131    0
Name: 95, dtype: object

>  <hydroph_interaction:VAL:132>  (96) 
hydroph_interaction:VAL:132    0
hydroph_interaction:VAL:132    0
Name: 95, dtype: object

>  <hbond:VAL:132>  (96) 
hbond:VAL:132    0
hbond:VAL:132    0
Name: 95, dtype: object

>  <hbond:GLY:133>  (96) 
hbond:GLY:133    0
hbond:GLY:133    0
Name: 95, dtype: object

>  <halogenbond:GLY:133>  (96) 
halogenbond:GLY:133    0
halogenbond:GLY:133    0
Name: 95, dtype: object

>  <hydroph_interaction:PHE:134>  (96) 
hydroph_interaction:PHE:134    0
hydroph_interaction:PHE:134    0
Name: 95, dtype: object

>  <hbond:PHE:134>  (96) 
hbond:PHE:134    0
hbond:PHE:134    0
Name: 95, dtype: object

>  <pistack:PHE:134>  (96) 
pistack:PHE:134    0
pistack:PHE:134    0
Name: 95, dtype: object

>  <pication:PHE:134>  (96) 
pication:PHE:134    0
pication:PHE:134    0
Name: 95, dtype: object

>  <hydroph_interaction:ALA:135>  (96) 
hydroph_interaction:ALA:135    0
hydroph_interaction:ALA:135    0
Name: 95, dtype: object

>  <hbond:ALA:135>  (96) 
hbond:ALA:135    0
hbond:ALA:135    0
Name: 95, dtype: object

$$$$
Z4343880454
     RDKit          3D

 30 31  0  0  0  0  0  0  0  0999 V2000
   11.2310   14.2920   23.2330 C   0  0  0  0  0  0  0  0  0  0  0  0
   10.2820   13.5290   22.3420 C   0  0  0  0  0  0  0  0  0  0  0  0
    9.3830   14.2950   21.6510 N   0  0  0  0  0  0  0  0  0  0  0  0
    9.9420   15.3820   20.5000 S   0  0  0  0  0  6  0  0  0  0  0  0
   11.2410   15.8260   20.9540 O   0  0  0  0  0  0  0  0  0  0  0  0
    8.8850   16.3500   20.3100 O   0  0  0  0  0  0  0  0  0  0  0  0
   10.1000   14.5950   18.9220 C   0  0  0  0  0  0  0  0  0  0  0  0
   11.7960   14.5850   18.5130 Cl  0  0  0  0  0  0  0  0  0  0  0  0
    9.5790   12.4910   23.1340 C   0  0  0  0  0  0  0  0  0  0  0  0
    9.9410   11.1700   22.9920 C   0  0  0  0  0  0  0  0  0  0  0  0
    9.3990   10.1040   23.6440 C   0  0  0  0  0  0  0  0  0  0  0  0
    8.2580   10.1930   24.6840 C   0  0  0  0  0  0  0  0  0  0  0  0
    7.8920   11.5250   24.8270 C   0  0  0  0  0  0  0  0  0  0  0  0
    8.5490   12.6760   24.0490 C   0  0  0  0  0  0  0  0  0  0  0  0
    7.9040   13.8320   24.4590 N   0  0  0  0  0  0  0  0  0  0  0  0
    6.9330   13.6120   25.3950 C   0  0  0  0  0  0  0  0  0  0  0  0
    6.9040   12.1100   25.6570 C   0  0  0  0  0  0  0  0  0  0  0  0
   11.6290   15.1730   22.7240 H   0  0  0  0  0  0  0  0  0  0  0  0
   12.0800   13.6480   23.4920 H   0  0  0  0  0  0  0  0  0  0  0  0
   10.7230   14.6250   24.1430 H   0  0  0  0  0  0  0  0  0  0  0  0
   10.9190   13.0100   21.6570 H   0  0  0  0  0  0  0  0  0  0  0  0
    8.7210   14.7880   22.2550 H   0  0  0  0  0  0  0  0  0  0  0  0
    9.7330   13.5840   18.9820 H   0  0  0  0  0  0  0  0  0  0  0  0
    9.5050   15.1380   18.1840 H   0  0  0  0  0  0  0  0  0  0  0  0
   10.7440   10.9660   22.2800 H   0  0  0  0  0  0  0  0  0  0  0  0
    9.7940    9.1180   23.4220 H   0  0  0  0  0  0  0  0  0  0  0  0
    7.8300    9.3660   25.1960 H   0  0  0  0  0  0  0  0  0  0  0  0
    8.2000   14.7230   24.0320 H   0  0  0  0  0  0  0  0  0  0  0  0
    6.3480   14.4370   25.8060 H   0  0  0  0  0  0  0  0  0  0  0  0
    6.2470   11.5970   26.3450 H   0  0  0  0  0  0  0  0  0  0  0  0
  1  2  1  0
  2  3  1  0
  3  4  1  0
  4  5  2  0
  4  6  2  0
  4  7  1  0
  7  8  1  0
  2  9  1  0
  9 10  2  0
 10 11  1  0
 11 12  2  0
 12 13  1  0
 13 14  2  0
 14 15  1  0
 15 16  1  0
 16 17  2  0
 14  9  1  0
 17 13  1  0
  1 18  1  0
  1 19  1  0
  1 20  1  0
  2 21  1  0
  3 22  1  0
  7 23  1  0
  7 24  1  0
 10 25  1  0
 11 26  1  0
 12 27  1  0
 15 28  1  0
 16 29  1  0
 17 30  1  0
A    1
 C1 
A    2
 C2 
A    3
 N1 
A    4
 S1 
A    5
 O1 
A    6
 O2 
A    7
 C3 
A    8
CL1 
A    9
 C4 
A   10
 C5 
A   11
 C6 
A   12
 C7 
A   13
 C8 
A   14
 C9 
A   15
 N2 
A   16
 C10
A   17
 C11
A   18
 H1 
A   19
 H2 
A   20
 H3 
A   21
 H4 
A   22
 H5 
A   23
 H6 
A   24
 H7 
A   25
 H8 
A   26
 H9 
A   27
 H10
A   28
 H11
A   29
 H12
A   30
 H13
M  END
>  <ref_pdb>  (97) 
x0310_0A

>  <ref_mols>  (97) 
x0416_0A,x0566_0A

>  <original SMILES>  (97) 
CC(NS(=O)(=O)CCl)c1cccc2cc[nH]c12

>  <rationale>  (97) 
info halogenbond:D39; hbond:S87+T126; 

>  <intxn_cluster>  (97) 
205

>  <intxn_cluster_rank>  (97) 
35

>  <N_interactions>  (97) 
3

>  <∆∆G>  (97) 
-6.952547

>  <$/mg>  (97) 
nan

>  <comRMSD>  (97) 
0.958458

>  <N_rotatable_bonds>  (97) 
5

>  <N_analogues_07>  (97) 
2

>  <deep_P1_sidechain>  (97) 
False

>  <farthest_distance_to_substrate>  (97) 
2.554559

>  <hbond:SER:7>  (97) 
hbond:SER:7    0
hbond:SER:7    0
Name: 96, dtype: object

>  <halogenbond:SER:7>  (97) 
halogenbond:SER:7    0
halogenbond:SER:7    0
Name: 96, dtype: object

>  <hbond:GLY:8>  (97) 
hbond:GLY:8    0
hbond:GLY:8    0
Name: 96, dtype: object

>  <hydroph_interaction:ASN:19>  (97) 
hydroph_interaction:ASN:19    0
hydroph_interaction:ASN:19    0
Name: 96, dtype: object

>  <hbond:ASN:19>  (97) 
hbond:ASN:19    0
hbond:ASN:19    0
Name: 96, dtype: object

>  <halogenbond:ASN:19>  (97) 
halogenbond:ASN:19    0
halogenbond:ASN:19    0
Name: 96, dtype: object

>  <hbond:ARG:20>  (97) 
hbond:ARG:20    0
hbond:ARG:20    0
Name: 96, dtype: object

>  <hydroph_interaction:ARG:20>  (97) 
hydroph_interaction:ARG:20    0
hydroph_interaction:ARG:20    0
Name: 96, dtype: object

>  <saltbridge:ARG:20>  (97) 
saltbridge:ARG:20    0
saltbridge:ARG:20    0
Name: 96, dtype: object

>  <halogenbond:ARG:20>  (97) 
halogenbond:ARG:20    0
halogenbond:ARG:20    0
Name: 96, dtype: object

>  <pication:ARG:20>  (97) 
pication:ARG:20    0
pication:ARG:20    0
Name: 96, dtype: object

>  <hbond:HIS:21>  (97) 
hbond:HIS:21    0
hbond:HIS:21    0
Name: 96, dtype: object

>  <hydroph_interaction:HIS:21>  (97) 
hydroph_interaction:HIS:21    0
hydroph_interaction:HIS:21    0
Name: 96, dtype: object

>  <saltbridge:HIS:21>  (97) 
saltbridge:HIS:21    0
saltbridge:HIS:21    0
Name: 96, dtype: object

>  <pistack:HIS:21>  (97) 
pistack:HIS:21    0
pistack:HIS:21    0
Name: 96, dtype: object

>  <pication:HIS:21>  (97) 
pication:HIS:21    0
pication:HIS:21    0
Name: 96, dtype: object

>  <halogenbond:HIS:21>  (97) 
halogenbond:HIS:21    0
halogenbond:HIS:21    0
Name: 96, dtype: object

>  <hydroph_interaction:LEU:22>  (97) 
hydroph_interaction:LEU:22    0
hydroph_interaction:LEU:22    0
Name: 96, dtype: object

>  <hbond:LEU:22>  (97) 
hbond:LEU:22    0
hbond:LEU:22    0
Name: 96, dtype: object

>  <hydroph_interaction:TRP:28>  (97) 
hydroph_interaction:TRP:28    0
hydroph_interaction:TRP:28    0
Name: 96, dtype: object

>  <hbond:SER:36>  (97) 
hbond:SER:36    0
hbond:SER:36    0
Name: 96, dtype: object

>  <halogenbond:SER:36>  (97) 
halogenbond:SER:36    0
halogenbond:SER:36    0
Name: 96, dtype: object

>  <hbond:ARG:38>  (97) 
hbond:ARG:38    0
hbond:ARG:38    0
Name: 96, dtype: object

>  <halogenbond:ARG:38>  (97) 
halogenbond:ARG:38    0
halogenbond:ARG:38    0
Name: 96, dtype: object

>  <hbond:ASP:39>  (97) 
hbond:ASP:39    0
hbond:ASP:39    0
Name: 96, dtype: object

>  <saltbridge:ASP:39>  (97) 
saltbridge:ASP:39    0
saltbridge:ASP:39    0
Name: 96, dtype: object

>  <hydroph_interaction:ASP:39>  (97) 
hydroph_interaction:ASP:39    0
hydroph_interaction:ASP:39    0
Name: 96, dtype: object

>  <halogenbond:ASP:39>  (97) 
halogenbond:ASP:39    1
halogenbond:ASP:39    1
Name: 96, dtype: object

>  <hydroph_interaction:LEU:40>  (97) 
hydroph_interaction:LEU:40    0
hydroph_interaction:LEU:40    0
Name: 96, dtype: object

>  <hydroph_interaction:TYR:63>  (97) 
hydroph_interaction:TYR:63    0
hydroph_interaction:TYR:63    0
Name: 96, dtype: object

>  <pistack:TYR:63>  (97) 
pistack:TYR:63    0
pistack:TYR:63    0
Name: 96, dtype: object

>  <hbond:TYR:63>  (97) 
hbond:TYR:63    0
hbond:TYR:63    0
Name: 96, dtype: object

>  <hbond:TYR:64>  (97) 
hbond:TYR:64    0
hbond:TYR:64    0
Name: 96, dtype: object

>  <halogenbond:TYR:64>  (97) 
halogenbond:TYR:64    0
halogenbond:TYR:64    0
Name: 96, dtype: object

>  <hydroph_interaction:TYR:64>  (97) 
hydroph_interaction:TYR:64    0
hydroph_interaction:TYR:64    0
Name: 96, dtype: object

>  <hbond:CYS:65>  (97) 
hbond:CYS:65    0
hbond:CYS:65    0
Name: 96, dtype: object

>  <halogenbond:CYS:65>  (97) 
halogenbond:CYS:65    0
halogenbond:CYS:65    0
Name: 96, dtype: object

>  <hbond:SER:66>  (97) 
hbond:SER:66    0
hbond:SER:66    0
Name: 96, dtype: object

>  <hbond:SER:67>  (97) 
hbond:SER:67    0
hbond:SER:67    0
Name: 96, dtype: object

>  <halogenbond:SER:67>  (97) 
halogenbond:SER:67    0
halogenbond:SER:67    0
Name: 96, dtype: object

>  <hydroph_interaction:ARG:68>  (97) 
hydroph_interaction:ARG:68    0
hydroph_interaction:ARG:68    0
Name: 96, dtype: object

>  <hbond:ARG:68>  (97) 
hbond:ARG:68    0
hbond:ARG:68    0
Name: 96, dtype: object

>  <saltbridge:ARG:68>  (97) 
saltbridge:ARG:68    0
saltbridge:ARG:68    0
Name: 96, dtype: object

>  <pication:ARG:68>  (97) 
pication:ARG:68    0
pication:ARG:68    0
Name: 96, dtype: object

>  <hydroph_interaction:TYR:72>  (97) 
hydroph_interaction:TYR:72    0
hydroph_interaction:TYR:72    0
Name: 96, dtype: object

>  <hydroph_interaction:VAL:74>  (97) 
hydroph_interaction:VAL:74    0
hydroph_interaction:VAL:74    0
Name: 96, dtype: object

>  <hydroph_interaction:PHE:76>  (97) 
hydroph_interaction:PHE:76    0
hydroph_interaction:PHE:76    0
Name: 96, dtype: object

>  <hbond:SER:77>  (97) 
hbond:SER:77    0
hbond:SER:77    0
Name: 96, dtype: object

>  <hbond:SER:80>  (97) 
hbond:SER:80    0
hbond:SER:80    0
Name: 96, dtype: object

>  <hbond:LEU:81>  (97) 
hbond:LEU:81    0
hbond:LEU:81    0
Name: 96, dtype: object

>  <halogenbond:LEU:81>  (97) 
halogenbond:LEU:81    0
halogenbond:LEU:81    0
Name: 96, dtype: object

>  <hydroph_interaction:LEU:81>  (97) 
hydroph_interaction:LEU:81    0
hydroph_interaction:LEU:81    0
Name: 96, dtype: object

>  <hydroph_interaction:ILE:82>  (97) 
hydroph_interaction:ILE:82    0
hydroph_interaction:ILE:82    0
Name: 96, dtype: object

>  <hbond:ILE:82>  (97) 
hbond:ILE:82    0
hbond:ILE:82    0
Name: 96, dtype: object

>  <hydroph_interaction:PHE:83>  (97) 
hydroph_interaction:PHE:83    0
hydroph_interaction:PHE:83    0
Name: 96, dtype: object

>  <hbond:PHE:83>  (97) 
hbond:PHE:83    0
hbond:PHE:83    0
Name: 96, dtype: object

>  <halogenbond:PHE:83>  (97) 
halogenbond:PHE:83    0
halogenbond:PHE:83    0
Name: 96, dtype: object

>  <pistack:PHE:83>  (97) 
pistack:PHE:83    0
pistack:PHE:83    0
Name: 96, dtype: object

>  <hydroph_interaction:VAL:84>  (97) 
hydroph_interaction:VAL:84    0
hydroph_interaction:VAL:84    0
Name: 96, dtype: object

>  <hbond:VAL:84>  (97) 
hbond:VAL:84    0
hbond:VAL:84    0
Name: 96, dtype: object

>  <halogenbond:VAL:84>  (97) 
halogenbond:VAL:84    0
halogenbond:VAL:84    0
Name: 96, dtype: object

>  <hydroph_interaction:GLU:85>  (97) 
hydroph_interaction:GLU:85    0
hydroph_interaction:GLU:85    0
Name: 96, dtype: object

>  <hbond:GLU:85>  (97) 
hbond:GLU:85    0
hbond:GLU:85    0
Name: 96, dtype: object

>  <saltbridge:GLU:85>  (97) 
saltbridge:GLU:85    0
saltbridge:GLU:85    0
Name: 96, dtype: object

>  <halogenbond:GLU:85>  (97) 
halogenbond:GLU:85    0
halogenbond:GLU:85    0
Name: 96, dtype: object

>  <hbond:ALA:86>  (97) 
hbond:ALA:86    0
hbond:ALA:86    0
Name: 96, dtype: object

>  <halogenbond:ALA:86>  (97) 
halogenbond:ALA:86    0
halogenbond:ALA:86    0
Name: 96, dtype: object

>  <hydroph_interaction:ALA:86>  (97) 
hydroph_interaction:ALA:86    0
hydroph_interaction:ALA:86    0
Name: 96, dtype: object

>  <hbond:SER:87>  (97) 
hbond:SER:87    1
hbond:SER:87    1
Name: 96, dtype: object

>  <halogenbond:SER:87>  (97) 
halogenbond:SER:87    0
halogenbond:SER:87    0
Name: 96, dtype: object

>  <hbond:GLU:88>  (97) 
hbond:GLU:88    0
hbond:GLU:88    0
Name: 96, dtype: object

>  <hydroph_interaction:GLU:88>  (97) 
hydroph_interaction:GLU:88    0
hydroph_interaction:GLU:88    0
Name: 96, dtype: object

>  <halogenbond:GLU:88>  (97) 
halogenbond:GLU:88    0
halogenbond:GLU:88    0
Name: 96, dtype: object

>  <saltbridge:GLU:88>  (97) 
saltbridge:GLU:88    0
saltbridge:GLU:88    0
Name: 96, dtype: object

>  <hydroph_interaction:TYR:89>  (97) 
hydroph_interaction:TYR:89    0
hydroph_interaction:TYR:89    0
Name: 96, dtype: object

>  <pistack:TYR:89>  (97) 
pistack:TYR:89    0
pistack:TYR:89    0
Name: 96, dtype: object

>  <hbond:TYR:89>  (97) 
hbond:TYR:89    0
hbond:TYR:89    0
Name: 96, dtype: object

>  <halogenbond:TYR:89>  (97) 
halogenbond:TYR:89    0
halogenbond:TYR:89    0
Name: 96, dtype: object

>  <hbond:TYR:90>  (97) 
hbond:TYR:90    0
hbond:TYR:90    0
Name: 96, dtype: object

>  <hydroph_interaction:TYR:90>  (97) 
hydroph_interaction:TYR:90    0
hydroph_interaction:TYR:90    0
Name: 96, dtype: object

>  <pistack:TYR:90>  (97) 
pistack:TYR:90    0
pistack:TYR:90    0
Name: 96, dtype: object

>  <halogenbond:TYR:90>  (97) 
halogenbond:TYR:90    0
halogenbond:TYR:90    0
Name: 96, dtype: object

>  <pication:TYR:90>  (97) 
pication:TYR:90    0
pication:TYR:90    0
Name: 96, dtype: object

>  <hydroph_interaction:PRO:91>  (97) 
hydroph_interaction:PRO:91    0
hydroph_interaction:PRO:91    0
Name: 96, dtype: object

>  <halogenbond:PRO:91>  (97) 
halogenbond:PRO:91    0
halogenbond:PRO:91    0
Name: 96, dtype: object

>  <hbond:PRO:91>  (97) 
hbond:PRO:91    0
hbond:PRO:91    0
Name: 96, dtype: object

>  <hydroph_interaction:ALA:92>  (97) 
hydroph_interaction:ALA:92    0
hydroph_interaction:ALA:92    0
Name: 96, dtype: object

>  <hbond:ARG:93>  (97) 
hbond:ARG:93    0
hbond:ARG:93    0
Name: 96, dtype: object

>  <pication:ARG:93>  (97) 
pication:ARG:93    0
pication:ARG:93    0
Name: 96, dtype: object

>  <saltbridge:ARG:93>  (97) 
saltbridge:ARG:93    0
saltbridge:ARG:93    0
Name: 96, dtype: object

>  <hydroph_interaction:ARG:93>  (97) 
hydroph_interaction:ARG:93    0
hydroph_interaction:ARG:93    0
Name: 96, dtype: object

>  <halogenbond:ARG:93>  (97) 
halogenbond:ARG:93    0
halogenbond:ARG:93    0
Name: 96, dtype: object

>  <hydroph_interaction:TYR:94>  (97) 
hydroph_interaction:TYR:94    0
hydroph_interaction:TYR:94    0
Name: 96, dtype: object

>  <hbond:TYR:94>  (97) 
hbond:TYR:94    0
hbond:TYR:94    0
Name: 96, dtype: object

>  <halogenbond:GLN:95>  (97) 
halogenbond:GLN:95    0
halogenbond:GLN:95    0
Name: 96, dtype: object

>  <hbond:GLN:95>  (97) 
hbond:GLN:95    0
hbond:GLN:95    0
Name: 96, dtype: object

>  <hydroph_interaction:GLN:95>  (97) 
hydroph_interaction:GLN:95    0
hydroph_interaction:GLN:95    0
Name: 96, dtype: object

>  <hbond:SER:96>  (97) 
hbond:SER:96    0
hbond:SER:96    0
Name: 96, dtype: object

>  <hydroph_interaction:LEU:98>  (97) 
hydroph_interaction:LEU:98    0
hydroph_interaction:LEU:98    0
Name: 96, dtype: object

>  <hbond:LEU:98>  (97) 
hbond:LEU:98    0
hbond:LEU:98    0
Name: 96, dtype: object

>  <hbond:MET:99>  (97) 
hbond:MET:99    0
hbond:MET:99    0
Name: 96, dtype: object

>  <hydroph_interaction:MET:99>  (97) 
hydroph_interaction:MET:99    0
hydroph_interaction:MET:99    0
Name: 96, dtype: object

>  <halogenbond:MET:99>  (97) 
halogenbond:MET:99    0
halogenbond:MET:99    0
Name: 96, dtype: object

>  <hydroph_interaction:LEU:100>  (97) 
hydroph_interaction:LEU:100    0
hydroph_interaction:LEU:100    0
Name: 96, dtype: object

>  <hbond:LEU:100>  (97) 
hbond:LEU:100    0
hbond:LEU:100    0
Name: 96, dtype: object

>  <hbond:ALA:101>  (97) 
hbond:ALA:101    0
hbond:ALA:101    0
Name: 96, dtype: object

>  <hydroph_interaction:ALA:101>  (97) 
hydroph_interaction:ALA:101    0
hydroph_interaction:ALA:101    0
Name: 96, dtype: object

>  <hydroph_interaction:VAL:102>  (97) 
hydroph_interaction:VAL:102    0
hydroph_interaction:VAL:102    0
Name: 96, dtype: object

>  <hbond:VAL:102>  (97) 
hbond:VAL:102    0
hbond:VAL:102    0
Name: 96, dtype: object

>  <hbond:GLY:103>  (97) 
hbond:GLY:103    0
hbond:GLY:103    0
Name: 96, dtype: object

>  <halogenbond:GLY:103>  (97) 
halogenbond:GLY:103    0
halogenbond:GLY:103    0
Name: 96, dtype: object

>  <hydroph_interaction:HIS:104>  (97) 
hydroph_interaction:HIS:104    0
hydroph_interaction:HIS:104    0
Name: 96, dtype: object

>  <hbond:HIS:104>  (97) 
hbond:HIS:104    0
hbond:HIS:104    0
Name: 96, dtype: object

>  <saltbridge:HIS:104>  (97) 
saltbridge:HIS:104    0
saltbridge:HIS:104    0
Name: 96, dtype: object

>  <pication:HIS:104>  (97) 
pication:HIS:104    0
pication:HIS:104    0
Name: 96, dtype: object

>  <pistack:HIS:104>  (97) 
pistack:HIS:104    0
pistack:HIS:104    0
Name: 96, dtype: object

>  <halogenbond:HIS:104>  (97) 
halogenbond:HIS:104    0
halogenbond:HIS:104    0
Name: 96, dtype: object

>  <hbond:SER:105>  (97) 
hbond:SER:105    0
hbond:SER:105    0
Name: 96, dtype: object

>  <halogenbond:SER:105>  (97) 
halogenbond:SER:105    0
halogenbond:SER:105    0
Name: 96, dtype: object

>  <hbond:GLU:106>  (97) 
hbond:GLU:106    0
hbond:GLU:106    0
Name: 96, dtype: object

>  <hydroph_interaction:GLU:106>  (97) 
hydroph_interaction:GLU:106    0
hydroph_interaction:GLU:106    0
Name: 96, dtype: object

>  <saltbridge:GLU:106>  (97) 
saltbridge:GLU:106    0
saltbridge:GLU:106    0
Name: 96, dtype: object

>  <halogenbond:GLU:106>  (97) 
halogenbond:GLU:106    0
halogenbond:GLU:106    0
Name: 96, dtype: object

>  <hydroph_interaction:PRO:107>  (97) 
hydroph_interaction:PRO:107    0
hydroph_interaction:PRO:107    0
Name: 96, dtype: object

>  <hbond:PRO:107>  (97) 
hbond:PRO:107    0
hbond:PRO:107    0
Name: 96, dtype: object

>  <halogenbond:PRO:107>  (97) 
halogenbond:PRO:107    0
halogenbond:PRO:107    0
Name: 96, dtype: object

>  <hbond:GLY:108>  (97) 
hbond:GLY:108    0
hbond:GLY:108    0
Name: 96, dtype: object

>  <halogenbond:GLY:108>  (97) 
halogenbond:GLY:108    0
halogenbond:GLY:108    0
Name: 96, dtype: object

>  <hbond:ASP:109>  (97) 
hbond:ASP:109    0
hbond:ASP:109    0
Name: 96, dtype: object

>  <hydroph_interaction:ASP:109>  (97) 
hydroph_interaction:ASP:109    0
hydroph_interaction:ASP:109    0
Name: 96, dtype: object

>  <saltbridge:ASP:109>  (97) 
saltbridge:ASP:109    0
saltbridge:ASP:109    0
Name: 96, dtype: object

>  <hbond:CYS:110>  (97) 
hbond:CYS:110    0
hbond:CYS:110    0
Name: 96, dtype: object

>  <halogenbond:CYS:110>  (97) 
halogenbond:CYS:110    0
halogenbond:CYS:110    0
Name: 96, dtype: object

>  <hbond:GLY:111>  (97) 
hbond:GLY:111    0
hbond:GLY:111    0
Name: 96, dtype: object

>  <hbond:GLY:112>  (97) 
hbond:GLY:112    0
hbond:GLY:112    0
Name: 96, dtype: object

>  <hbond:ILE:113>  (97) 
hbond:ILE:113    0
hbond:ILE:113    0
Name: 96, dtype: object

>  <hydroph_interaction:LEU:114>  (97) 
hydroph_interaction:LEU:114    0
hydroph_interaction:LEU:114    0
Name: 96, dtype: object

>  <hbond:LEU:114>  (97) 
hbond:LEU:114    0
hbond:LEU:114    0
Name: 96, dtype: object

>  <hydroph_interaction:ILE:123>  (97) 
hydroph_interaction:ILE:123    0
hydroph_interaction:ILE:123    0
Name: 96, dtype: object

>  <hbond:ILE:123>  (97) 
hbond:ILE:123    0
hbond:ILE:123    0
Name: 96, dtype: object

>  <hydroph_interaction:VAL:124>  (97) 
hydroph_interaction:VAL:124    0
hydroph_interaction:VAL:124    0
Name: 96, dtype: object

>  <hbond:VAL:124>  (97) 
hbond:VAL:124    0
hbond:VAL:124    0
Name: 96, dtype: object

>  <halogenbond:VAL:124>  (97) 
halogenbond:VAL:124    0
halogenbond:VAL:124    0
Name: 96, dtype: object

>  <hbond:SER:125>  (97) 
hbond:SER:125    0
hbond:SER:125    0
Name: 96, dtype: object

>  <halogenbond:SER:125>  (97) 
halogenbond:SER:125    0
halogenbond:SER:125    0
Name: 96, dtype: object

>  <hydroph_interaction:THR:126>  (97) 
hydroph_interaction:THR:126    0
hydroph_interaction:THR:126    0
Name: 96, dtype: object

>  <hbond:THR:126>  (97) 
hbond:THR:126    1
hbond:THR:126    1
Name: 96, dtype: object

>  <halogenbond:THR:126>  (97) 
halogenbond:THR:126    0
halogenbond:THR:126    0
Name: 96, dtype: object

>  <hbond:GLY:127>  (97) 
hbond:GLY:127    0
hbond:GLY:127    0
Name: 96, dtype: object

>  <halogenbond:GLY:127>  (97) 
halogenbond:GLY:127    0
halogenbond:GLY:127    0
Name: 96, dtype: object

>  <hydroph_interaction:GLY:127>  (97) 
hydroph_interaction:GLY:127    0
hydroph_interaction:GLY:127    0
Name: 96, dtype: object

>  <hbond:GLY:128>  (97) 
hbond:GLY:128    0
hbond:GLY:128    0
Name: 96, dtype: object

>  <halogenbond:GLY:128>  (97) 
halogenbond:GLY:128    0
halogenbond:GLY:128    0
Name: 96, dtype: object

>  <hydroph_interaction:GLY:128>  (97) 
hydroph_interaction:GLY:128    0
hydroph_interaction:GLY:128    0
Name: 96, dtype: object

>  <hbond:ASN:129>  (97) 
hbond:ASN:129    0
hbond:ASN:129    0
Name: 96, dtype: object

>  <hydroph_interaction:ASN:129>  (97) 
hydroph_interaction:ASN:129    0
hydroph_interaction:ASN:129    0
Name: 96, dtype: object

>  <halogenbond:ASN:129>  (97) 
halogenbond:ASN:129    0
halogenbond:ASN:129    0
Name: 96, dtype: object

>  <hbond:GLY:130>  (97) 
hbond:GLY:130    0
hbond:GLY:130    0
Name: 96, dtype: object

>  <hydroph_interaction:LEU:131>  (97) 
hydroph_interaction:LEU:131    0
hydroph_interaction:LEU:131    0
Name: 96, dtype: object

>  <hbond:LEU:131>  (97) 
hbond:LEU:131    0
hbond:LEU:131    0
Name: 96, dtype: object

>  <halogenbond:LEU:131>  (97) 
halogenbond:LEU:131    0
halogenbond:LEU:131    0
Name: 96, dtype: object

>  <hydroph_interaction:VAL:132>  (97) 
hydroph_interaction:VAL:132    0
hydroph_interaction:VAL:132    0
Name: 96, dtype: object

>  <hbond:VAL:132>  (97) 
hbond:VAL:132    0
hbond:VAL:132    0
Name: 96, dtype: object

>  <hbond:GLY:133>  (97) 
hbond:GLY:133    0
hbond:GLY:133    0
Name: 96, dtype: object

>  <halogenbond:GLY:133>  (97) 
halogenbond:GLY:133    0
halogenbond:GLY:133    0
Name: 96, dtype: object

>  <hydroph_interaction:PHE:134>  (97) 
hydroph_interaction:PHE:134    0
hydroph_interaction:PHE:134    0
Name: 96, dtype: object

>  <hbond:PHE:134>  (97) 
hbond:PHE:134    0
hbond:PHE:134    0
Name: 96, dtype: object

>  <pistack:PHE:134>  (97) 
pistack:PHE:134    0
pistack:PHE:134    0
Name: 96, dtype: object

>  <pication:PHE:134>  (97) 
pication:PHE:134    0
pication:PHE:134    0
Name: 96, dtype: object

>  <hydroph_interaction:ALA:135>  (97) 
hydroph_interaction:ALA:135    0
hydroph_interaction:ALA:135    0
Name: 96, dtype: object

>  <hbond:ALA:135>  (97) 
hbond:ALA:135    0
hbond:ALA:135    0
Name: 96, dtype: object

$$$$
Z1205390072
     RDKit          3D

 29 29  0  0  0  0  0  0  0  0999 V2000
   -0.0620   12.4130   16.5920 C   0  0  0  0  0  0  0  0  0  0  0  0
   -0.7700   13.4560   17.3730 C   0  0  0  0  0  0  0  0  0  0  0  0
    0.1070   14.2720   18.0580 N   0  0  0  0  0  0  0  0  0  0  0  0
    0.6810   14.0510   19.3180 C   0  0  0  0  0  0  0  0  0  0  0  0
    1.0280   15.1740   20.0500 C   0  0  0  0  0  0  0  0  0  0  0  0
   -0.4850   13.3200   20.0650 C   0  0  0  0  0  0  0  0  0  0  0  0
    1.7660   12.9770   19.2350 C   0  0  0  0  0  0  0  0  0  0  0  0
    2.6400   12.7980   18.0410 C   0  0  0  0  0  0  0  0  0  0  0  0
    3.6990   11.7720   17.8550 C   0  0  0  0  0  0  0  0  0  0  0  0
    3.9080   10.7750   19.0100 C   0  0  0  0  0  0  0  0  0  0  0  0
    4.7630    9.7850   19.0270 F   0  0  0  0  0  0  0  0  0  0  0  0
    2.9970   11.0400   20.1960 C   0  0  0  0  0  0  0  0  0  0  0  0
    1.9740   12.1300   20.2730 C   0  0  0  0  0  0  0  0  0  0  0  0
    1.0600   12.3050   21.6950 Cl  0  0  0  0  0  0  0  0  0  0  0  0
   -0.5040   11.4280   16.7570 H   0  0  0  0  0  0  0  0  0  0  0  0
   -0.1340   12.6260   15.5230 H   0  0  0  0  0  0  0  0  0  0  0  0
    0.9990   12.3890   16.8330 H   0  0  0  0  0  0  0  0  0  0  0  0
   -1.4640   12.9550   18.0680 H   0  0  0  0  0  0  0  0  0  0  0  0
   -1.3890   14.0540   16.6950 H   0  0  0  0  0  0  0  0  0  0  0  0
    0.7120   14.8120   17.4220 H   0  0  0  0  0  0  0  0  0  0  0  0
    0.3200   15.5000   20.8130 H   0  0  0  0  0  0  0  0  0  0  0  0
    1.1540   15.9980   19.3330 H   0  0  0  0  0  0  0  0  0  0  0  0
    2.0020   15.0230   20.5320 H   0  0  0  0  0  0  0  0  0  0  0  0
   -0.3680   12.2360   19.9820 H   0  0  0  0  0  0  0  0  0  0  0  0
   -1.4520   13.5400   19.6040 H   0  0  0  0  0  0  0  0  0  0  0  0
   -0.5690   13.5760   21.1270 H   0  0  0  0  0  0  0  0  0  0  0  0
    2.4770   13.4990   17.2110 H   0  0  0  0  0  0  0  0  0  0  0  0
    4.2790   11.7290   16.9490 H   0  0  0  0  0  0  0  0  0  0  0  0
    3.0980   10.3810   21.0580 H   0  0  0  0  0  0  0  0  0  0  0  0
  1  2  1  0
  2  3  1  0
  3  4  1  0
  4  5  1  0
  4  6  1  0
  4  7  1  0
  7  8  2  0
  8  9  1  0
  9 10  2  0
 10 11  1  0
 10 12  1  0
 12 13  2  0
 13 14  1  0
 13  7  1  0
  1 15  1  0
  1 16  1  0
  1 17  1  0
  2 18  1  0
  2 19  1  0
  3 20  1  0
  5 21  1  0
  5 22  1  0
  5 23  1  0
  6 24  1  0
  6 25  1  0
  6 26  1  0
  8 27  1  0
  9 28  1  0
 12 29  1  0
A    1
 C1 
A    2
 C2 
A    3
 N1 
A    4
 C3 
A    5
 C4 
A    6
 C5 
A    7
 C6 
A    8
 C7 
A    9
 C8 
A   10
 C9 
A   11
 F1 
A   12
 C10
A   13
 C11
A   14
CL1 
A   15
 H1 
A   16
 H2 
A   17
 H3 
A   18
 H4 
A   19
 H5 
A   20
 H6 
A   21
 H7 
A   22
 H8 
A   23
 H9 
A   24
 H10
A   25
 H11
A   26
 H12
A   27
 H13
A   28
 H14
A   29
 H15
M  END
>  <ref_pdb>  (98) 
x0310_0A

>  <ref_mols>  (98) 
x0473_0A,x0416_0A

>  <original SMILES>  (98) 
CCNC(C)(C)c1ccc(F)cc1Cl

>  <rationale>  (98) 
info halogenbond:N129; hydroph_interaction:E85+I82+L100+L131; 

>  <intxn_cluster>  (98) 
205

>  <intxn_cluster_rank>  (98) 
40

>  <N_interactions>  (98) 
6

>  <∆∆G>  (98) 
-6.728354

>  <$/mg>  (98) 
nan

>  <comRMSD>  (98) 
0.745132

>  <N_rotatable_bonds>  (98) 
6

>  <N_analogues_07>  (98) 
0

>  <deep_P1_sidechain>  (98) 
False

>  <farthest_distance_to_substrate>  (98) 
4.952193

>  <hbond:SER:7>  (98) 
hbond:SER:7    0
hbond:SER:7    0
Name: 97, dtype: object

>  <halogenbond:SER:7>  (98) 
halogenbond:SER:7    0
halogenbond:SER:7    0
Name: 97, dtype: object

>  <hbond:GLY:8>  (98) 
hbond:GLY:8    0
hbond:GLY:8    0
Name: 97, dtype: object

>  <hydroph_interaction:ASN:19>  (98) 
hydroph_interaction:ASN:19    0
hydroph_interaction:ASN:19    0
Name: 97, dtype: object

>  <hbond:ASN:19>  (98) 
hbond:ASN:19    0
hbond:ASN:19    0
Name: 97, dtype: object

>  <halogenbond:ASN:19>  (98) 
halogenbond:ASN:19    0
halogenbond:ASN:19    0
Name: 97, dtype: object

>  <hbond:ARG:20>  (98) 
hbond:ARG:20    0
hbond:ARG:20    0
Name: 97, dtype: object

>  <hydroph_interaction:ARG:20>  (98) 
hydroph_interaction:ARG:20    0
hydroph_interaction:ARG:20    0
Name: 97, dtype: object

>  <saltbridge:ARG:20>  (98) 
saltbridge:ARG:20    0
saltbridge:ARG:20    0
Name: 97, dtype: object

>  <halogenbond:ARG:20>  (98) 
halogenbond:ARG:20    0
halogenbond:ARG:20    0
Name: 97, dtype: object

>  <pication:ARG:20>  (98) 
pication:ARG:20    0
pication:ARG:20    0
Name: 97, dtype: object

>  <hbond:HIS:21>  (98) 
hbond:HIS:21    0
hbond:HIS:21    0
Name: 97, dtype: object

>  <hydroph_interaction:HIS:21>  (98) 
hydroph_interaction:HIS:21    0
hydroph_interaction:HIS:21    0
Name: 97, dtype: object

>  <saltbridge:HIS:21>  (98) 
saltbridge:HIS:21    0
saltbridge:HIS:21    0
Name: 97, dtype: object

>  <pistack:HIS:21>  (98) 
pistack:HIS:21    0
pistack:HIS:21    0
Name: 97, dtype: object

>  <pication:HIS:21>  (98) 
pication:HIS:21    0
pication:HIS:21    0
Name: 97, dtype: object

>  <halogenbond:HIS:21>  (98) 
halogenbond:HIS:21    0
halogenbond:HIS:21    0
Name: 97, dtype: object

>  <hydroph_interaction:LEU:22>  (98) 
hydroph_interaction:LEU:22    0
hydroph_interaction:LEU:22    0
Name: 97, dtype: object

>  <hbond:LEU:22>  (98) 
hbond:LEU:22    0
hbond:LEU:22    0
Name: 97, dtype: object

>  <hydroph_interaction:TRP:28>  (98) 
hydroph_interaction:TRP:28    0
hydroph_interaction:TRP:28    0
Name: 97, dtype: object

>  <hbond:SER:36>  (98) 
hbond:SER:36    0
hbond:SER:36    0
Name: 97, dtype: object

>  <halogenbond:SER:36>  (98) 
halogenbond:SER:36    0
halogenbond:SER:36    0
Name: 97, dtype: object

>  <hbond:ARG:38>  (98) 
hbond:ARG:38    0
hbond:ARG:38    0
Name: 97, dtype: object

>  <halogenbond:ARG:38>  (98) 
halogenbond:ARG:38    0
halogenbond:ARG:38    0
Name: 97, dtype: object

>  <hbond:ASP:39>  (98) 
hbond:ASP:39    0
hbond:ASP:39    0
Name: 97, dtype: object

>  <saltbridge:ASP:39>  (98) 
saltbridge:ASP:39    0
saltbridge:ASP:39    0
Name: 97, dtype: object

>  <hydroph_interaction:ASP:39>  (98) 
hydroph_interaction:ASP:39    0
hydroph_interaction:ASP:39    0
Name: 97, dtype: object

>  <halogenbond:ASP:39>  (98) 
halogenbond:ASP:39    0
halogenbond:ASP:39    0
Name: 97, dtype: object

>  <hydroph_interaction:LEU:40>  (98) 
hydroph_interaction:LEU:40    0
hydroph_interaction:LEU:40    0
Name: 97, dtype: object

>  <hydroph_interaction:TYR:63>  (98) 
hydroph_interaction:TYR:63    0
hydroph_interaction:TYR:63    0
Name: 97, dtype: object

>  <pistack:TYR:63>  (98) 
pistack:TYR:63    0
pistack:TYR:63    0
Name: 97, dtype: object

>  <hbond:TYR:63>  (98) 
hbond:TYR:63    0
hbond:TYR:63    0
Name: 97, dtype: object

>  <hbond:TYR:64>  (98) 
hbond:TYR:64    0
hbond:TYR:64    0
Name: 97, dtype: object

>  <halogenbond:TYR:64>  (98) 
halogenbond:TYR:64    0
halogenbond:TYR:64    0
Name: 97, dtype: object

>  <hydroph_interaction:TYR:64>  (98) 
hydroph_interaction:TYR:64    0
hydroph_interaction:TYR:64    0
Name: 97, dtype: object

>  <hbond:CYS:65>  (98) 
hbond:CYS:65    0
hbond:CYS:65    0
Name: 97, dtype: object

>  <halogenbond:CYS:65>  (98) 
halogenbond:CYS:65    0
halogenbond:CYS:65    0
Name: 97, dtype: object

>  <hbond:SER:66>  (98) 
hbond:SER:66    0
hbond:SER:66    0
Name: 97, dtype: object

>  <hbond:SER:67>  (98) 
hbond:SER:67    0
hbond:SER:67    0
Name: 97, dtype: object

>  <halogenbond:SER:67>  (98) 
halogenbond:SER:67    0
halogenbond:SER:67    0
Name: 97, dtype: object

>  <hydroph_interaction:ARG:68>  (98) 
hydroph_interaction:ARG:68    0
hydroph_interaction:ARG:68    0
Name: 97, dtype: object

>  <hbond:ARG:68>  (98) 
hbond:ARG:68    0
hbond:ARG:68    0
Name: 97, dtype: object

>  <saltbridge:ARG:68>  (98) 
saltbridge:ARG:68    0
saltbridge:ARG:68    0
Name: 97, dtype: object

>  <pication:ARG:68>  (98) 
pication:ARG:68    0
pication:ARG:68    0
Name: 97, dtype: object

>  <hydroph_interaction:TYR:72>  (98) 
hydroph_interaction:TYR:72    0
hydroph_interaction:TYR:72    0
Name: 97, dtype: object

>  <hydroph_interaction:VAL:74>  (98) 
hydroph_interaction:VAL:74    0
hydroph_interaction:VAL:74    0
Name: 97, dtype: object

>  <hydroph_interaction:PHE:76>  (98) 
hydroph_interaction:PHE:76    0
hydroph_interaction:PHE:76    0
Name: 97, dtype: object

>  <hbond:SER:77>  (98) 
hbond:SER:77    0
hbond:SER:77    0
Name: 97, dtype: object

>  <hbond:SER:80>  (98) 
hbond:SER:80    0
hbond:SER:80    0
Name: 97, dtype: object

>  <hbond:LEU:81>  (98) 
hbond:LEU:81    0
hbond:LEU:81    0
Name: 97, dtype: object

>  <halogenbond:LEU:81>  (98) 
halogenbond:LEU:81    0
halogenbond:LEU:81    0
Name: 97, dtype: object

>  <hydroph_interaction:LEU:81>  (98) 
hydroph_interaction:LEU:81    0
hydroph_interaction:LEU:81    0
Name: 97, dtype: object

>  <hydroph_interaction:ILE:82>  (98) 
hydroph_interaction:ILE:82    1
hydroph_interaction:ILE:82    1
Name: 97, dtype: object

>  <hbond:ILE:82>  (98) 
hbond:ILE:82    0
hbond:ILE:82    0
Name: 97, dtype: object

>  <hydroph_interaction:PHE:83>  (98) 
hydroph_interaction:PHE:83    0
hydroph_interaction:PHE:83    0
Name: 97, dtype: object

>  <hbond:PHE:83>  (98) 
hbond:PHE:83    0
hbond:PHE:83    0
Name: 97, dtype: object

>  <halogenbond:PHE:83>  (98) 
halogenbond:PHE:83    0
halogenbond:PHE:83    0
Name: 97, dtype: object

>  <pistack:PHE:83>  (98) 
pistack:PHE:83    0
pistack:PHE:83    0
Name: 97, dtype: object

>  <hydroph_interaction:VAL:84>  (98) 
hydroph_interaction:VAL:84    0
hydroph_interaction:VAL:84    0
Name: 97, dtype: object

>  <hbond:VAL:84>  (98) 
hbond:VAL:84    0
hbond:VAL:84    0
Name: 97, dtype: object

>  <halogenbond:VAL:84>  (98) 
halogenbond:VAL:84    0
halogenbond:VAL:84    0
Name: 97, dtype: object

>  <hydroph_interaction:GLU:85>  (98) 
hydroph_interaction:GLU:85    1
hydroph_interaction:GLU:85    1
Name: 97, dtype: object

>  <hbond:GLU:85>  (98) 
hbond:GLU:85    0
hbond:GLU:85    0
Name: 97, dtype: object

>  <saltbridge:GLU:85>  (98) 
saltbridge:GLU:85    0
saltbridge:GLU:85    0
Name: 97, dtype: object

>  <halogenbond:GLU:85>  (98) 
halogenbond:GLU:85    0
halogenbond:GLU:85    0
Name: 97, dtype: object

>  <hbond:ALA:86>  (98) 
hbond:ALA:86    0
hbond:ALA:86    0
Name: 97, dtype: object

>  <halogenbond:ALA:86>  (98) 
halogenbond:ALA:86    0
halogenbond:ALA:86    0
Name: 97, dtype: object

>  <hydroph_interaction:ALA:86>  (98) 
hydroph_interaction:ALA:86    0
hydroph_interaction:ALA:86    0
Name: 97, dtype: object

>  <hbond:SER:87>  (98) 
hbond:SER:87    0
hbond:SER:87    0
Name: 97, dtype: object

>  <halogenbond:SER:87>  (98) 
halogenbond:SER:87    0
halogenbond:SER:87    0
Name: 97, dtype: object

>  <hbond:GLU:88>  (98) 
hbond:GLU:88    0
hbond:GLU:88    0
Name: 97, dtype: object

>  <hydroph_interaction:GLU:88>  (98) 
hydroph_interaction:GLU:88    0
hydroph_interaction:GLU:88    0
Name: 97, dtype: object

>  <halogenbond:GLU:88>  (98) 
halogenbond:GLU:88    0
halogenbond:GLU:88    0
Name: 97, dtype: object

>  <saltbridge:GLU:88>  (98) 
saltbridge:GLU:88    0
saltbridge:GLU:88    0
Name: 97, dtype: object

>  <hydroph_interaction:TYR:89>  (98) 
hydroph_interaction:TYR:89    0
hydroph_interaction:TYR:89    0
Name: 97, dtype: object

>  <pistack:TYR:89>  (98) 
pistack:TYR:89    0
pistack:TYR:89    0
Name: 97, dtype: object

>  <hbond:TYR:89>  (98) 
hbond:TYR:89    0
hbond:TYR:89    0
Name: 97, dtype: object

>  <halogenbond:TYR:89>  (98) 
halogenbond:TYR:89    0
halogenbond:TYR:89    0
Name: 97, dtype: object

>  <hbond:TYR:90>  (98) 
hbond:TYR:90    0
hbond:TYR:90    0
Name: 97, dtype: object

>  <hydroph_interaction:TYR:90>  (98) 
hydroph_interaction:TYR:90    0
hydroph_interaction:TYR:90    0
Name: 97, dtype: object

>  <pistack:TYR:90>  (98) 
pistack:TYR:90    0
pistack:TYR:90    0
Name: 97, dtype: object

>  <halogenbond:TYR:90>  (98) 
halogenbond:TYR:90    0
halogenbond:TYR:90    0
Name: 97, dtype: object

>  <pication:TYR:90>  (98) 
pication:TYR:90    0
pication:TYR:90    0
Name: 97, dtype: object

>  <hydroph_interaction:PRO:91>  (98) 
hydroph_interaction:PRO:91    0
hydroph_interaction:PRO:91    0
Name: 97, dtype: object

>  <halogenbond:PRO:91>  (98) 
halogenbond:PRO:91    0
halogenbond:PRO:91    0
Name: 97, dtype: object

>  <hbond:PRO:91>  (98) 
hbond:PRO:91    0
hbond:PRO:91    0
Name: 97, dtype: object

>  <hydroph_interaction:ALA:92>  (98) 
hydroph_interaction:ALA:92    0
hydroph_interaction:ALA:92    0
Name: 97, dtype: object

>  <hbond:ARG:93>  (98) 
hbond:ARG:93    0
hbond:ARG:93    0
Name: 97, dtype: object

>  <pication:ARG:93>  (98) 
pication:ARG:93    0
pication:ARG:93    0
Name: 97, dtype: object

>  <saltbridge:ARG:93>  (98) 
saltbridge:ARG:93    0
saltbridge:ARG:93    0
Name: 97, dtype: object

>  <hydroph_interaction:ARG:93>  (98) 
hydroph_interaction:ARG:93    0
hydroph_interaction:ARG:93    0
Name: 97, dtype: object

>  <halogenbond:ARG:93>  (98) 
halogenbond:ARG:93    0
halogenbond:ARG:93    0
Name: 97, dtype: object

>  <hydroph_interaction:TYR:94>  (98) 
hydroph_interaction:TYR:94    0
hydroph_interaction:TYR:94    0
Name: 97, dtype: object

>  <hbond:TYR:94>  (98) 
hbond:TYR:94    0
hbond:TYR:94    0
Name: 97, dtype: object

>  <halogenbond:GLN:95>  (98) 
halogenbond:GLN:95    0
halogenbond:GLN:95    0
Name: 97, dtype: object

>  <hbond:GLN:95>  (98) 
hbond:GLN:95    0
hbond:GLN:95    0
Name: 97, dtype: object

>  <hydroph_interaction:GLN:95>  (98) 
hydroph_interaction:GLN:95    0
hydroph_interaction:GLN:95    0
Name: 97, dtype: object

>  <hbond:SER:96>  (98) 
hbond:SER:96    0
hbond:SER:96    0
Name: 97, dtype: object

>  <hydroph_interaction:LEU:98>  (98) 
hydroph_interaction:LEU:98    0
hydroph_interaction:LEU:98    0
Name: 97, dtype: object

>  <hbond:LEU:98>  (98) 
hbond:LEU:98    0
hbond:LEU:98    0
Name: 97, dtype: object

>  <hbond:MET:99>  (98) 
hbond:MET:99    0
hbond:MET:99    0
Name: 97, dtype: object

>  <hydroph_interaction:MET:99>  (98) 
hydroph_interaction:MET:99    0
hydroph_interaction:MET:99    0
Name: 97, dtype: object

>  <halogenbond:MET:99>  (98) 
halogenbond:MET:99    0
halogenbond:MET:99    0
Name: 97, dtype: object

>  <hydroph_interaction:LEU:100>  (98) 
hydroph_interaction:LEU:100    2
hydroph_interaction:LEU:100    2
Name: 97, dtype: object

>  <hbond:LEU:100>  (98) 
hbond:LEU:100    0
hbond:LEU:100    0
Name: 97, dtype: object

>  <hbond:ALA:101>  (98) 
hbond:ALA:101    0
hbond:ALA:101    0
Name: 97, dtype: object

>  <hydroph_interaction:ALA:101>  (98) 
hydroph_interaction:ALA:101    0
hydroph_interaction:ALA:101    0
Name: 97, dtype: object

>  <hydroph_interaction:VAL:102>  (98) 
hydroph_interaction:VAL:102    0
hydroph_interaction:VAL:102    0
Name: 97, dtype: object

>  <hbond:VAL:102>  (98) 
hbond:VAL:102    0
hbond:VAL:102    0
Name: 97, dtype: object

>  <hbond:GLY:103>  (98) 
hbond:GLY:103    0
hbond:GLY:103    0
Name: 97, dtype: object

>  <halogenbond:GLY:103>  (98) 
halogenbond:GLY:103    0
halogenbond:GLY:103    0
Name: 97, dtype: object

>  <hydroph_interaction:HIS:104>  (98) 
hydroph_interaction:HIS:104    0
hydroph_interaction:HIS:104    0
Name: 97, dtype: object

>  <hbond:HIS:104>  (98) 
hbond:HIS:104    0
hbond:HIS:104    0
Name: 97, dtype: object

>  <saltbridge:HIS:104>  (98) 
saltbridge:HIS:104    0
saltbridge:HIS:104    0
Name: 97, dtype: object

>  <pication:HIS:104>  (98) 
pication:HIS:104    0
pication:HIS:104    0
Name: 97, dtype: object

>  <pistack:HIS:104>  (98) 
pistack:HIS:104    0
pistack:HIS:104    0
Name: 97, dtype: object

>  <halogenbond:HIS:104>  (98) 
halogenbond:HIS:104    0
halogenbond:HIS:104    0
Name: 97, dtype: object

>  <hbond:SER:105>  (98) 
hbond:SER:105    0
hbond:SER:105    0
Name: 97, dtype: object

>  <halogenbond:SER:105>  (98) 
halogenbond:SER:105    0
halogenbond:SER:105    0
Name: 97, dtype: object

>  <hbond:GLU:106>  (98) 
hbond:GLU:106    0
hbond:GLU:106    0
Name: 97, dtype: object

>  <hydroph_interaction:GLU:106>  (98) 
hydroph_interaction:GLU:106    0
hydroph_interaction:GLU:106    0
Name: 97, dtype: object

>  <saltbridge:GLU:106>  (98) 
saltbridge:GLU:106    0
saltbridge:GLU:106    0
Name: 97, dtype: object

>  <halogenbond:GLU:106>  (98) 
halogenbond:GLU:106    0
halogenbond:GLU:106    0
Name: 97, dtype: object

>  <hydroph_interaction:PRO:107>  (98) 
hydroph_interaction:PRO:107    0
hydroph_interaction:PRO:107    0
Name: 97, dtype: object

>  <hbond:PRO:107>  (98) 
hbond:PRO:107    0
hbond:PRO:107    0
Name: 97, dtype: object

>  <halogenbond:PRO:107>  (98) 
halogenbond:PRO:107    0
halogenbond:PRO:107    0
Name: 97, dtype: object

>  <hbond:GLY:108>  (98) 
hbond:GLY:108    0
hbond:GLY:108    0
Name: 97, dtype: object

>  <halogenbond:GLY:108>  (98) 
halogenbond:GLY:108    0
halogenbond:GLY:108    0
Name: 97, dtype: object

>  <hbond:ASP:109>  (98) 
hbond:ASP:109    0
hbond:ASP:109    0
Name: 97, dtype: object

>  <hydroph_interaction:ASP:109>  (98) 
hydroph_interaction:ASP:109    0
hydroph_interaction:ASP:109    0
Name: 97, dtype: object

>  <saltbridge:ASP:109>  (98) 
saltbridge:ASP:109    0
saltbridge:ASP:109    0
Name: 97, dtype: object

>  <hbond:CYS:110>  (98) 
hbond:CYS:110    0
hbond:CYS:110    0
Name: 97, dtype: object

>  <halogenbond:CYS:110>  (98) 
halogenbond:CYS:110    0
halogenbond:CYS:110    0
Name: 97, dtype: object

>  <hbond:GLY:111>  (98) 
hbond:GLY:111    0
hbond:GLY:111    0
Name: 97, dtype: object

>  <hbond:GLY:112>  (98) 
hbond:GLY:112    0
hbond:GLY:112    0
Name: 97, dtype: object

>  <hbond:ILE:113>  (98) 
hbond:ILE:113    0
hbond:ILE:113    0
Name: 97, dtype: object

>  <hydroph_interaction:LEU:114>  (98) 
hydroph_interaction:LEU:114    0
hydroph_interaction:LEU:114    0
Name: 97, dtype: object

>  <hbond:LEU:114>  (98) 
hbond:LEU:114    0
hbond:LEU:114    0
Name: 97, dtype: object

>  <hydroph_interaction:ILE:123>  (98) 
hydroph_interaction:ILE:123    0
hydroph_interaction:ILE:123    0
Name: 97, dtype: object

>  <hbond:ILE:123>  (98) 
hbond:ILE:123    0
hbond:ILE:123    0
Name: 97, dtype: object

>  <hydroph_interaction:VAL:124>  (98) 
hydroph_interaction:VAL:124    0
hydroph_interaction:VAL:124    0
Name: 97, dtype: object

>  <hbond:VAL:124>  (98) 
hbond:VAL:124    0
hbond:VAL:124    0
Name: 97, dtype: object

>  <halogenbond:VAL:124>  (98) 
halogenbond:VAL:124    0
halogenbond:VAL:124    0
Name: 97, dtype: object

>  <hbond:SER:125>  (98) 
hbond:SER:125    0
hbond:SER:125    0
Name: 97, dtype: object

>  <halogenbond:SER:125>  (98) 
halogenbond:SER:125    0
halogenbond:SER:125    0
Name: 97, dtype: object

>  <hydroph_interaction:THR:126>  (98) 
hydroph_interaction:THR:126    0
hydroph_interaction:THR:126    0
Name: 97, dtype: object

>  <hbond:THR:126>  (98) 
hbond:THR:126    0
hbond:THR:126    0
Name: 97, dtype: object

>  <halogenbond:THR:126>  (98) 
halogenbond:THR:126    0
halogenbond:THR:126    0
Name: 97, dtype: object

>  <hbond:GLY:127>  (98) 
hbond:GLY:127    0
hbond:GLY:127    0
Name: 97, dtype: object

>  <halogenbond:GLY:127>  (98) 
halogenbond:GLY:127    0
halogenbond:GLY:127    0
Name: 97, dtype: object

>  <hydroph_interaction:GLY:127>  (98) 
hydroph_interaction:GLY:127    0
hydroph_interaction:GLY:127    0
Name: 97, dtype: object

>  <hbond:GLY:128>  (98) 
hbond:GLY:128    0
hbond:GLY:128    0
Name: 97, dtype: object

>  <halogenbond:GLY:128>  (98) 
halogenbond:GLY:128    0
halogenbond:GLY:128    0
Name: 97, dtype: object

>  <hydroph_interaction:GLY:128>  (98) 
hydroph_interaction:GLY:128    0
hydroph_interaction:GLY:128    0
Name: 97, dtype: object

>  <hbond:ASN:129>  (98) 
hbond:ASN:129    0
hbond:ASN:129    0
Name: 97, dtype: object

>  <hydroph_interaction:ASN:129>  (98) 
hydroph_interaction:ASN:129    0
hydroph_interaction:ASN:129    0
Name: 97, dtype: object

>  <halogenbond:ASN:129>  (98) 
halogenbond:ASN:129    1
halogenbond:ASN:129    1
Name: 97, dtype: object

>  <hbond:GLY:130>  (98) 
hbond:GLY:130    0
hbond:GLY:130    0
Name: 97, dtype: object

>  <hydroph_interaction:LEU:131>  (98) 
hydroph_interaction:LEU:131    1
hydroph_interaction:LEU:131    1
Name: 97, dtype: object

>  <hbond:LEU:131>  (98) 
hbond:LEU:131    0
hbond:LEU:131    0
Name: 97, dtype: object

>  <halogenbond:LEU:131>  (98) 
halogenbond:LEU:131    0
halogenbond:LEU:131    0
Name: 97, dtype: object

>  <hydroph_interaction:VAL:132>  (98) 
hydroph_interaction:VAL:132    0
hydroph_interaction:VAL:132    0
Name: 97, dtype: object

>  <hbond:VAL:132>  (98) 
hbond:VAL:132    0
hbond:VAL:132    0
Name: 97, dtype: object

>  <hbond:GLY:133>  (98) 
hbond:GLY:133    0
hbond:GLY:133    0
Name: 97, dtype: object

>  <halogenbond:GLY:133>  (98) 
halogenbond:GLY:133    0
halogenbond:GLY:133    0
Name: 97, dtype: object

>  <hydroph_interaction:PHE:134>  (98) 
hydroph_interaction:PHE:134    0
hydroph_interaction:PHE:134    0
Name: 97, dtype: object

>  <hbond:PHE:134>  (98) 
hbond:PHE:134    0
hbond:PHE:134    0
Name: 97, dtype: object

>  <pistack:PHE:134>  (98) 
pistack:PHE:134    0
pistack:PHE:134    0
Name: 97, dtype: object

>  <pication:PHE:134>  (98) 
pication:PHE:134    0
pication:PHE:134    0
Name: 97, dtype: object

>  <hydroph_interaction:ALA:135>  (98) 
hydroph_interaction:ALA:135    0
hydroph_interaction:ALA:135    0
Name: 97, dtype: object

>  <hbond:ALA:135>  (98) 
hbond:ALA:135    0
hbond:ALA:135    0
Name: 97, dtype: object

$$$$
Z1816671835
     RDKit          3D

 36 36  0  0  0  0  0  0  0  0999 V2000
   -3.3050   13.0040   20.6290 C   0  0  0  0  0  0  0  0  0  0  0  0
   -1.9540   12.8890   19.9350 C   0  0  0  0  0  0  0  0  0  0  0  0
   -1.9260   12.1750   18.7370 C   0  0  0  0  0  0  0  0  0  0  0  0
   -0.7080   12.0230   18.0730 C   0  0  0  0  0  0  0  0  0  0  0  0
    0.5250   12.5860   18.5970 C   0  0  0  0  0  0  0  0  0  0  0  0
    1.7360   12.4660   18.0850 N   0  0  0  0  0  0  0  0  0  0  0  0
    2.4990   11.4950   18.7340 C   0  0  0  0  0  0  0  0  0  0  0  0
    2.2730   10.9580   19.7920 O   0  0  0  0  0  0  0  0  0  0  0  0
    3.6860   11.1260   18.0720 C   0  0  1  0  0  0  0  0  0  0  0  0
    3.9940   12.3150   17.1980 C   0  0  0  0  0  0  0  0  0  0  0  0
    4.6410   11.0660   19.1090 O   0  0  0  0  0  0  0  0  0  0  0  0
    0.4170   13.3140   19.7580 C   0  0  0  0  0  0  0  0  0  0  0  0
    1.6300   13.9650   20.2820 C   0  0  0  0  0  0  0  0  0  0  0  0
    1.7910   15.2000   19.8110 O   0  0  0  0  0  0  0  0  0  0  0  0
    2.4090   13.2930   21.1370 N   0  0  0  0  0  0  0  0  0  0  0  0
    1.8010   12.0870   21.5840 C   0  0  0  0  0  0  0  0  0  0  0  0
    2.9270   14.1150   22.1960 C   0  0  0  0  0  0  0  0  0  0  0  0
   -0.7940   13.4660   20.4410 C   0  0  0  0  0  0  0  0  0  0  0  0
   -3.5190   12.1200   21.2390 H   0  0  0  0  0  0  0  0  0  0  0  0
   -3.3370   13.9040   21.2560 H   0  0  0  0  0  0  0  0  0  0  0  0
   -4.0960   13.0930   19.8800 H   0  0  0  0  0  0  0  0  0  0  0  0
   -2.8450   11.7470   18.3510 H   0  0  0  0  0  0  0  0  0  0  0  0
   -0.7140   11.4530   17.1480 H   0  0  0  0  0  0  0  0  0  0  0  0
    1.9000   12.6430   17.0880 H   0  0  0  0  0  0  0  0  0  0  0  0
    3.7170   10.1450   17.6240 H   0  0  0  0  0  0  0  0  0  0  0  0
    3.4180   13.2140   17.4010 H   0  0  0  0  0  0  0  0  0  0  0  0
    3.7850   12.0500   16.1610 H   0  0  0  0  0  0  0  0  0  0  0  0
    5.0240   12.6150   17.2310 H   0  0  0  0  0  0  0  0  0  0  0  0
    4.1790   10.7150   19.9040 H   0  0  0  0  0  0  0  0  0  0  0  0
    1.4060   12.2820   22.5770 H   0  0  0  0  0  0  0  0  0  0  0  0
    2.5680   11.3120   21.6130 H   0  0  0  0  0  0  0  0  0  0  0  0
    0.9970   11.7230   20.9400 H   0  0  0  0  0  0  0  0  0  0  0  0
    3.8650   14.6080   21.9140 H   0  0  0  0  0  0  0  0  0  0  0  0
    3.0860   13.5240   23.0900 H   0  0  0  0  0  0  0  0  0  0  0  0
    2.1760   14.8620   22.4050 H   0  0  0  0  0  0  0  0  0  0  0  0
   -0.8240   14.0420   21.3650 H   0  0  0  0  0  0  0  0  0  0  0  0
  1  2  1  0
  2  3  2  0
  3  4  1  0
  4  5  2  0
  5  6  1  0
  6  7  1  0
  7  8  2  0
  7  9  1  0
  9 10  1  0
  9 11  1  0
  5 12  1  0
 12 13  1  0
 13 14  2  0
 13 15  1  0
 15 16  1  0
 15 17  1  0
 12 18  2  0
 18  2  1  0
  1 19  1  0
  1 20  1  0
  1 21  1  0
  3 22  1  0
  4 23  1  0
  6 24  1  0
  9 25  1  6
 10 26  1  0
 10 27  1  0
 10 28  1  0
 11 29  1  0
 16 30  1  0
 16 31  1  0
 16 32  1  0
 17 33  1  0
 17 34  1  0
 17 35  1  0
 18 36  1  0
A    1
 C1 
A    2
 C2 
A    3
 C3 
A    4
 C4 
A    5
 C5 
A    6
 N1 
A    7
 C6 
A    8
 O1 
A    9
 C7 
A   10
 C8 
A   11
 O2 
A   12
 C9 
A   13
 C10
A   14
 O3 
A   15
 N2 
A   16
 C11
A   17
 C12
A   18
 C13
A   19
 H1 
A   20
 H2 
A   21
 H3 
A   22
 H4 
A   23
 H5 
A   24
 H6 
A   25
 H7 
A   26
 H8 
A   27
 H9 
A   28
 H10
A   29
 H11
A   30
 H12
A   31
 H13
A   32
 H14
A   33
 H15
A   34
 H16
A   35
 H17
A   36
 H18
M  END
>  <ref_pdb>  (99) 
x0310_0A

>  <ref_mols>  (99) 
x0526_0A,x1080_0A

>  <original SMILES>  (99) 
Cc1ccc(NC(=O)[C@@H](C)O)c(C(=O)N(C)C)c1

>  <rationale>  (99) 
info hbond:T126+E85+G133+F83; hydroph_interaction:V84+L131+L98; 

>  <intxn_cluster>  (99) 
205

>  <intxn_cluster_rank>  (99) 
42

>  <N_interactions>  (99) 
7

>  <∆∆G>  (99) 
-8.27791

>  <$/mg>  (99) 
nan

>  <comRMSD>  (99) 
0.995118

>  <N_rotatable_bonds>  (99) 
8

>  <N_analogues_07>  (99) 
7

>  <deep_P1_sidechain>  (99) 
False

>  <farthest_distance_to_substrate>  (99) 
3.902448

>  <hbond:SER:7>  (99) 
hbond:SER:7    0
hbond:SER:7    0
Name: 98, dtype: object

>  <halogenbond:SER:7>  (99) 
halogenbond:SER:7    0
halogenbond:SER:7    0
Name: 98, dtype: object

>  <hbond:GLY:8>  (99) 
hbond:GLY:8    0
hbond:GLY:8    0
Name: 98, dtype: object

>  <hydroph_interaction:ASN:19>  (99) 
hydroph_interaction:ASN:19    0
hydroph_interaction:ASN:19    0
Name: 98, dtype: object

>  <hbond:ASN:19>  (99) 
hbond:ASN:19    0
hbond:ASN:19    0
Name: 98, dtype: object

>  <halogenbond:ASN:19>  (99) 
halogenbond:ASN:19    0
halogenbond:ASN:19    0
Name: 98, dtype: object

>  <hbond:ARG:20>  (99) 
hbond:ARG:20    0
hbond:ARG:20    0
Name: 98, dtype: object

>  <hydroph_interaction:ARG:20>  (99) 
hydroph_interaction:ARG:20    0
hydroph_interaction:ARG:20    0
Name: 98, dtype: object

>  <saltbridge:ARG:20>  (99) 
saltbridge:ARG:20    0
saltbridge:ARG:20    0
Name: 98, dtype: object

>  <halogenbond:ARG:20>  (99) 
halogenbond:ARG:20    0
halogenbond:ARG:20    0
Name: 98, dtype: object

>  <pication:ARG:20>  (99) 
pication:ARG:20    0
pication:ARG:20    0
Name: 98, dtype: object

>  <hbond:HIS:21>  (99) 
hbond:HIS:21    0
hbond:HIS:21    0
Name: 98, dtype: object

>  <hydroph_interaction:HIS:21>  (99) 
hydroph_interaction:HIS:21    0
hydroph_interaction:HIS:21    0
Name: 98, dtype: object

>  <saltbridge:HIS:21>  (99) 
saltbridge:HIS:21    0
saltbridge:HIS:21    0
Name: 98, dtype: object

>  <pistack:HIS:21>  (99) 
pistack:HIS:21    0
pistack:HIS:21    0
Name: 98, dtype: object

>  <pication:HIS:21>  (99) 
pication:HIS:21    0
pication:HIS:21    0
Name: 98, dtype: object

>  <halogenbond:HIS:21>  (99) 
halogenbond:HIS:21    0
halogenbond:HIS:21    0
Name: 98, dtype: object

>  <hydroph_interaction:LEU:22>  (99) 
hydroph_interaction:LEU:22    0
hydroph_interaction:LEU:22    0
Name: 98, dtype: object

>  <hbond:LEU:22>  (99) 
hbond:LEU:22    0
hbond:LEU:22    0
Name: 98, dtype: object

>  <hydroph_interaction:TRP:28>  (99) 
hydroph_interaction:TRP:28    0
hydroph_interaction:TRP:28    0
Name: 98, dtype: object

>  <hbond:SER:36>  (99) 
hbond:SER:36    0
hbond:SER:36    0
Name: 98, dtype: object

>  <halogenbond:SER:36>  (99) 
halogenbond:SER:36    0
halogenbond:SER:36    0
Name: 98, dtype: object

>  <hbond:ARG:38>  (99) 
hbond:ARG:38    0
hbond:ARG:38    0
Name: 98, dtype: object

>  <halogenbond:ARG:38>  (99) 
halogenbond:ARG:38    0
halogenbond:ARG:38    0
Name: 98, dtype: object

>  <hbond:ASP:39>  (99) 
hbond:ASP:39    0
hbond:ASP:39    0
Name: 98, dtype: object

>  <saltbridge:ASP:39>  (99) 
saltbridge:ASP:39    0
saltbridge:ASP:39    0
Name: 98, dtype: object

>  <hydroph_interaction:ASP:39>  (99) 
hydroph_interaction:ASP:39    0
hydroph_interaction:ASP:39    0
Name: 98, dtype: object

>  <halogenbond:ASP:39>  (99) 
halogenbond:ASP:39    0
halogenbond:ASP:39    0
Name: 98, dtype: object

>  <hydroph_interaction:LEU:40>  (99) 
hydroph_interaction:LEU:40    0
hydroph_interaction:LEU:40    0
Name: 98, dtype: object

>  <hydroph_interaction:TYR:63>  (99) 
hydroph_interaction:TYR:63    0
hydroph_interaction:TYR:63    0
Name: 98, dtype: object

>  <pistack:TYR:63>  (99) 
pistack:TYR:63    0
pistack:TYR:63    0
Name: 98, dtype: object

>  <hbond:TYR:63>  (99) 
hbond:TYR:63    0
hbond:TYR:63    0
Name: 98, dtype: object

>  <hbond:TYR:64>  (99) 
hbond:TYR:64    0
hbond:TYR:64    0
Name: 98, dtype: object

>  <halogenbond:TYR:64>  (99) 
halogenbond:TYR:64    0
halogenbond:TYR:64    0
Name: 98, dtype: object

>  <hydroph_interaction:TYR:64>  (99) 
hydroph_interaction:TYR:64    0
hydroph_interaction:TYR:64    0
Name: 98, dtype: object

>  <hbond:CYS:65>  (99) 
hbond:CYS:65    0
hbond:CYS:65    0
Name: 98, dtype: object

>  <halogenbond:CYS:65>  (99) 
halogenbond:CYS:65    0
halogenbond:CYS:65    0
Name: 98, dtype: object

>  <hbond:SER:66>  (99) 
hbond:SER:66    0
hbond:SER:66    0
Name: 98, dtype: object

>  <hbond:SER:67>  (99) 
hbond:SER:67    0
hbond:SER:67    0
Name: 98, dtype: object

>  <halogenbond:SER:67>  (99) 
halogenbond:SER:67    0
halogenbond:SER:67    0
Name: 98, dtype: object

>  <hydroph_interaction:ARG:68>  (99) 
hydroph_interaction:ARG:68    0
hydroph_interaction:ARG:68    0
Name: 98, dtype: object

>  <hbond:ARG:68>  (99) 
hbond:ARG:68    0
hbond:ARG:68    0
Name: 98, dtype: object

>  <saltbridge:ARG:68>  (99) 
saltbridge:ARG:68    0
saltbridge:ARG:68    0
Name: 98, dtype: object

>  <pication:ARG:68>  (99) 
pication:ARG:68    0
pication:ARG:68    0
Name: 98, dtype: object

>  <hydroph_interaction:TYR:72>  (99) 
hydroph_interaction:TYR:72    0
hydroph_interaction:TYR:72    0
Name: 98, dtype: object

>  <hydroph_interaction:VAL:74>  (99) 
hydroph_interaction:VAL:74    0
hydroph_interaction:VAL:74    0
Name: 98, dtype: object

>  <hydroph_interaction:PHE:76>  (99) 
hydroph_interaction:PHE:76    0
hydroph_interaction:PHE:76    0
Name: 98, dtype: object

>  <hbond:SER:77>  (99) 
hbond:SER:77    0
hbond:SER:77    0
Name: 98, dtype: object

>  <hbond:SER:80>  (99) 
hbond:SER:80    0
hbond:SER:80    0
Name: 98, dtype: object

>  <hbond:LEU:81>  (99) 
hbond:LEU:81    0
hbond:LEU:81    0
Name: 98, dtype: object

>  <halogenbond:LEU:81>  (99) 
halogenbond:LEU:81    0
halogenbond:LEU:81    0
Name: 98, dtype: object

>  <hydroph_interaction:LEU:81>  (99) 
hydroph_interaction:LEU:81    0
hydroph_interaction:LEU:81    0
Name: 98, dtype: object

>  <hydroph_interaction:ILE:82>  (99) 
hydroph_interaction:ILE:82    0
hydroph_interaction:ILE:82    0
Name: 98, dtype: object

>  <hbond:ILE:82>  (99) 
hbond:ILE:82    0
hbond:ILE:82    0
Name: 98, dtype: object

>  <hydroph_interaction:PHE:83>  (99) 
hydroph_interaction:PHE:83    0
hydroph_interaction:PHE:83    0
Name: 98, dtype: object

>  <hbond:PHE:83>  (99) 
hbond:PHE:83    1
hbond:PHE:83    1
Name: 98, dtype: object

>  <halogenbond:PHE:83>  (99) 
halogenbond:PHE:83    0
halogenbond:PHE:83    0
Name: 98, dtype: object

>  <pistack:PHE:83>  (99) 
pistack:PHE:83    0
pistack:PHE:83    0
Name: 98, dtype: object

>  <hydroph_interaction:VAL:84>  (99) 
hydroph_interaction:VAL:84    1
hydroph_interaction:VAL:84    1
Name: 98, dtype: object

>  <hbond:VAL:84>  (99) 
hbond:VAL:84    0
hbond:VAL:84    0
Name: 98, dtype: object

>  <halogenbond:VAL:84>  (99) 
halogenbond:VAL:84    0
halogenbond:VAL:84    0
Name: 98, dtype: object

>  <hydroph_interaction:GLU:85>  (99) 
hydroph_interaction:GLU:85    0
hydroph_interaction:GLU:85    0
Name: 98, dtype: object

>  <hbond:GLU:85>  (99) 
hbond:GLU:85    1
hbond:GLU:85    1
Name: 98, dtype: object

>  <saltbridge:GLU:85>  (99) 
saltbridge:GLU:85    0
saltbridge:GLU:85    0
Name: 98, dtype: object

>  <halogenbond:GLU:85>  (99) 
halogenbond:GLU:85    0
halogenbond:GLU:85    0
Name: 98, dtype: object

>  <hbond:ALA:86>  (99) 
hbond:ALA:86    0
hbond:ALA:86    0
Name: 98, dtype: object

>  <halogenbond:ALA:86>  (99) 
halogenbond:ALA:86    0
halogenbond:ALA:86    0
Name: 98, dtype: object

>  <hydroph_interaction:ALA:86>  (99) 
hydroph_interaction:ALA:86    0
hydroph_interaction:ALA:86    0
Name: 98, dtype: object

>  <hbond:SER:87>  (99) 
hbond:SER:87    0
hbond:SER:87    0
Name: 98, dtype: object

>  <halogenbond:SER:87>  (99) 
halogenbond:SER:87    0
halogenbond:SER:87    0
Name: 98, dtype: object

>  <hbond:GLU:88>  (99) 
hbond:GLU:88    0
hbond:GLU:88    0
Name: 98, dtype: object

>  <hydroph_interaction:GLU:88>  (99) 
hydroph_interaction:GLU:88    0
hydroph_interaction:GLU:88    0
Name: 98, dtype: object

>  <halogenbond:GLU:88>  (99) 
halogenbond:GLU:88    0
halogenbond:GLU:88    0
Name: 98, dtype: object

>  <saltbridge:GLU:88>  (99) 
saltbridge:GLU:88    0
saltbridge:GLU:88    0
Name: 98, dtype: object

>  <hydroph_interaction:TYR:89>  (99) 
hydroph_interaction:TYR:89    0
hydroph_interaction:TYR:89    0
Name: 98, dtype: object

>  <pistack:TYR:89>  (99) 
pistack:TYR:89    0
pistack:TYR:89    0
Name: 98, dtype: object

>  <hbond:TYR:89>  (99) 
hbond:TYR:89    0
hbond:TYR:89    0
Name: 98, dtype: object

>  <halogenbond:TYR:89>  (99) 
halogenbond:TYR:89    0
halogenbond:TYR:89    0
Name: 98, dtype: object

>  <hbond:TYR:90>  (99) 
hbond:TYR:90    0
hbond:TYR:90    0
Name: 98, dtype: object

>  <hydroph_interaction:TYR:90>  (99) 
hydroph_interaction:TYR:90    0
hydroph_interaction:TYR:90    0
Name: 98, dtype: object

>  <pistack:TYR:90>  (99) 
pistack:TYR:90    0
pistack:TYR:90    0
Name: 98, dtype: object

>  <halogenbond:TYR:90>  (99) 
halogenbond:TYR:90    0
halogenbond:TYR:90    0
Name: 98, dtype: object

>  <pication:TYR:90>  (99) 
pication:TYR:90    0
pication:TYR:90    0
Name: 98, dtype: object

>  <hydroph_interaction:PRO:91>  (99) 
hydroph_interaction:PRO:91    0
hydroph_interaction:PRO:91    0
Name: 98, dtype: object

>  <halogenbond:PRO:91>  (99) 
halogenbond:PRO:91    0
halogenbond:PRO:91    0
Name: 98, dtype: object

>  <hbond:PRO:91>  (99) 
hbond:PRO:91    0
hbond:PRO:91    0
Name: 98, dtype: object

>  <hydroph_interaction:ALA:92>  (99) 
hydroph_interaction:ALA:92    0
hydroph_interaction:ALA:92    0
Name: 98, dtype: object

>  <hbond:ARG:93>  (99) 
hbond:ARG:93    0
hbond:ARG:93    0
Name: 98, dtype: object

>  <pication:ARG:93>  (99) 
pication:ARG:93    0
pication:ARG:93    0
Name: 98, dtype: object

>  <saltbridge:ARG:93>  (99) 
saltbridge:ARG:93    0
saltbridge:ARG:93    0
Name: 98, dtype: object

>  <hydroph_interaction:ARG:93>  (99) 
hydroph_interaction:ARG:93    0
hydroph_interaction:ARG:93    0
Name: 98, dtype: object

>  <halogenbond:ARG:93>  (99) 
halogenbond:ARG:93    0
halogenbond:ARG:93    0
Name: 98, dtype: object

>  <hydroph_interaction:TYR:94>  (99) 
hydroph_interaction:TYR:94    0
hydroph_interaction:TYR:94    0
Name: 98, dtype: object

>  <hbond:TYR:94>  (99) 
hbond:TYR:94    0
hbond:TYR:94    0
Name: 98, dtype: object

>  <halogenbond:GLN:95>  (99) 
halogenbond:GLN:95    0
halogenbond:GLN:95    0
Name: 98, dtype: object

>  <hbond:GLN:95>  (99) 
hbond:GLN:95    0
hbond:GLN:95    0
Name: 98, dtype: object

>  <hydroph_interaction:GLN:95>  (99) 
hydroph_interaction:GLN:95    0
hydroph_interaction:GLN:95    0
Name: 98, dtype: object

>  <hbond:SER:96>  (99) 
hbond:SER:96    0
hbond:SER:96    0
Name: 98, dtype: object

>  <hydroph_interaction:LEU:98>  (99) 
hydroph_interaction:LEU:98    1
hydroph_interaction:LEU:98    1
Name: 98, dtype: object

>  <hbond:LEU:98>  (99) 
hbond:LEU:98    0
hbond:LEU:98    0
Name: 98, dtype: object

>  <hbond:MET:99>  (99) 
hbond:MET:99    0
hbond:MET:99    0
Name: 98, dtype: object

>  <hydroph_interaction:MET:99>  (99) 
hydroph_interaction:MET:99    0
hydroph_interaction:MET:99    0
Name: 98, dtype: object

>  <halogenbond:MET:99>  (99) 
halogenbond:MET:99    0
halogenbond:MET:99    0
Name: 98, dtype: object

>  <hydroph_interaction:LEU:100>  (99) 
hydroph_interaction:LEU:100    0
hydroph_interaction:LEU:100    0
Name: 98, dtype: object

>  <hbond:LEU:100>  (99) 
hbond:LEU:100    0
hbond:LEU:100    0
Name: 98, dtype: object

>  <hbond:ALA:101>  (99) 
hbond:ALA:101    0
hbond:ALA:101    0
Name: 98, dtype: object

>  <hydroph_interaction:ALA:101>  (99) 
hydroph_interaction:ALA:101    0
hydroph_interaction:ALA:101    0
Name: 98, dtype: object

>  <hydroph_interaction:VAL:102>  (99) 
hydroph_interaction:VAL:102    0
hydroph_interaction:VAL:102    0
Name: 98, dtype: object

>  <hbond:VAL:102>  (99) 
hbond:VAL:102    0
hbond:VAL:102    0
Name: 98, dtype: object

>  <hbond:GLY:103>  (99) 
hbond:GLY:103    0
hbond:GLY:103    0
Name: 98, dtype: object

>  <halogenbond:GLY:103>  (99) 
halogenbond:GLY:103    0
halogenbond:GLY:103    0
Name: 98, dtype: object

>  <hydroph_interaction:HIS:104>  (99) 
hydroph_interaction:HIS:104    0
hydroph_interaction:HIS:104    0
Name: 98, dtype: object

>  <hbond:HIS:104>  (99) 
hbond:HIS:104    0
hbond:HIS:104    0
Name: 98, dtype: object

>  <saltbridge:HIS:104>  (99) 
saltbridge:HIS:104    0
saltbridge:HIS:104    0
Name: 98, dtype: object

>  <pication:HIS:104>  (99) 
pication:HIS:104    0
pication:HIS:104    0
Name: 98, dtype: object

>  <pistack:HIS:104>  (99) 
pistack:HIS:104    0
pistack:HIS:104    0
Name: 98, dtype: object

>  <halogenbond:HIS:104>  (99) 
halogenbond:HIS:104    0
halogenbond:HIS:104    0
Name: 98, dtype: object

>  <hbond:SER:105>  (99) 
hbond:SER:105    0
hbond:SER:105    0
Name: 98, dtype: object

>  <halogenbond:SER:105>  (99) 
halogenbond:SER:105    0
halogenbond:SER:105    0
Name: 98, dtype: object

>  <hbond:GLU:106>  (99) 
hbond:GLU:106    0
hbond:GLU:106    0
Name: 98, dtype: object

>  <hydroph_interaction:GLU:106>  (99) 
hydroph_interaction:GLU:106    0
hydroph_interaction:GLU:106    0
Name: 98, dtype: object

>  <saltbridge:GLU:106>  (99) 
saltbridge:GLU:106    0
saltbridge:GLU:106    0
Name: 98, dtype: object

>  <halogenbond:GLU:106>  (99) 
halogenbond:GLU:106    0
halogenbond:GLU:106    0
Name: 98, dtype: object

>  <hydroph_interaction:PRO:107>  (99) 
hydroph_interaction:PRO:107    0
hydroph_interaction:PRO:107    0
Name: 98, dtype: object

>  <hbond:PRO:107>  (99) 
hbond:PRO:107    0
hbond:PRO:107    0
Name: 98, dtype: object

>  <halogenbond:PRO:107>  (99) 
halogenbond:PRO:107    0
halogenbond:PRO:107    0
Name: 98, dtype: object

>  <hbond:GLY:108>  (99) 
hbond:GLY:108    0
hbond:GLY:108    0
Name: 98, dtype: object

>  <halogenbond:GLY:108>  (99) 
halogenbond:GLY:108    0
halogenbond:GLY:108    0
Name: 98, dtype: object

>  <hbond:ASP:109>  (99) 
hbond:ASP:109    0
hbond:ASP:109    0
Name: 98, dtype: object

>  <hydroph_interaction:ASP:109>  (99) 
hydroph_interaction:ASP:109    0
hydroph_interaction:ASP:109    0
Name: 98, dtype: object

>  <saltbridge:ASP:109>  (99) 
saltbridge:ASP:109    0
saltbridge:ASP:109    0
Name: 98, dtype: object

>  <hbond:CYS:110>  (99) 
hbond:CYS:110    0
hbond:CYS:110    0
Name: 98, dtype: object

>  <halogenbond:CYS:110>  (99) 
halogenbond:CYS:110    0
halogenbond:CYS:110    0
Name: 98, dtype: object

>  <hbond:GLY:111>  (99) 
hbond:GLY:111    0
hbond:GLY:111    0
Name: 98, dtype: object

>  <hbond:GLY:112>  (99) 
hbond:GLY:112    0
hbond:GLY:112    0
Name: 98, dtype: object

>  <hbond:ILE:113>  (99) 
hbond:ILE:113    0
hbond:ILE:113    0
Name: 98, dtype: object

>  <hydroph_interaction:LEU:114>  (99) 
hydroph_interaction:LEU:114    0
hydroph_interaction:LEU:114    0
Name: 98, dtype: object

>  <hbond:LEU:114>  (99) 
hbond:LEU:114    0
hbond:LEU:114    0
Name: 98, dtype: object

>  <hydroph_interaction:ILE:123>  (99) 
hydroph_interaction:ILE:123    0
hydroph_interaction:ILE:123    0
Name: 98, dtype: object

>  <hbond:ILE:123>  (99) 
hbond:ILE:123    0
hbond:ILE:123    0
Name: 98, dtype: object

>  <hydroph_interaction:VAL:124>  (99) 
hydroph_interaction:VAL:124    0
hydroph_interaction:VAL:124    0
Name: 98, dtype: object

>  <hbond:VAL:124>  (99) 
hbond:VAL:124    0
hbond:VAL:124    0
Name: 98, dtype: object

>  <halogenbond:VAL:124>  (99) 
halogenbond:VAL:124    0
halogenbond:VAL:124    0
Name: 98, dtype: object

>  <hbond:SER:125>  (99) 
hbond:SER:125    0
hbond:SER:125    0
Name: 98, dtype: object

>  <halogenbond:SER:125>  (99) 
halogenbond:SER:125    0
halogenbond:SER:125    0
Name: 98, dtype: object

>  <hydroph_interaction:THR:126>  (99) 
hydroph_interaction:THR:126    0
hydroph_interaction:THR:126    0
Name: 98, dtype: object

>  <hbond:THR:126>  (99) 
hbond:THR:126    1
hbond:THR:126    1
Name: 98, dtype: object

>  <halogenbond:THR:126>  (99) 
halogenbond:THR:126    0
halogenbond:THR:126    0
Name: 98, dtype: object

>  <hbond:GLY:127>  (99) 
hbond:GLY:127    0
hbond:GLY:127    0
Name: 98, dtype: object

>  <halogenbond:GLY:127>  (99) 
halogenbond:GLY:127    0
halogenbond:GLY:127    0
Name: 98, dtype: object

>  <hydroph_interaction:GLY:127>  (99) 
hydroph_interaction:GLY:127    0
hydroph_interaction:GLY:127    0
Name: 98, dtype: object

>  <hbond:GLY:128>  (99) 
hbond:GLY:128    0
hbond:GLY:128    0
Name: 98, dtype: object

>  <halogenbond:GLY:128>  (99) 
halogenbond:GLY:128    0
halogenbond:GLY:128    0
Name: 98, dtype: object

>  <hydroph_interaction:GLY:128>  (99) 
hydroph_interaction:GLY:128    0
hydroph_interaction:GLY:128    0
Name: 98, dtype: object

>  <hbond:ASN:129>  (99) 
hbond:ASN:129    0
hbond:ASN:129    0
Name: 98, dtype: object

>  <hydroph_interaction:ASN:129>  (99) 
hydroph_interaction:ASN:129    0
hydroph_interaction:ASN:129    0
Name: 98, dtype: object

>  <halogenbond:ASN:129>  (99) 
halogenbond:ASN:129    0
halogenbond:ASN:129    0
Name: 98, dtype: object

>  <hbond:GLY:130>  (99) 
hbond:GLY:130    0
hbond:GLY:130    0
Name: 98, dtype: object

>  <hydroph_interaction:LEU:131>  (99) 
hydroph_interaction:LEU:131    1
hydroph_interaction:LEU:131    1
Name: 98, dtype: object

>  <hbond:LEU:131>  (99) 
hbond:LEU:131    0
hbond:LEU:131    0
Name: 98, dtype: object

>  <halogenbond:LEU:131>  (99) 
halogenbond:LEU:131    0
halogenbond:LEU:131    0
Name: 98, dtype: object

>  <hydroph_interaction:VAL:132>  (99) 
hydroph_interaction:VAL:132    0
hydroph_interaction:VAL:132    0
Name: 98, dtype: object

>  <hbond:VAL:132>  (99) 
hbond:VAL:132    0
hbond:VAL:132    0
Name: 98, dtype: object

>  <hbond:GLY:133>  (99) 
hbond:GLY:133    1
hbond:GLY:133    1
Name: 98, dtype: object

>  <halogenbond:GLY:133>  (99) 
halogenbond:GLY:133    0
halogenbond:GLY:133    0
Name: 98, dtype: object

>  <hydroph_interaction:PHE:134>  (99) 
hydroph_interaction:PHE:134    0
hydroph_interaction:PHE:134    0
Name: 98, dtype: object

>  <hbond:PHE:134>  (99) 
hbond:PHE:134    0
hbond:PHE:134    0
Name: 98, dtype: object

>  <pistack:PHE:134>  (99) 
pistack:PHE:134    0
pistack:PHE:134    0
Name: 98, dtype: object

>  <pication:PHE:134>  (99) 
pication:PHE:134    0
pication:PHE:134    0
Name: 98, dtype: object

>  <hydroph_interaction:ALA:135>  (99) 
hydroph_interaction:ALA:135    0
hydroph_interaction:ALA:135    0
Name: 98, dtype: object

>  <hbond:ALA:135>  (99) 
hbond:ALA:135    0
hbond:ALA:135    0
Name: 98, dtype: object

$$$$
Z2705653107
     RDKit          3D

 25 25  0  0  0  0  0  0  0  0999 V2000
    1.8070   13.9920   22.5840 C   0  0  0  0  0  0  0  0  0  0  0  0
    0.8380   14.7260   21.6890 C   0  0  0  0  0  0  0  0  0  0  0  0
   -0.2820   15.0640   22.0780 O   0  0  0  0  0  0  0  0  0  0  0  0
    1.3540   14.9490   20.4520 O   0  0  0  0  0  0  0  0  0  0  0  0
    0.7950   14.0370   19.5020 C   0  0  0  0  0  0  0  0  0  0  0  0
    1.7880   12.8900   19.4430 C   0  0  0  0  0  0  0  0  0  0  0  0
    2.6270   12.8720   18.1900 C   0  0  0  0  0  0  0  0  0  0  0  0
    3.6410   11.7290   18.1260 C   0  0  0  0  0  0  0  0  0  0  0  0
    4.3670   11.8260   16.9080 C   0  0  0  0  0  0  0  0  0  0  0  0
    3.6570   12.3950   15.9590 O   0  0  0  0  0  0  0  0  0  0  0  0
    3.8410   10.7560   19.0820 C   0  0  0  0  0  0  0  0  0  0  0  0
    2.9710   10.8310   20.3070 C   0  0  0  0  0  0  0  0  0  0  0  0
    1.9310   11.9470   20.4390 C   0  0  0  0  0  0  0  0  0  0  0  0
    1.1580   11.9980   21.5430 F   0  0  0  0  0  0  0  0  0  0  0  0
    2.2360   14.6950   23.3050 H   0  0  0  0  0  0  0  0  0  0  0  0
    1.2760   13.2180   23.1440 H   0  0  0  0  0  0  0  0  0  0  0  0
    2.6320   13.5660   22.0120 H   0  0  0  0  0  0  0  0  0  0  0  0
   -0.1550   13.6750   19.9100 H   0  0  0  0  0  0  0  0  0  0  0  0
    0.5950   14.5760   18.5690 H   0  0  0  0  0  0  0  0  0  0  0  0
    2.5250   13.6100   17.3950 H   0  0  0  0  0  0  0  0  0  0  0  0
    4.7250   10.8460   16.5770 H   0  0  0  0  0  0  0  0  0  0  0  0
    5.2020   12.4750   17.1160 H   0  0  0  0  0  0  0  0  0  0  0  0
    3.0600   11.7230   15.6080 H   0  0  0  0  0  0  0  0  0  0  0  0
    4.5810    9.9510   19.0020 H   0  0  0  0  0  0  0  0  0  0  0  0
    3.0780   10.0890   21.1000 H   0  0  0  0  0  0  0  0  0  0  0  0
  1  2  1  0
  2  3  2  0
  2  4  1  0
  4  5  1  0
  5  6  1  0
  6  7  2  0
  7  8  1  0
  8  9  1  0
  9 10  1  0
  8 11  2  0
 11 12  1  0
 12 13  2  0
 13 14  1  0
 13  6  1  0
  1 15  1  0
  1 16  1  0
  1 17  1  0
  5 18  1  0
  5 19  1  0
  7 20  1  0
  9 21  1  0
  9 22  1  0
 10 23  1  0
 11 24  1  0
 12 25  1  0
A    1
 C1 
A    2
 C2 
A    3
 O1 
A    4
 O2 
A    5
 C3 
A    6
 C4 
A    7
 C5 
A    8
 C6 
A    9
 C7 
A   10
 O3 
A   11
 C8 
A   12
 C9 
A   13
 C10
A   14
 F1 
A   15
 H1 
A   16
 H2 
A   17
 H3 
A   18
 H4 
A   19
 H5 
A   20
 H6 
A   21
 H7 
A   22
 H8 
A   23
 H9 
A   24
 H10
A   25
 H11
M  END
>  <ref_pdb>  (100) 
x0310_0A

>  <ref_mols>  (100) 
x0451_0A,x0473_0A

>  <original SMILES>  (100) 
CC(=O)OCc1cc(CO)ccc1F

>  <rationale>  (100) 
info halogenbond:N129; hbond:T126; hydroph_interaction:E85+L100+L131; 

>  <intxn_cluster>  (100) 
205

>  <intxn_cluster_rank>  (100) 
49

>  <N_interactions>  (100) 
5

>  <∆∆G>  (100) 
-5.256634

>  <$/mg>  (100) 
nan

>  <comRMSD>  (100) 
0.741543

>  <N_rotatable_bonds>  (100) 
5

>  <N_analogues_07>  (100) 
0

>  <deep_P1_sidechain>  (100) 
False

>  <farthest_distance_to_substrate>  (100) 
4.954024

>  <hbond:SER:7>  (100) 
hbond:SER:7    0
hbond:SER:7    0
Name: 99, dtype: object

>  <halogenbond:SER:7>  (100) 
halogenbond:SER:7    0
halogenbond:SER:7    0
Name: 99, dtype: object

>  <hbond:GLY:8>  (100) 
hbond:GLY:8    0
hbond:GLY:8    0
Name: 99, dtype: object

>  <hydroph_interaction:ASN:19>  (100) 
hydroph_interaction:ASN:19    0
hydroph_interaction:ASN:19    0
Name: 99, dtype: object

>  <hbond:ASN:19>  (100) 
hbond:ASN:19    0
hbond:ASN:19    0
Name: 99, dtype: object

>  <halogenbond:ASN:19>  (100) 
halogenbond:ASN:19    0
halogenbond:ASN:19    0
Name: 99, dtype: object

>  <hbond:ARG:20>  (100) 
hbond:ARG:20    0
hbond:ARG:20    0
Name: 99, dtype: object

>  <hydroph_interaction:ARG:20>  (100) 
hydroph_interaction:ARG:20    0
hydroph_interaction:ARG:20    0
Name: 99, dtype: object

>  <saltbridge:ARG:20>  (100) 
saltbridge:ARG:20    0
saltbridge:ARG:20    0
Name: 99, dtype: object

>  <halogenbond:ARG:20>  (100) 
halogenbond:ARG:20    0
halogenbond:ARG:20    0
Name: 99, dtype: object

>  <pication:ARG:20>  (100) 
pication:ARG:20    0
pication:ARG:20    0
Name: 99, dtype: object

>  <hbond:HIS:21>  (100) 
hbond:HIS:21    0
hbond:HIS:21    0
Name: 99, dtype: object

>  <hydroph_interaction:HIS:21>  (100) 
hydroph_interaction:HIS:21    0
hydroph_interaction:HIS:21    0
Name: 99, dtype: object

>  <saltbridge:HIS:21>  (100) 
saltbridge:HIS:21    0
saltbridge:HIS:21    0
Name: 99, dtype: object

>  <pistack:HIS:21>  (100) 
pistack:HIS:21    0
pistack:HIS:21    0
Name: 99, dtype: object

>  <pication:HIS:21>  (100) 
pication:HIS:21    0
pication:HIS:21    0
Name: 99, dtype: object

>  <halogenbond:HIS:21>  (100) 
halogenbond:HIS:21    0
halogenbond:HIS:21    0
Name: 99, dtype: object

>  <hydroph_interaction:LEU:22>  (100) 
hydroph_interaction:LEU:22    0
hydroph_interaction:LEU:22    0
Name: 99, dtype: object

>  <hbond:LEU:22>  (100) 
hbond:LEU:22    0
hbond:LEU:22    0
Name: 99, dtype: object

>  <hydroph_interaction:TRP:28>  (100) 
hydroph_interaction:TRP:28    0
hydroph_interaction:TRP:28    0
Name: 99, dtype: object

>  <hbond:SER:36>  (100) 
hbond:SER:36    0
hbond:SER:36    0
Name: 99, dtype: object

>  <halogenbond:SER:36>  (100) 
halogenbond:SER:36    0
halogenbond:SER:36    0
Name: 99, dtype: object

>  <hbond:ARG:38>  (100) 
hbond:ARG:38    0
hbond:ARG:38    0
Name: 99, dtype: object

>  <halogenbond:ARG:38>  (100) 
halogenbond:ARG:38    0
halogenbond:ARG:38    0
Name: 99, dtype: object

>  <hbond:ASP:39>  (100) 
hbond:ASP:39    0
hbond:ASP:39    0
Name: 99, dtype: object

>  <saltbridge:ASP:39>  (100) 
saltbridge:ASP:39    0
saltbridge:ASP:39    0
Name: 99, dtype: object

>  <hydroph_interaction:ASP:39>  (100) 
hydroph_interaction:ASP:39    0
hydroph_interaction:ASP:39    0
Name: 99, dtype: object

>  <halogenbond:ASP:39>  (100) 
halogenbond:ASP:39    0
halogenbond:ASP:39    0
Name: 99, dtype: object

>  <hydroph_interaction:LEU:40>  (100) 
hydroph_interaction:LEU:40    0
hydroph_interaction:LEU:40    0
Name: 99, dtype: object

>  <hydroph_interaction:TYR:63>  (100) 
hydroph_interaction:TYR:63    0
hydroph_interaction:TYR:63    0
Name: 99, dtype: object

>  <pistack:TYR:63>  (100) 
pistack:TYR:63    0
pistack:TYR:63    0
Name: 99, dtype: object

>  <hbond:TYR:63>  (100) 
hbond:TYR:63    0
hbond:TYR:63    0
Name: 99, dtype: object

>  <hbond:TYR:64>  (100) 
hbond:TYR:64    0
hbond:TYR:64    0
Name: 99, dtype: object

>  <halogenbond:TYR:64>  (100) 
halogenbond:TYR:64    0
halogenbond:TYR:64    0
Name: 99, dtype: object

>  <hydroph_interaction:TYR:64>  (100) 
hydroph_interaction:TYR:64    0
hydroph_interaction:TYR:64    0
Name: 99, dtype: object

>  <hbond:CYS:65>  (100) 
hbond:CYS:65    0
hbond:CYS:65    0
Name: 99, dtype: object

>  <halogenbond:CYS:65>  (100) 
halogenbond:CYS:65    0
halogenbond:CYS:65    0
Name: 99, dtype: object

>  <hbond:SER:66>  (100) 
hbond:SER:66    0
hbond:SER:66    0
Name: 99, dtype: object

>  <hbond:SER:67>  (100) 
hbond:SER:67    0
hbond:SER:67    0
Name: 99, dtype: object

>  <halogenbond:SER:67>  (100) 
halogenbond:SER:67    0
halogenbond:SER:67    0
Name: 99, dtype: object

>  <hydroph_interaction:ARG:68>  (100) 
hydroph_interaction:ARG:68    0
hydroph_interaction:ARG:68    0
Name: 99, dtype: object

>  <hbond:ARG:68>  (100) 
hbond:ARG:68    0
hbond:ARG:68    0
Name: 99, dtype: object

>  <saltbridge:ARG:68>  (100) 
saltbridge:ARG:68    0
saltbridge:ARG:68    0
Name: 99, dtype: object

>  <pication:ARG:68>  (100) 
pication:ARG:68    0
pication:ARG:68    0
Name: 99, dtype: object

>  <hydroph_interaction:TYR:72>  (100) 
hydroph_interaction:TYR:72    0
hydroph_interaction:TYR:72    0
Name: 99, dtype: object

>  <hydroph_interaction:VAL:74>  (100) 
hydroph_interaction:VAL:74    0
hydroph_interaction:VAL:74    0
Name: 99, dtype: object

>  <hydroph_interaction:PHE:76>  (100) 
hydroph_interaction:PHE:76    0
hydroph_interaction:PHE:76    0
Name: 99, dtype: object

>  <hbond:SER:77>  (100) 
hbond:SER:77    0
hbond:SER:77    0
Name: 99, dtype: object

>  <hbond:SER:80>  (100) 
hbond:SER:80    0
hbond:SER:80    0
Name: 99, dtype: object

>  <hbond:LEU:81>  (100) 
hbond:LEU:81    0
hbond:LEU:81    0
Name: 99, dtype: object

>  <halogenbond:LEU:81>  (100) 
halogenbond:LEU:81    0
halogenbond:LEU:81    0
Name: 99, dtype: object

>  <hydroph_interaction:LEU:81>  (100) 
hydroph_interaction:LEU:81    0
hydroph_interaction:LEU:81    0
Name: 99, dtype: object

>  <hydroph_interaction:ILE:82>  (100) 
hydroph_interaction:ILE:82    0
hydroph_interaction:ILE:82    0
Name: 99, dtype: object

>  <hbond:ILE:82>  (100) 
hbond:ILE:82    0
hbond:ILE:82    0
Name: 99, dtype: object

>  <hydroph_interaction:PHE:83>  (100) 
hydroph_interaction:PHE:83    0
hydroph_interaction:PHE:83    0
Name: 99, dtype: object

>  <hbond:PHE:83>  (100) 
hbond:PHE:83    0
hbond:PHE:83    0
Name: 99, dtype: object

>  <halogenbond:PHE:83>  (100) 
halogenbond:PHE:83    0
halogenbond:PHE:83    0
Name: 99, dtype: object

>  <pistack:PHE:83>  (100) 
pistack:PHE:83    0
pistack:PHE:83    0
Name: 99, dtype: object

>  <hydroph_interaction:VAL:84>  (100) 
hydroph_interaction:VAL:84    0
hydroph_interaction:VAL:84    0
Name: 99, dtype: object

>  <hbond:VAL:84>  (100) 
hbond:VAL:84    0
hbond:VAL:84    0
Name: 99, dtype: object

>  <halogenbond:VAL:84>  (100) 
halogenbond:VAL:84    0
halogenbond:VAL:84    0
Name: 99, dtype: object

>  <hydroph_interaction:GLU:85>  (100) 
hydroph_interaction:GLU:85    1
hydroph_interaction:GLU:85    1
Name: 99, dtype: object

>  <hbond:GLU:85>  (100) 
hbond:GLU:85    0
hbond:GLU:85    0
Name: 99, dtype: object

>  <saltbridge:GLU:85>  (100) 
saltbridge:GLU:85    0
saltbridge:GLU:85    0
Name: 99, dtype: object

>  <halogenbond:GLU:85>  (100) 
halogenbond:GLU:85    0
halogenbond:GLU:85    0
Name: 99, dtype: object

>  <hbond:ALA:86>  (100) 
hbond:ALA:86    0
hbond:ALA:86    0
Name: 99, dtype: object

>  <halogenbond:ALA:86>  (100) 
halogenbond:ALA:86    0
halogenbond:ALA:86    0
Name: 99, dtype: object

>  <hydroph_interaction:ALA:86>  (100) 
hydroph_interaction:ALA:86    0
hydroph_interaction:ALA:86    0
Name: 99, dtype: object

>  <hbond:SER:87>  (100) 
hbond:SER:87    0
hbond:SER:87    0
Name: 99, dtype: object

>  <halogenbond:SER:87>  (100) 
halogenbond:SER:87    0
halogenbond:SER:87    0
Name: 99, dtype: object

>  <hbond:GLU:88>  (100) 
hbond:GLU:88    0
hbond:GLU:88    0
Name: 99, dtype: object

>  <hydroph_interaction:GLU:88>  (100) 
hydroph_interaction:GLU:88    0
hydroph_interaction:GLU:88    0
Name: 99, dtype: object

>  <halogenbond:GLU:88>  (100) 
halogenbond:GLU:88    0
halogenbond:GLU:88    0
Name: 99, dtype: object

>  <saltbridge:GLU:88>  (100) 
saltbridge:GLU:88    0
saltbridge:GLU:88    0
Name: 99, dtype: object

>  <hydroph_interaction:TYR:89>  (100) 
hydroph_interaction:TYR:89    0
hydroph_interaction:TYR:89    0
Name: 99, dtype: object

>  <pistack:TYR:89>  (100) 
pistack:TYR:89    0
pistack:TYR:89    0
Name: 99, dtype: object

>  <hbond:TYR:89>  (100) 
hbond:TYR:89    0
hbond:TYR:89    0
Name: 99, dtype: object

>  <halogenbond:TYR:89>  (100) 
halogenbond:TYR:89    0
halogenbond:TYR:89    0
Name: 99, dtype: object

>  <hbond:TYR:90>  (100) 
hbond:TYR:90    0
hbond:TYR:90    0
Name: 99, dtype: object

>  <hydroph_interaction:TYR:90>  (100) 
hydroph_interaction:TYR:90    0
hydroph_interaction:TYR:90    0
Name: 99, dtype: object

>  <pistack:TYR:90>  (100) 
pistack:TYR:90    0
pistack:TYR:90    0
Name: 99, dtype: object

>  <halogenbond:TYR:90>  (100) 
halogenbond:TYR:90    0
halogenbond:TYR:90    0
Name: 99, dtype: object

>  <pication:TYR:90>  (100) 
pication:TYR:90    0
pication:TYR:90    0
Name: 99, dtype: object

>  <hydroph_interaction:PRO:91>  (100) 
hydroph_interaction:PRO:91    0
hydroph_interaction:PRO:91    0
Name: 99, dtype: object

>  <halogenbond:PRO:91>  (100) 
halogenbond:PRO:91    0
halogenbond:PRO:91    0
Name: 99, dtype: object

>  <hbond:PRO:91>  (100) 
hbond:PRO:91    0
hbond:PRO:91    0
Name: 99, dtype: object

>  <hydroph_interaction:ALA:92>  (100) 
hydroph_interaction:ALA:92    0
hydroph_interaction:ALA:92    0
Name: 99, dtype: object

>  <hbond:ARG:93>  (100) 
hbond:ARG:93    0
hbond:ARG:93    0
Name: 99, dtype: object

>  <pication:ARG:93>  (100) 
pication:ARG:93    0
pication:ARG:93    0
Name: 99, dtype: object

>  <saltbridge:ARG:93>  (100) 
saltbridge:ARG:93    0
saltbridge:ARG:93    0
Name: 99, dtype: object

>  <hydroph_interaction:ARG:93>  (100) 
hydroph_interaction:ARG:93    0
hydroph_interaction:ARG:93    0
Name: 99, dtype: object

>  <halogenbond:ARG:93>  (100) 
halogenbond:ARG:93    0
halogenbond:ARG:93    0
Name: 99, dtype: object

>  <hydroph_interaction:TYR:94>  (100) 
hydroph_interaction:TYR:94    0
hydroph_interaction:TYR:94    0
Name: 99, dtype: object

>  <hbond:TYR:94>  (100) 
hbond:TYR:94    0
hbond:TYR:94    0
Name: 99, dtype: object

>  <halogenbond:GLN:95>  (100) 
halogenbond:GLN:95    0
halogenbond:GLN:95    0
Name: 99, dtype: object

>  <hbond:GLN:95>  (100) 
hbond:GLN:95    0
hbond:GLN:95    0
Name: 99, dtype: object

>  <hydroph_interaction:GLN:95>  (100) 
hydroph_interaction:GLN:95    0
hydroph_interaction:GLN:95    0
Name: 99, dtype: object

>  <hbond:SER:96>  (100) 
hbond:SER:96    0
hbond:SER:96    0
Name: 99, dtype: object

>  <hydroph_interaction:LEU:98>  (100) 
hydroph_interaction:LEU:98    0
hydroph_interaction:LEU:98    0
Name: 99, dtype: object

>  <hbond:LEU:98>  (100) 
hbond:LEU:98    0
hbond:LEU:98    0
Name: 99, dtype: object

>  <hbond:MET:99>  (100) 
hbond:MET:99    0
hbond:MET:99    0
Name: 99, dtype: object

>  <hydroph_interaction:MET:99>  (100) 
hydroph_interaction:MET:99    0
hydroph_interaction:MET:99    0
Name: 99, dtype: object

>  <halogenbond:MET:99>  (100) 
halogenbond:MET:99    0
halogenbond:MET:99    0
Name: 99, dtype: object

>  <hydroph_interaction:LEU:100>  (100) 
hydroph_interaction:LEU:100    1
hydroph_interaction:LEU:100    1
Name: 99, dtype: object

>  <hbond:LEU:100>  (100) 
hbond:LEU:100    0
hbond:LEU:100    0
Name: 99, dtype: object

>  <hbond:ALA:101>  (100) 
hbond:ALA:101    0
hbond:ALA:101    0
Name: 99, dtype: object

>  <hydroph_interaction:ALA:101>  (100) 
hydroph_interaction:ALA:101    0
hydroph_interaction:ALA:101    0
Name: 99, dtype: object

>  <hydroph_interaction:VAL:102>  (100) 
hydroph_interaction:VAL:102    0
hydroph_interaction:VAL:102    0
Name: 99, dtype: object

>  <hbond:VAL:102>  (100) 
hbond:VAL:102    0
hbond:VAL:102    0
Name: 99, dtype: object

>  <hbond:GLY:103>  (100) 
hbond:GLY:103    0
hbond:GLY:103    0
Name: 99, dtype: object

>  <halogenbond:GLY:103>  (100) 
halogenbond:GLY:103    0
halogenbond:GLY:103    0
Name: 99, dtype: object

>  <hydroph_interaction:HIS:104>  (100) 
hydroph_interaction:HIS:104    0
hydroph_interaction:HIS:104    0
Name: 99, dtype: object

>  <hbond:HIS:104>  (100) 
hbond:HIS:104    0
hbond:HIS:104    0
Name: 99, dtype: object

>  <saltbridge:HIS:104>  (100) 
saltbridge:HIS:104    0
saltbridge:HIS:104    0
Name: 99, dtype: object

>  <pication:HIS:104>  (100) 
pication:HIS:104    0
pication:HIS:104    0
Name: 99, dtype: object

>  <pistack:HIS:104>  (100) 
pistack:HIS:104    0
pistack:HIS:104    0
Name: 99, dtype: object

>  <halogenbond:HIS:104>  (100) 
halogenbond:HIS:104    0
halogenbond:HIS:104    0
Name: 99, dtype: object

>  <hbond:SER:105>  (100) 
hbond:SER:105    0
hbond:SER:105    0
Name: 99, dtype: object

>  <halogenbond:SER:105>  (100) 
halogenbond:SER:105    0
halogenbond:SER:105    0
Name: 99, dtype: object

>  <hbond:GLU:106>  (100) 
hbond:GLU:106    0
hbond:GLU:106    0
Name: 99, dtype: object

>  <hydroph_interaction:GLU:106>  (100) 
hydroph_interaction:GLU:106    0
hydroph_interaction:GLU:106    0
Name: 99, dtype: object

>  <saltbridge:GLU:106>  (100) 
saltbridge:GLU:106    0
saltbridge:GLU:106    0
Name: 99, dtype: object

>  <halogenbond:GLU:106>  (100) 
halogenbond:GLU:106    0
halogenbond:GLU:106    0
Name: 99, dtype: object

>  <hydroph_interaction:PRO:107>  (100) 
hydroph_interaction:PRO:107    0
hydroph_interaction:PRO:107    0
Name: 99, dtype: object

>  <hbond:PRO:107>  (100) 
hbond:PRO:107    0
hbond:PRO:107    0
Name: 99, dtype: object

>  <halogenbond:PRO:107>  (100) 
halogenbond:PRO:107    0
halogenbond:PRO:107    0
Name: 99, dtype: object

>  <hbond:GLY:108>  (100) 
hbond:GLY:108    0
hbond:GLY:108    0
Name: 99, dtype: object

>  <halogenbond:GLY:108>  (100) 
halogenbond:GLY:108    0
halogenbond:GLY:108    0
Name: 99, dtype: object

>  <hbond:ASP:109>  (100) 
hbond:ASP:109    0
hbond:ASP:109    0
Name: 99, dtype: object

>  <hydroph_interaction:ASP:109>  (100) 
hydroph_interaction:ASP:109    0
hydroph_interaction:ASP:109    0
Name: 99, dtype: object

>  <saltbridge:ASP:109>  (100) 
saltbridge:ASP:109    0
saltbridge:ASP:109    0
Name: 99, dtype: object

>  <hbond:CYS:110>  (100) 
hbond:CYS:110    0
hbond:CYS:110    0
Name: 99, dtype: object

>  <halogenbond:CYS:110>  (100) 
halogenbond:CYS:110    0
halogenbond:CYS:110    0
Name: 99, dtype: object

>  <hbond:GLY:111>  (100) 
hbond:GLY:111    0
hbond:GLY:111    0
Name: 99, dtype: object

>  <hbond:GLY:112>  (100) 
hbond:GLY:112    0
hbond:GLY:112    0
Name: 99, dtype: object

>  <hbond:ILE:113>  (100) 
hbond:ILE:113    0
hbond:ILE:113    0
Name: 99, dtype: object

>  <hydroph_interaction:LEU:114>  (100) 
hydroph_interaction:LEU:114    0
hydroph_interaction:LEU:114    0
Name: 99, dtype: object

>  <hbond:LEU:114>  (100) 
hbond:LEU:114    0
hbond:LEU:114    0
Name: 99, dtype: object

>  <hydroph_interaction:ILE:123>  (100) 
hydroph_interaction:ILE:123    0
hydroph_interaction:ILE:123    0
Name: 99, dtype: object

>  <hbond:ILE:123>  (100) 
hbond:ILE:123    0
hbond:ILE:123    0
Name: 99, dtype: object

>  <hydroph_interaction:VAL:124>  (100) 
hydroph_interaction:VAL:124    0
hydroph_interaction:VAL:124    0
Name: 99, dtype: object

>  <hbond:VAL:124>  (100) 
hbond:VAL:124    0
hbond:VAL:124    0
Name: 99, dtype: object

>  <halogenbond:VAL:124>  (100) 
halogenbond:VAL:124    0
halogenbond:VAL:124    0
Name: 99, dtype: object

>  <hbond:SER:125>  (100) 
hbond:SER:125    0
hbond:SER:125    0
Name: 99, dtype: object

>  <halogenbond:SER:125>  (100) 
halogenbond:SER:125    0
halogenbond:SER:125    0
Name: 99, dtype: object

>  <hydroph_interaction:THR:126>  (100) 
hydroph_interaction:THR:126    0
hydroph_interaction:THR:126    0
Name: 99, dtype: object

>  <hbond:THR:126>  (100) 
hbond:THR:126    1
hbond:THR:126    1
Name: 99, dtype: object

>  <halogenbond:THR:126>  (100) 
halogenbond:THR:126    0
halogenbond:THR:126    0
Name: 99, dtype: object

>  <hbond:GLY:127>  (100) 
hbond:GLY:127    0
hbond:GLY:127    0
Name: 99, dtype: object

>  <halogenbond:GLY:127>  (100) 
halogenbond:GLY:127    0
halogenbond:GLY:127    0
Name: 99, dtype: object

>  <hydroph_interaction:GLY:127>  (100) 
hydroph_interaction:GLY:127    0
hydroph_interaction:GLY:127    0
Name: 99, dtype: object

>  <hbond:GLY:128>  (100) 
hbond:GLY:128    0
hbond:GLY:128    0
Name: 99, dtype: object

>  <halogenbond:GLY:128>  (100) 
halogenbond:GLY:128    0
halogenbond:GLY:128    0
Name: 99, dtype: object

>  <hydroph_interaction:GLY:128>  (100) 
hydroph_interaction:GLY:128    0
hydroph_interaction:GLY:128    0
Name: 99, dtype: object

>  <hbond:ASN:129>  (100) 
hbond:ASN:129    0
hbond:ASN:129    0
Name: 99, dtype: object

>  <hydroph_interaction:ASN:129>  (100) 
hydroph_interaction:ASN:129    0
hydroph_interaction:ASN:129    0
Name: 99, dtype: object

>  <halogenbond:ASN:129>  (100) 
halogenbond:ASN:129    1
halogenbond:ASN:129    1
Name: 99, dtype: object

>  <hbond:GLY:130>  (100) 
hbond:GLY:130    0
hbond:GLY:130    0
Name: 99, dtype: object

>  <hydroph_interaction:LEU:131>  (100) 
hydroph_interaction:LEU:131    1
hydroph_interaction:LEU:131    1
Name: 99, dtype: object

>  <hbond:LEU:131>  (100) 
hbond:LEU:131    0
hbond:LEU:131    0
Name: 99, dtype: object

>  <halogenbond:LEU:131>  (100) 
halogenbond:LEU:131    0
halogenbond:LEU:131    0
Name: 99, dtype: object

>  <hydroph_interaction:VAL:132>  (100) 
hydroph_interaction:VAL:132    0
hydroph_interaction:VAL:132    0
Name: 99, dtype: object

>  <hbond:VAL:132>  (100) 
hbond:VAL:132    0
hbond:VAL:132    0
Name: 99, dtype: object

>  <hbond:GLY:133>  (100) 
hbond:GLY:133    0
hbond:GLY:133    0
Name: 99, dtype: object

>  <halogenbond:GLY:133>  (100) 
halogenbond:GLY:133    0
halogenbond:GLY:133    0
Name: 99, dtype: object

>  <hydroph_interaction:PHE:134>  (100) 
hydroph_interaction:PHE:134    0
hydroph_interaction:PHE:134    0
Name: 99, dtype: object

>  <hbond:PHE:134>  (100) 
hbond:PHE:134    0
hbond:PHE:134    0
Name: 99, dtype: object

>  <pistack:PHE:134>  (100) 
pistack:PHE:134    0
pistack:PHE:134    0
Name: 99, dtype: object

>  <pication:PHE:134>  (100) 
pication:PHE:134    0
pication:PHE:134    0
Name: 99, dtype: object

>  <hydroph_interaction:ALA:135>  (100) 
hydroph_interaction:ALA:135    0
hydroph_interaction:ALA:135    0
Name: 99, dtype: object

>  <hbond:ALA:135>  (100) 
hbond:ALA:135    0
hbond:ALA:135    0
Name: 99, dtype: object

$$$$
