ver_1.2
     RDKit          3D

 14 15  0  0  0  0  0  0  0  0999 V2000
    3.1142   -1.2274    0.2182 C   0  0  0  0  0  0  0  0  0  0  0  0
    2.2290   -0.0964    0.0568 N   0  0  0  0  0  0  0  0  0  0  0  0
    2.4915    1.1987   -0.1025 C   0  0  0  0  0  0  0  0  0  0  0  0
    1.3633    1.9237   -0.2172 N   0  0  0  0  0  0  0  0  0  0  0  0
    0.3376    1.0541   -0.1272 C   0  0  0  0  0  0  0  0  0  0  0  0
    0.8827   -0.1994    0.0430 C   0  0  0  0  0  0  0  0  0  0  0  0
    0.0013   -1.2556    0.1596 C   0  0  0  0  0  0  0  0  0  0  0  0
    0.5152   -2.4049    0.3158 O   0  0  0  0  0  0  0  0  0  0  0  0
   -1.3327   -1.0749    0.1099 N   0  0  0  0  0  0  0  0  0  0  0  0
   -1.7944    0.1715   -0.0576 C   0  0  0  0  0  0  0  0  0  0  0  0
   -3.0596    0.2992   -0.0992 O   0  0  0  0  0  0  0  0  0  0  0  0
   -1.0040    1.2522   -0.1792 N   0  0  0  0  0  0  0  0  0  0  0  0
   -1.5589    2.5936   -0.3607 C   0  0  0  0  0  0  0  0  0  0  0  0
   -2.1850   -2.2343    0.2402 C   0  0  0  0  0  0  0  0  0  0  0  0
  1  2  1  0
  2  3  1  0
  3  4  2  0
  4  5  1  0
  5  6  2  0
  6  7  1  0
  7  8  2  0
  7  9  1  0
  9 10  1  0
 10 11  2  0
 10 12  1  0
 12 13  1  0
  9 14  1  0
  6  2  1  0
 12  5  1  0
M  END
>  <ref_url>  (1) 
https://github.com/matteoferla/EV-A71-2A-elaborations

>  <submitter_name>  (1) 
Matteo Ferla

>  <submitter_email>  (1) 
matteo.ferla@stats.ox.ac.uk

>  <submitter_institution>  (1) 
University of Oxford

>  <generation_date>  (1) 
2024-02-17

>  <method>  (1) 
A71-Fragmenstein-iter2-conservative

>  <rationale>  (1) 
rationale

>  <intxn_cluster>  (1) 
intxn_cluster

>  <intxn_cluster_rank>  (1) 
intxn_cluster_rank

>  <N_interactions>  (1) 
N_interactions

>  <∆∆G>  (1) 
∆∆G

>  <$/mg>  (1) 
$/mg

>  <comRMSD>  (1) 
comRMSD

>  <N_rotatable_bonds>  (1) 
N_rotatable_bonds

>  <hbond:SER:7>  (1) 
hbond:SER:7

>  <halogenbond:SER:7>  (1) 
halogenbond:SER:7

>  <hbond:GLY:8>  (1) 
hbond:GLY:8

>  <hydroph_interaction:ASN:19>  (1) 
hydroph_interaction:ASN:19

>  <hbond:ASN:19>  (1) 
hbond:ASN:19

>  <halogenbond:ASN:19>  (1) 
halogenbond:ASN:19

>  <hbond:ARG:20>  (1) 
hbond:ARG:20

>  <hydroph_interaction:ARG:20>  (1) 
hydroph_interaction:ARG:20

>  <saltbridge:ARG:20>  (1) 
saltbridge:ARG:20

>  <halogenbond:ARG:20>  (1) 
halogenbond:ARG:20

>  <pication:ARG:20>  (1) 
pication:ARG:20

>  <hbond:HIS:21>  (1) 
hbond:HIS:21

>  <hydroph_interaction:HIS:21>  (1) 
hydroph_interaction:HIS:21

>  <saltbridge:HIS:21>  (1) 
saltbridge:HIS:21

>  <pistack:HIS:21>  (1) 
pistack:HIS:21

>  <pication:HIS:21>  (1) 
pication:HIS:21

>  <halogenbond:HIS:21>  (1) 
halogenbond:HIS:21

>  <hydroph_interaction:LEU:22>  (1) 
hydroph_interaction:LEU:22

>  <hbond:LEU:22>  (1) 
hbond:LEU:22

>  <hydroph_interaction:TRP:28>  (1) 
hydroph_interaction:TRP:28

>  <hbond:SER:36>  (1) 
hbond:SER:36

>  <halogenbond:SER:36>  (1) 
halogenbond:SER:36

>  <hbond:ARG:38>  (1) 
hbond:ARG:38

>  <halogenbond:ARG:38>  (1) 
halogenbond:ARG:38

>  <hbond:ASP:39>  (1) 
hbond:ASP:39

>  <saltbridge:ASP:39>  (1) 
saltbridge:ASP:39

>  <hydroph_interaction:ASP:39>  (1) 
hydroph_interaction:ASP:39

>  <halogenbond:ASP:39>  (1) 
halogenbond:ASP:39

>  <hydroph_interaction:LEU:40>  (1) 
hydroph_interaction:LEU:40

>  <hydroph_interaction:TYR:63>  (1) 
hydroph_interaction:TYR:63

>  <pistack:TYR:63>  (1) 
pistack:TYR:63

>  <hbond:TYR:63>  (1) 
hbond:TYR:63

>  <hbond:TYR:64>  (1) 
hbond:TYR:64

>  <halogenbond:TYR:64>  (1) 
halogenbond:TYR:64

>  <hydroph_interaction:TYR:64>  (1) 
hydroph_interaction:TYR:64

>  <hbond:CYS:65>  (1) 
hbond:CYS:65

>  <halogenbond:CYS:65>  (1) 
halogenbond:CYS:65

>  <hbond:SER:66>  (1) 
hbond:SER:66

>  <hbond:SER:67>  (1) 
hbond:SER:67

>  <halogenbond:SER:67>  (1) 
halogenbond:SER:67

>  <hydroph_interaction:ARG:68>  (1) 
hydroph_interaction:ARG:68

>  <hbond:ARG:68>  (1) 
hbond:ARG:68

>  <saltbridge:ARG:68>  (1) 
saltbridge:ARG:68

>  <pication:ARG:68>  (1) 
pication:ARG:68

>  <hydroph_interaction:TYR:72>  (1) 
hydroph_interaction:TYR:72

>  <hydroph_interaction:VAL:74>  (1) 
hydroph_interaction:VAL:74

>  <hydroph_interaction:PHE:76>  (1) 
hydroph_interaction:PHE:76

>  <hbond:SER:77>  (1) 
hbond:SER:77

>  <hbond:SER:80>  (1) 
hbond:SER:80

>  <hbond:LEU:81>  (1) 
hbond:LEU:81

>  <halogenbond:LEU:81>  (1) 
halogenbond:LEU:81

>  <hydroph_interaction:LEU:81>  (1) 
hydroph_interaction:LEU:81

>  <hydroph_interaction:ILE:82>  (1) 
hydroph_interaction:ILE:82

>  <hbond:ILE:82>  (1) 
hbond:ILE:82

>  <hydroph_interaction:PHE:83>  (1) 
hydroph_interaction:PHE:83

>  <hbond:PHE:83>  (1) 
hbond:PHE:83

>  <halogenbond:PHE:83>  (1) 
halogenbond:PHE:83

>  <pistack:PHE:83>  (1) 
pistack:PHE:83

>  <hydroph_interaction:VAL:84>  (1) 
hydroph_interaction:VAL:84

>  <hbond:VAL:84>  (1) 
hbond:VAL:84

>  <halogenbond:VAL:84>  (1) 
halogenbond:VAL:84

>  <hydroph_interaction:GLU:85>  (1) 
hydroph_interaction:GLU:85

>  <hbond:GLU:85>  (1) 
hbond:GLU:85

>  <saltbridge:GLU:85>  (1) 
saltbridge:GLU:85

>  <halogenbond:GLU:85>  (1) 
halogenbond:GLU:85

>  <hbond:ALA:86>  (1) 
hbond:ALA:86

>  <halogenbond:ALA:86>  (1) 
halogenbond:ALA:86

>  <hydroph_interaction:ALA:86>  (1) 
hydroph_interaction:ALA:86

>  <hbond:SER:87>  (1) 
hbond:SER:87

>  <halogenbond:SER:87>  (1) 
halogenbond:SER:87

>  <hbond:GLU:88>  (1) 
hbond:GLU:88

>  <hydroph_interaction:GLU:88>  (1) 
hydroph_interaction:GLU:88

>  <halogenbond:GLU:88>  (1) 
halogenbond:GLU:88

>  <saltbridge:GLU:88>  (1) 
saltbridge:GLU:88

>  <hydroph_interaction:TYR:89>  (1) 
hydroph_interaction:TYR:89

>  <pistack:TYR:89>  (1) 
pistack:TYR:89

>  <hbond:TYR:89>  (1) 
hbond:TYR:89

>  <halogenbond:TYR:89>  (1) 
halogenbond:TYR:89

>  <hbond:TYR:90>  (1) 
hbond:TYR:90

>  <hydroph_interaction:TYR:90>  (1) 
hydroph_interaction:TYR:90

>  <pistack:TYR:90>  (1) 
pistack:TYR:90

>  <halogenbond:TYR:90>  (1) 
halogenbond:TYR:90

>  <pication:TYR:90>  (1) 
pication:TYR:90

>  <hydroph_interaction:PRO:91>  (1) 
hydroph_interaction:PRO:91

>  <halogenbond:PRO:91>  (1) 
halogenbond:PRO:91

>  <hbond:PRO:91>  (1) 
hbond:PRO:91

>  <hydroph_interaction:ALA:92>  (1) 
hydroph_interaction:ALA:92

>  <hbond:ARG:93>  (1) 
hbond:ARG:93

>  <pication:ARG:93>  (1) 
pication:ARG:93

>  <saltbridge:ARG:93>  (1) 
saltbridge:ARG:93

>  <hydroph_interaction:ARG:93>  (1) 
hydroph_interaction:ARG:93

>  <halogenbond:ARG:93>  (1) 
halogenbond:ARG:93

>  <hydroph_interaction:TYR:94>  (1) 
hydroph_interaction:TYR:94

>  <hbond:TYR:94>  (1) 
hbond:TYR:94

>  <halogenbond:GLN:95>  (1) 
halogenbond:GLN:95

>  <hbond:GLN:95>  (1) 
hbond:GLN:95

>  <hydroph_interaction:GLN:95>  (1) 
hydroph_interaction:GLN:95

>  <hbond:SER:96>  (1) 
hbond:SER:96

>  <hydroph_interaction:LEU:98>  (1) 
hydroph_interaction:LEU:98

>  <hbond:LEU:98>  (1) 
hbond:LEU:98

>  <hbond:MET:99>  (1) 
hbond:MET:99

>  <hydroph_interaction:MET:99>  (1) 
hydroph_interaction:MET:99

>  <halogenbond:MET:99>  (1) 
halogenbond:MET:99

>  <hydroph_interaction:LEU:100>  (1) 
hydroph_interaction:LEU:100

>  <hbond:LEU:100>  (1) 
hbond:LEU:100

>  <hbond:ALA:101>  (1) 
hbond:ALA:101

>  <hydroph_interaction:ALA:101>  (1) 
hydroph_interaction:ALA:101

>  <hydroph_interaction:VAL:102>  (1) 
hydroph_interaction:VAL:102

>  <hbond:VAL:102>  (1) 
hbond:VAL:102

>  <hbond:GLY:103>  (1) 
hbond:GLY:103

>  <halogenbond:GLY:103>  (1) 
halogenbond:GLY:103

>  <hydroph_interaction:HIS:104>  (1) 
hydroph_interaction:HIS:104

>  <hbond:HIS:104>  (1) 
hbond:HIS:104

>  <saltbridge:HIS:104>  (1) 
saltbridge:HIS:104

>  <pication:HIS:104>  (1) 
pication:HIS:104

>  <pistack:HIS:104>  (1) 
pistack:HIS:104

>  <halogenbond:HIS:104>  (1) 
halogenbond:HIS:104

>  <hbond:SER:105>  (1) 
hbond:SER:105

>  <halogenbond:SER:105>  (1) 
halogenbond:SER:105

>  <hbond:GLU:106>  (1) 
hbond:GLU:106

>  <hydroph_interaction:GLU:106>  (1) 
hydroph_interaction:GLU:106

>  <saltbridge:GLU:106>  (1) 
saltbridge:GLU:106

>  <halogenbond:GLU:106>  (1) 
halogenbond:GLU:106

>  <hydroph_interaction:PRO:107>  (1) 
hydroph_interaction:PRO:107

>  <hbond:PRO:107>  (1) 
hbond:PRO:107

>  <halogenbond:PRO:107>  (1) 
halogenbond:PRO:107

>  <hbond:GLY:108>  (1) 
hbond:GLY:108

>  <halogenbond:GLY:108>  (1) 
halogenbond:GLY:108

>  <hbond:ASP:109>  (1) 
hbond:ASP:109

>  <hydroph_interaction:ASP:109>  (1) 
hydroph_interaction:ASP:109

>  <saltbridge:ASP:109>  (1) 
saltbridge:ASP:109

>  <hbond:CYS:110>  (1) 
hbond:CYS:110

>  <halogenbond:CYS:110>  (1) 
halogenbond:CYS:110

>  <hbond:GLY:111>  (1) 
hbond:GLY:111

>  <hbond:GLY:112>  (1) 
hbond:GLY:112

>  <hbond:ILE:113>  (1) 
hbond:ILE:113

>  <hydroph_interaction:LEU:114>  (1) 
hydroph_interaction:LEU:114

>  <hbond:LEU:114>  (1) 
hbond:LEU:114

>  <hydroph_interaction:ILE:123>  (1) 
hydroph_interaction:ILE:123

>  <hbond:ILE:123>  (1) 
hbond:ILE:123

>  <hydroph_interaction:VAL:124>  (1) 
hydroph_interaction:VAL:124

>  <hbond:VAL:124>  (1) 
hbond:VAL:124

>  <halogenbond:VAL:124>  (1) 
halogenbond:VAL:124

>  <hbond:SER:125>  (1) 
hbond:SER:125

>  <halogenbond:SER:125>  (1) 
halogenbond:SER:125

>  <hydroph_interaction:THR:126>  (1) 
hydroph_interaction:THR:126

>  <hbond:THR:126>  (1) 
hbond:THR:126

>  <halogenbond:THR:126>  (1) 
halogenbond:THR:126

>  <hbond:GLY:127>  (1) 
hbond:GLY:127

>  <halogenbond:GLY:127>  (1) 
halogenbond:GLY:127

>  <hydroph_interaction:GLY:127>  (1) 
hydroph_interaction:GLY:127

>  <hbond:GLY:128>  (1) 
hbond:GLY:128

>  <halogenbond:GLY:128>  (1) 
halogenbond:GLY:128

>  <hydroph_interaction:GLY:128>  (1) 
hydroph_interaction:GLY:128

>  <hbond:ASN:129>  (1) 
hbond:ASN:129

>  <hydroph_interaction:ASN:129>  (1) 
hydroph_interaction:ASN:129

>  <halogenbond:ASN:129>  (1) 
halogenbond:ASN:129

>  <hbond:GLY:130>  (1) 
hbond:GLY:130

>  <hydroph_interaction:LEU:131>  (1) 
hydroph_interaction:LEU:131

>  <hbond:LEU:131>  (1) 
hbond:LEU:131

>  <halogenbond:LEU:131>  (1) 
halogenbond:LEU:131

>  <hydroph_interaction:VAL:132>  (1) 
hydroph_interaction:VAL:132

>  <hbond:VAL:132>  (1) 
hbond:VAL:132

>  <hbond:GLY:133>  (1) 
hbond:GLY:133

>  <halogenbond:GLY:133>  (1) 
halogenbond:GLY:133

>  <hydroph_interaction:PHE:134>  (1) 
hydroph_interaction:PHE:134

>  <hbond:PHE:134>  (1) 
hbond:PHE:134

>  <pistack:PHE:134>  (1) 
pistack:PHE:134

>  <pication:PHE:134>  (1) 
pication:PHE:134

>  <hydroph_interaction:ALA:135>  (1) 
hydroph_interaction:ALA:135

>  <hbond:ALA:135>  (1) 
hbond:ALA:135

$$$$
Z1024105954
     RDKit          3D

 48 50  0  0  0  0  0  0  0  0999 V2000
   11.2110   14.6390   24.5980 O   0  0  0  0  0  0  0  0  0  0  0  0
   11.3820   14.1030   23.5270 C   0  0  0  0  0  0  0  0  0  0  0  0
   12.7190   14.0830   22.8270 C   0  0  0  0  0  0  0  0  0  0  0  0
   12.5530   13.7750   21.4220 N   0  0  0  0  0  0  0  0  0  0  0  0
   12.2690   15.1790   20.5650 S   0  0  0  0  0  6  0  0  0  0  0  0
   12.9870   15.0180   19.3320 O   0  0  0  0  0  0  0  0  0  0  0  0
   12.5650   16.2170   21.5240 O   0  0  0  0  0  0  0  0  0  0  0  0
   10.4780   15.0960   20.2760 C   0  0  0  0  0  0  0  0  0  0  0  0
   10.1300   15.9860   19.1610 C   0  0  0  0  0  0  0  0  0  0  0  0
   10.9070   16.0130   17.9930 C   0  0  0  0  0  0  0  0  0  0  0  0
   10.5590   16.8640   16.9300 C   0  0  0  0  0  0  0  0  0  0  0  0
    9.4290   17.6830   17.0270 C   0  0  0  0  0  0  0  0  0  0  0  0
    8.6970   17.6370   18.1870 C   0  0  0  0  0  0  0  0  0  0  0  0
    9.0190   16.8170   19.2450 C   0  0  0  0  0  0  0  0  0  0  0  0
   10.4010   13.4360   22.8240 N   0  0  0  0  0  0  0  0  0  0  0  0
    9.8220   12.1700   23.2310 C   0  0  0  0  0  0  0  0  0  0  0  0
   10.3140   10.8660   22.6140 C   0  0  0  0  0  0  0  0  0  0  0  0
    9.7370    9.5690   23.0420 C   0  0  0  0  0  0  0  0  0  0  0  0
    8.6640    9.5410   24.0750 C   0  0  0  0  0  0  0  0  0  0  0  0
    8.2050   10.8370   24.6510 C   0  0  0  0  0  0  0  0  0  0  0  0
    8.8050   12.1460   24.2050 C   0  0  0  0  0  0  0  0  0  0  0  0
    8.3000   13.3050   24.7970 N   0  0  0  0  0  0  0  0  0  0  0  0
    7.1580   13.2310   25.5690 C   0  0  0  0  0  0  0  0  0  0  0  0
    6.6670   12.1620   25.9100 O   0  0  0  0  0  0  0  0  0  0  0  0
    6.5740   14.5000   25.9530 C   0  0  0  0  0  0  0  0  0  0  0  0
    7.1790   15.7210   26.1760 C   0  0  0  0  0  0  0  0  0  0  0  0
    6.2100   16.8160   26.5710 C   0  0  0  0  0  0  0  0  0  0  0  0
    4.8300   16.1840   26.5890 C   0  0  0  0  0  0  0  0  0  0  0  0
    4.8660   14.5310   26.1770 S   0  0  0  0  0  0  0  0  0  0  0  0
   13.3550   13.3110   23.2690 H   0  0  0  0  0  0  0  0  0  0  0  0
   13.2310   15.0510   22.9190 H   0  0  0  0  0  0  0  0  0  0  0  0
   13.2840   13.2270   20.9860 H   0  0  0  0  0  0  0  0  0  0  0  0
   10.2480   14.0440   20.1390 H   0  0  0  0  0  0  0  0  0  0  0  0
   10.0130   15.3350   21.2260 H   0  0  0  0  0  0  0  0  0  0  0  0
   11.7820   15.3730   17.9060 H   0  0  0  0  0  0  0  0  0  0  0  0
   11.1750   16.8710   16.0310 H   0  0  0  0  0  0  0  0  0  0  0  0
    9.1440   18.3270   16.2180 H   0  0  0  0  0  0  0  0  0  0  0  0
    7.8130   18.2800   18.2850 H   0  0  0  0  0  0  0  0  0  0  0  0
    8.3420   16.8880   20.1000 H   0  0  0  0  0  0  0  0  0  0  0  0
   10.1810   13.7630   21.8940 H   0  0  0  0  0  0  0  0  0  0  0  0
   11.0630   10.7780   21.8720 H   0  0  0  0  0  0  0  0  0  0  0  0
   10.0750    8.6160   22.6160 H   0  0  0  0  0  0  0  0  0  0  0  0
    8.2390    8.6340   24.3840 H   0  0  0  0  0  0  0  0  0  0  0  0
    7.4240   10.8300   25.4010 H   0  0  0  0  0  0  0  0  0  0  0  0
    8.9720   14.0090   25.0460 H   0  0  0  0  0  0  0  0  0  0  0  0
    8.2460   15.8910   26.0800 H   0  0  0  0  0  0  0  0  0  0  0  0
    6.4400   17.8510   26.7970 H   0  0  0  0  0  0  0  0  0  0  0  0
    3.8880   16.6580   26.8250 H   0  0  0  0  0  0  0  0  0  0  0  0
  1  2  2  0
  2  3  1  0
  3  4  1  0
  4  5  1  0
  5  6  2  0
  5  7  2  0
  5  8  1  0
  8  9  1  0
  9 10  2  0
 10 11  1  0
 11 12  2  0
 12 13  1  0
 13 14  2  0
  2 15  1  0
 15 16  1  0
 16 17  2  0
 17 18  1  0
 18 19  2  0
 19 20  1  0
 20 21  2  0
 21 22  1  0
 22 23  1  0
 23 24  2  0
 23 25  1  0
 25 26  2  0
 26 27  1  0
 27 28  2  0
 28 29  1  0
 14  9  1  0
 21 16  1  0
 29 25  1  0
  3 30  1  0
  3 31  1  0
  4 32  1  0
  8 33  1  0
  8 34  1  0
 10 35  1  0
 11 36  1  0
 12 37  1  0
 13 38  1  0
 14 39  1  0
 15 40  1  0
 17 41  1  0
 18 42  1  0
 19 43  1  0
 20 44  1  0
 22 45  1  0
 26 46  1  0
 27 47  1  0
 28 48  1  0
A    1
 O1 
A    2
 C1 
A    3
 C2 
A    4
 N1 
A    5
 S1 
A    6
 O2 
A    7
 O3 
A    8
 C3 
A    9
 C4 
A   10
 C5 
A   11
 C6 
A   12
 C7 
A   13
 C8 
A   14
 C9 
A   15
 N2 
A   16
 C10
A   17
 C11
A   18
 C12
A   19
 C13
A   20
 C14
A   21
 C15
A   22
 N3 
A   23
 C16
A   24
 O4 
A   25
 C17
A   26
 C18
A   27
 C19
A   28
 C20
A   29
 S2 
A   30
 H1 
A   31
 H2 
A   32
 H3 
A   33
 H4 
A   34
 H5 
A   35
 H6 
A   36
 H7 
A   37
 H8 
A   38
 H9 
A   39
 H10
A   40
 H11
A   41
 H12
A   42
 H13
A   43
 H14
A   44
 H15
A   45
 H16
A   46
 H17
A   47
 H18
A   48
 H19
M  END
>  <ref_pdb>  (1) 
x0310_0A

>  <ref_mols>  (1) 
x0739_0A,x0554_0A

>  <original SMILES>  (1) 
O=C(CNS(=O)(=O)Cc1ccccc1)Nc1ccccc1NC(=O)c1cccs1

>  <rationale>  (1) 
info hbond:S87+H21; hydroph_interaction:Y90+V84+Q95+R93; 

>  <intxn_cluster>  (1) 
208

>  <intxn_cluster_rank>  (1) 
1

>  <N_interactions>  (1) 
12

>  <∆∆G>  (1) 
-11.267962

>  <$/mg>  (1) 
163.0

>  <comRMSD>  (1) 
0.943724

>  <N_rotatable_bonds>  (1) 
8

>  <hbond:SER:7>  (1) 
hbond:SER:7    0
hbond:SER:7    0
Name: 0, dtype: object

>  <halogenbond:SER:7>  (1) 
halogenbond:SER:7    0
halogenbond:SER:7    0
Name: 0, dtype: object

>  <hbond:GLY:8>  (1) 
hbond:GLY:8    0
hbond:GLY:8    0
Name: 0, dtype: object

>  <hydroph_interaction:ASN:19>  (1) 
hydroph_interaction:ASN:19    0
hydroph_interaction:ASN:19    0
Name: 0, dtype: object

>  <hbond:ASN:19>  (1) 
hbond:ASN:19    0
hbond:ASN:19    0
Name: 0, dtype: object

>  <halogenbond:ASN:19>  (1) 
halogenbond:ASN:19    0
halogenbond:ASN:19    0
Name: 0, dtype: object

>  <hbond:ARG:20>  (1) 
hbond:ARG:20    0
hbond:ARG:20    0
Name: 0, dtype: object

>  <hydroph_interaction:ARG:20>  (1) 
hydroph_interaction:ARG:20    0
hydroph_interaction:ARG:20    0
Name: 0, dtype: object

>  <saltbridge:ARG:20>  (1) 
saltbridge:ARG:20    0
saltbridge:ARG:20    0
Name: 0, dtype: object

>  <halogenbond:ARG:20>  (1) 
halogenbond:ARG:20    0
halogenbond:ARG:20    0
Name: 0, dtype: object

>  <pication:ARG:20>  (1) 
pication:ARG:20    0
pication:ARG:20    0
Name: 0, dtype: object

>  <hbond:HIS:21>  (1) 
hbond:HIS:21    1
hbond:HIS:21    1
Name: 0, dtype: object

>  <hydroph_interaction:HIS:21>  (1) 
hydroph_interaction:HIS:21    0
hydroph_interaction:HIS:21    0
Name: 0, dtype: object

>  <saltbridge:HIS:21>  (1) 
saltbridge:HIS:21    0
saltbridge:HIS:21    0
Name: 0, dtype: object

>  <pistack:HIS:21>  (1) 
pistack:HIS:21    0
pistack:HIS:21    0
Name: 0, dtype: object

>  <pication:HIS:21>  (1) 
pication:HIS:21    0
pication:HIS:21    0
Name: 0, dtype: object

>  <halogenbond:HIS:21>  (1) 
halogenbond:HIS:21    0
halogenbond:HIS:21    0
Name: 0, dtype: object

>  <hydroph_interaction:LEU:22>  (1) 
hydroph_interaction:LEU:22    0
hydroph_interaction:LEU:22    0
Name: 0, dtype: object

>  <hbond:LEU:22>  (1) 
hbond:LEU:22    0
hbond:LEU:22    0
Name: 0, dtype: object

>  <hydroph_interaction:TRP:28>  (1) 
hydroph_interaction:TRP:28    0
hydroph_interaction:TRP:28    0
Name: 0, dtype: object

>  <hbond:SER:36>  (1) 
hbond:SER:36    0
hbond:SER:36    0
Name: 0, dtype: object

>  <halogenbond:SER:36>  (1) 
halogenbond:SER:36    0
halogenbond:SER:36    0
Name: 0, dtype: object

>  <hbond:ARG:38>  (1) 
hbond:ARG:38    0
hbond:ARG:38    0
Name: 0, dtype: object

>  <halogenbond:ARG:38>  (1) 
halogenbond:ARG:38    0
halogenbond:ARG:38    0
Name: 0, dtype: object

>  <hbond:ASP:39>  (1) 
hbond:ASP:39    0
hbond:ASP:39    0
Name: 0, dtype: object

>  <saltbridge:ASP:39>  (1) 
saltbridge:ASP:39    0
saltbridge:ASP:39    0
Name: 0, dtype: object

>  <hydroph_interaction:ASP:39>  (1) 
hydroph_interaction:ASP:39    0
hydroph_interaction:ASP:39    0
Name: 0, dtype: object

>  <halogenbond:ASP:39>  (1) 
halogenbond:ASP:39    0
halogenbond:ASP:39    0
Name: 0, dtype: object

>  <hydroph_interaction:LEU:40>  (1) 
hydroph_interaction:LEU:40    0
hydroph_interaction:LEU:40    0
Name: 0, dtype: object

>  <hydroph_interaction:TYR:63>  (1) 
hydroph_interaction:TYR:63    0
hydroph_interaction:TYR:63    0
Name: 0, dtype: object

>  <pistack:TYR:63>  (1) 
pistack:TYR:63    0
pistack:TYR:63    0
Name: 0, dtype: object

>  <hbond:TYR:63>  (1) 
hbond:TYR:63    0
hbond:TYR:63    0
Name: 0, dtype: object

>  <hbond:TYR:64>  (1) 
hbond:TYR:64    0
hbond:TYR:64    0
Name: 0, dtype: object

>  <halogenbond:TYR:64>  (1) 
halogenbond:TYR:64    0
halogenbond:TYR:64    0
Name: 0, dtype: object

>  <hydroph_interaction:TYR:64>  (1) 
hydroph_interaction:TYR:64    0
hydroph_interaction:TYR:64    0
Name: 0, dtype: object

>  <hbond:CYS:65>  (1) 
hbond:CYS:65    0
hbond:CYS:65    0
Name: 0, dtype: object

>  <halogenbond:CYS:65>  (1) 
halogenbond:CYS:65    0
halogenbond:CYS:65    0
Name: 0, dtype: object

>  <hbond:SER:66>  (1) 
hbond:SER:66    0
hbond:SER:66    0
Name: 0, dtype: object

>  <hbond:SER:67>  (1) 
hbond:SER:67    0
hbond:SER:67    0
Name: 0, dtype: object

>  <halogenbond:SER:67>  (1) 
halogenbond:SER:67    0
halogenbond:SER:67    0
Name: 0, dtype: object

>  <hydroph_interaction:ARG:68>  (1) 
hydroph_interaction:ARG:68    0
hydroph_interaction:ARG:68    0
Name: 0, dtype: object

>  <hbond:ARG:68>  (1) 
hbond:ARG:68    0
hbond:ARG:68    0
Name: 0, dtype: object

>  <saltbridge:ARG:68>  (1) 
saltbridge:ARG:68    0
saltbridge:ARG:68    0
Name: 0, dtype: object

>  <pication:ARG:68>  (1) 
pication:ARG:68    0
pication:ARG:68    0
Name: 0, dtype: object

>  <hydroph_interaction:TYR:72>  (1) 
hydroph_interaction:TYR:72    0
hydroph_interaction:TYR:72    0
Name: 0, dtype: object

>  <hydroph_interaction:VAL:74>  (1) 
hydroph_interaction:VAL:74    0
hydroph_interaction:VAL:74    0
Name: 0, dtype: object

>  <hydroph_interaction:PHE:76>  (1) 
hydroph_interaction:PHE:76    0
hydroph_interaction:PHE:76    0
Name: 0, dtype: object

>  <hbond:SER:77>  (1) 
hbond:SER:77    0
hbond:SER:77    0
Name: 0, dtype: object

>  <hbond:SER:80>  (1) 
hbond:SER:80    0
hbond:SER:80    0
Name: 0, dtype: object

>  <hbond:LEU:81>  (1) 
hbond:LEU:81    0
hbond:LEU:81    0
Name: 0, dtype: object

>  <halogenbond:LEU:81>  (1) 
halogenbond:LEU:81    0
halogenbond:LEU:81    0
Name: 0, dtype: object

>  <hydroph_interaction:LEU:81>  (1) 
hydroph_interaction:LEU:81    0
hydroph_interaction:LEU:81    0
Name: 0, dtype: object

>  <hydroph_interaction:ILE:82>  (1) 
hydroph_interaction:ILE:82    0
hydroph_interaction:ILE:82    0
Name: 0, dtype: object

>  <hbond:ILE:82>  (1) 
hbond:ILE:82    0
hbond:ILE:82    0
Name: 0, dtype: object

>  <hydroph_interaction:PHE:83>  (1) 
hydroph_interaction:PHE:83    0
hydroph_interaction:PHE:83    0
Name: 0, dtype: object

>  <hbond:PHE:83>  (1) 
hbond:PHE:83    0
hbond:PHE:83    0
Name: 0, dtype: object

>  <halogenbond:PHE:83>  (1) 
halogenbond:PHE:83    0
halogenbond:PHE:83    0
Name: 0, dtype: object

>  <pistack:PHE:83>  (1) 
pistack:PHE:83    0
pistack:PHE:83    0
Name: 0, dtype: object

>  <hydroph_interaction:VAL:84>  (1) 
hydroph_interaction:VAL:84    2
hydroph_interaction:VAL:84    2
Name: 0, dtype: object

>  <hbond:VAL:84>  (1) 
hbond:VAL:84    0
hbond:VAL:84    0
Name: 0, dtype: object

>  <halogenbond:VAL:84>  (1) 
halogenbond:VAL:84    0
halogenbond:VAL:84    0
Name: 0, dtype: object

>  <hydroph_interaction:GLU:85>  (1) 
hydroph_interaction:GLU:85    0
hydroph_interaction:GLU:85    0
Name: 0, dtype: object

>  <hbond:GLU:85>  (1) 
hbond:GLU:85    0
hbond:GLU:85    0
Name: 0, dtype: object

>  <saltbridge:GLU:85>  (1) 
saltbridge:GLU:85    0
saltbridge:GLU:85    0
Name: 0, dtype: object

>  <halogenbond:GLU:85>  (1) 
halogenbond:GLU:85    0
halogenbond:GLU:85    0
Name: 0, dtype: object

>  <hbond:ALA:86>  (1) 
hbond:ALA:86    0
hbond:ALA:86    0
Name: 0, dtype: object

>  <halogenbond:ALA:86>  (1) 
halogenbond:ALA:86    0
halogenbond:ALA:86    0
Name: 0, dtype: object

>  <hydroph_interaction:ALA:86>  (1) 
hydroph_interaction:ALA:86    0
hydroph_interaction:ALA:86    0
Name: 0, dtype: object

>  <hbond:SER:87>  (1) 
hbond:SER:87    3
hbond:SER:87    3
Name: 0, dtype: object

>  <halogenbond:SER:87>  (1) 
halogenbond:SER:87    0
halogenbond:SER:87    0
Name: 0, dtype: object

>  <hbond:GLU:88>  (1) 
hbond:GLU:88    0
hbond:GLU:88    0
Name: 0, dtype: object

>  <hydroph_interaction:GLU:88>  (1) 
hydroph_interaction:GLU:88    0
hydroph_interaction:GLU:88    0
Name: 0, dtype: object

>  <halogenbond:GLU:88>  (1) 
halogenbond:GLU:88    0
halogenbond:GLU:88    0
Name: 0, dtype: object

>  <saltbridge:GLU:88>  (1) 
saltbridge:GLU:88    0
saltbridge:GLU:88    0
Name: 0, dtype: object

>  <hydroph_interaction:TYR:89>  (1) 
hydroph_interaction:TYR:89    0
hydroph_interaction:TYR:89    0
Name: 0, dtype: object

>  <pistack:TYR:89>  (1) 
pistack:TYR:89    0
pistack:TYR:89    0
Name: 0, dtype: object

>  <hbond:TYR:89>  (1) 
hbond:TYR:89    0
hbond:TYR:89    0
Name: 0, dtype: object

>  <halogenbond:TYR:89>  (1) 
halogenbond:TYR:89    0
halogenbond:TYR:89    0
Name: 0, dtype: object

>  <hbond:TYR:90>  (1) 
hbond:TYR:90    0
hbond:TYR:90    0
Name: 0, dtype: object

>  <hydroph_interaction:TYR:90>  (1) 
hydroph_interaction:TYR:90    3
hydroph_interaction:TYR:90    3
Name: 0, dtype: object

>  <pistack:TYR:90>  (1) 
pistack:TYR:90    0
pistack:TYR:90    0
Name: 0, dtype: object

>  <halogenbond:TYR:90>  (1) 
halogenbond:TYR:90    0
halogenbond:TYR:90    0
Name: 0, dtype: object

>  <pication:TYR:90>  (1) 
pication:TYR:90    0
pication:TYR:90    0
Name: 0, dtype: object

>  <hydroph_interaction:PRO:91>  (1) 
hydroph_interaction:PRO:91    0
hydroph_interaction:PRO:91    0
Name: 0, dtype: object

>  <halogenbond:PRO:91>  (1) 
halogenbond:PRO:91    0
halogenbond:PRO:91    0
Name: 0, dtype: object

>  <hbond:PRO:91>  (1) 
hbond:PRO:91    0
hbond:PRO:91    0
Name: 0, dtype: object

>  <hydroph_interaction:ALA:92>  (1) 
hydroph_interaction:ALA:92    0
hydroph_interaction:ALA:92    0
Name: 0, dtype: object

>  <hbond:ARG:93>  (1) 
hbond:ARG:93    0
hbond:ARG:93    0
Name: 0, dtype: object

>  <pication:ARG:93>  (1) 
pication:ARG:93    0
pication:ARG:93    0
Name: 0, dtype: object

>  <saltbridge:ARG:93>  (1) 
saltbridge:ARG:93    0
saltbridge:ARG:93    0
Name: 0, dtype: object

>  <hydroph_interaction:ARG:93>  (1) 
hydroph_interaction:ARG:93    1
hydroph_interaction:ARG:93    1
Name: 0, dtype: object

>  <halogenbond:ARG:93>  (1) 
halogenbond:ARG:93    0
halogenbond:ARG:93    0
Name: 0, dtype: object

>  <hydroph_interaction:TYR:94>  (1) 
hydroph_interaction:TYR:94    0
hydroph_interaction:TYR:94    0
Name: 0, dtype: object

>  <hbond:TYR:94>  (1) 
hbond:TYR:94    0
hbond:TYR:94    0
Name: 0, dtype: object

>  <halogenbond:GLN:95>  (1) 
halogenbond:GLN:95    0
halogenbond:GLN:95    0
Name: 0, dtype: object

>  <hbond:GLN:95>  (1) 
hbond:GLN:95    0
hbond:GLN:95    0
Name: 0, dtype: object

>  <hydroph_interaction:GLN:95>  (1) 
hydroph_interaction:GLN:95    2
hydroph_interaction:GLN:95    2
Name: 0, dtype: object

>  <hbond:SER:96>  (1) 
hbond:SER:96    0
hbond:SER:96    0
Name: 0, dtype: object

>  <hydroph_interaction:LEU:98>  (1) 
hydroph_interaction:LEU:98    0
hydroph_interaction:LEU:98    0
Name: 0, dtype: object

>  <hbond:LEU:98>  (1) 
hbond:LEU:98    0
hbond:LEU:98    0
Name: 0, dtype: object

>  <hbond:MET:99>  (1) 
hbond:MET:99    0
hbond:MET:99    0
Name: 0, dtype: object

>  <hydroph_interaction:MET:99>  (1) 
hydroph_interaction:MET:99    0
hydroph_interaction:MET:99    0
Name: 0, dtype: object

>  <halogenbond:MET:99>  (1) 
halogenbond:MET:99    0
halogenbond:MET:99    0
Name: 0, dtype: object

>  <hydroph_interaction:LEU:100>  (1) 
hydroph_interaction:LEU:100    0
hydroph_interaction:LEU:100    0
Name: 0, dtype: object

>  <hbond:LEU:100>  (1) 
hbond:LEU:100    0
hbond:LEU:100    0
Name: 0, dtype: object

>  <hbond:ALA:101>  (1) 
hbond:ALA:101    0
hbond:ALA:101    0
Name: 0, dtype: object

>  <hydroph_interaction:ALA:101>  (1) 
hydroph_interaction:ALA:101    0
hydroph_interaction:ALA:101    0
Name: 0, dtype: object

>  <hydroph_interaction:VAL:102>  (1) 
hydroph_interaction:VAL:102    0
hydroph_interaction:VAL:102    0
Name: 0, dtype: object

>  <hbond:VAL:102>  (1) 
hbond:VAL:102    0
hbond:VAL:102    0
Name: 0, dtype: object

>  <hbond:GLY:103>  (1) 
hbond:GLY:103    0
hbond:GLY:103    0
Name: 0, dtype: object

>  <halogenbond:GLY:103>  (1) 
halogenbond:GLY:103    0
halogenbond:GLY:103    0
Name: 0, dtype: object

>  <hydroph_interaction:HIS:104>  (1) 
hydroph_interaction:HIS:104    0
hydroph_interaction:HIS:104    0
Name: 0, dtype: object

>  <hbond:HIS:104>  (1) 
hbond:HIS:104    0
hbond:HIS:104    0
Name: 0, dtype: object

>  <saltbridge:HIS:104>  (1) 
saltbridge:HIS:104    0
saltbridge:HIS:104    0
Name: 0, dtype: object

>  <pication:HIS:104>  (1) 
pication:HIS:104    0
pication:HIS:104    0
Name: 0, dtype: object

>  <pistack:HIS:104>  (1) 
pistack:HIS:104    0
pistack:HIS:104    0
Name: 0, dtype: object

>  <halogenbond:HIS:104>  (1) 
halogenbond:HIS:104    0
halogenbond:HIS:104    0
Name: 0, dtype: object

>  <hbond:SER:105>  (1) 
hbond:SER:105    0
hbond:SER:105    0
Name: 0, dtype: object

>  <halogenbond:SER:105>  (1) 
halogenbond:SER:105    0
halogenbond:SER:105    0
Name: 0, dtype: object

>  <hbond:GLU:106>  (1) 
hbond:GLU:106    0
hbond:GLU:106    0
Name: 0, dtype: object

>  <hydroph_interaction:GLU:106>  (1) 
hydroph_interaction:GLU:106    0
hydroph_interaction:GLU:106    0
Name: 0, dtype: object

>  <saltbridge:GLU:106>  (1) 
saltbridge:GLU:106    0
saltbridge:GLU:106    0
Name: 0, dtype: object

>  <halogenbond:GLU:106>  (1) 
halogenbond:GLU:106    0
halogenbond:GLU:106    0
Name: 0, dtype: object

>  <hydroph_interaction:PRO:107>  (1) 
hydroph_interaction:PRO:107    0
hydroph_interaction:PRO:107    0
Name: 0, dtype: object

>  <hbond:PRO:107>  (1) 
hbond:PRO:107    0
hbond:PRO:107    0
Name: 0, dtype: object

>  <halogenbond:PRO:107>  (1) 
halogenbond:PRO:107    0
halogenbond:PRO:107    0
Name: 0, dtype: object

>  <hbond:GLY:108>  (1) 
hbond:GLY:108    0
hbond:GLY:108    0
Name: 0, dtype: object

>  <halogenbond:GLY:108>  (1) 
halogenbond:GLY:108    0
halogenbond:GLY:108    0
Name: 0, dtype: object

>  <hbond:ASP:109>  (1) 
hbond:ASP:109    0
hbond:ASP:109    0
Name: 0, dtype: object

>  <hydroph_interaction:ASP:109>  (1) 
hydroph_interaction:ASP:109    0
hydroph_interaction:ASP:109    0
Name: 0, dtype: object

>  <saltbridge:ASP:109>  (1) 
saltbridge:ASP:109    0
saltbridge:ASP:109    0
Name: 0, dtype: object

>  <hbond:CYS:110>  (1) 
hbond:CYS:110    0
hbond:CYS:110    0
Name: 0, dtype: object

>  <halogenbond:CYS:110>  (1) 
halogenbond:CYS:110    0
halogenbond:CYS:110    0
Name: 0, dtype: object

>  <hbond:GLY:111>  (1) 
hbond:GLY:111    0
hbond:GLY:111    0
Name: 0, dtype: object

>  <hbond:GLY:112>  (1) 
hbond:GLY:112    0
hbond:GLY:112    0
Name: 0, dtype: object

>  <hbond:ILE:113>  (1) 
hbond:ILE:113    0
hbond:ILE:113    0
Name: 0, dtype: object

>  <hydroph_interaction:LEU:114>  (1) 
hydroph_interaction:LEU:114    0
hydroph_interaction:LEU:114    0
Name: 0, dtype: object

>  <hbond:LEU:114>  (1) 
hbond:LEU:114    0
hbond:LEU:114    0
Name: 0, dtype: object

>  <hydroph_interaction:ILE:123>  (1) 
hydroph_interaction:ILE:123    0
hydroph_interaction:ILE:123    0
Name: 0, dtype: object

>  <hbond:ILE:123>  (1) 
hbond:ILE:123    0
hbond:ILE:123    0
Name: 0, dtype: object

>  <hydroph_interaction:VAL:124>  (1) 
hydroph_interaction:VAL:124    0
hydroph_interaction:VAL:124    0
Name: 0, dtype: object

>  <hbond:VAL:124>  (1) 
hbond:VAL:124    0
hbond:VAL:124    0
Name: 0, dtype: object

>  <halogenbond:VAL:124>  (1) 
halogenbond:VAL:124    0
halogenbond:VAL:124    0
Name: 0, dtype: object

>  <hbond:SER:125>  (1) 
hbond:SER:125    0
hbond:SER:125    0
Name: 0, dtype: object

>  <halogenbond:SER:125>  (1) 
halogenbond:SER:125    0
halogenbond:SER:125    0
Name: 0, dtype: object

>  <hydroph_interaction:THR:126>  (1) 
hydroph_interaction:THR:126    0
hydroph_interaction:THR:126    0
Name: 0, dtype: object

>  <hbond:THR:126>  (1) 
hbond:THR:126    0
hbond:THR:126    0
Name: 0, dtype: object

>  <halogenbond:THR:126>  (1) 
halogenbond:THR:126    0
halogenbond:THR:126    0
Name: 0, dtype: object

>  <hbond:GLY:127>  (1) 
hbond:GLY:127    0
hbond:GLY:127    0
Name: 0, dtype: object

>  <halogenbond:GLY:127>  (1) 
halogenbond:GLY:127    0
halogenbond:GLY:127    0
Name: 0, dtype: object

>  <hydroph_interaction:GLY:127>  (1) 
hydroph_interaction:GLY:127    0
hydroph_interaction:GLY:127    0
Name: 0, dtype: object

>  <hbond:GLY:128>  (1) 
hbond:GLY:128    0
hbond:GLY:128    0
Name: 0, dtype: object

>  <halogenbond:GLY:128>  (1) 
halogenbond:GLY:128    0
halogenbond:GLY:128    0
Name: 0, dtype: object

>  <hydroph_interaction:GLY:128>  (1) 
hydroph_interaction:GLY:128    0
hydroph_interaction:GLY:128    0
Name: 0, dtype: object

>  <hbond:ASN:129>  (1) 
hbond:ASN:129    0
hbond:ASN:129    0
Name: 0, dtype: object

>  <hydroph_interaction:ASN:129>  (1) 
hydroph_interaction:ASN:129    0
hydroph_interaction:ASN:129    0
Name: 0, dtype: object

>  <halogenbond:ASN:129>  (1) 
halogenbond:ASN:129    0
halogenbond:ASN:129    0
Name: 0, dtype: object

>  <hbond:GLY:130>  (1) 
hbond:GLY:130    0
hbond:GLY:130    0
Name: 0, dtype: object

>  <hydroph_interaction:LEU:131>  (1) 
hydroph_interaction:LEU:131    0
hydroph_interaction:LEU:131    0
Name: 0, dtype: object

>  <hbond:LEU:131>  (1) 
hbond:LEU:131    0
hbond:LEU:131    0
Name: 0, dtype: object

>  <halogenbond:LEU:131>  (1) 
halogenbond:LEU:131    0
halogenbond:LEU:131    0
Name: 0, dtype: object

>  <hydroph_interaction:VAL:132>  (1) 
hydroph_interaction:VAL:132    0
hydroph_interaction:VAL:132    0
Name: 0, dtype: object

>  <hbond:VAL:132>  (1) 
hbond:VAL:132    0
hbond:VAL:132    0
Name: 0, dtype: object

>  <hbond:GLY:133>  (1) 
hbond:GLY:133    0
hbond:GLY:133    0
Name: 0, dtype: object

>  <halogenbond:GLY:133>  (1) 
halogenbond:GLY:133    0
halogenbond:GLY:133    0
Name: 0, dtype: object

>  <hydroph_interaction:PHE:134>  (1) 
hydroph_interaction:PHE:134    0
hydroph_interaction:PHE:134    0
Name: 0, dtype: object

>  <hbond:PHE:134>  (1) 
hbond:PHE:134    0
hbond:PHE:134    0
Name: 0, dtype: object

>  <pistack:PHE:134>  (1) 
pistack:PHE:134    0
pistack:PHE:134    0
Name: 0, dtype: object

>  <pication:PHE:134>  (1) 
pication:PHE:134    0
pication:PHE:134    0
Name: 0, dtype: object

>  <hydroph_interaction:ALA:135>  (1) 
hydroph_interaction:ALA:135    0
hydroph_interaction:ALA:135    0
Name: 0, dtype: object

>  <hbond:ALA:135>  (1) 
hbond:ALA:135    0
hbond:ALA:135    0
Name: 0, dtype: object

$$$$
Z432782836
     RDKit          3D

 24 24  0  0  0  0  0  0  0  0999 V2000
   10.3840    9.2980   22.5800 C   0  0  0  0  0  0  0  0  0  0  0  0
    9.4970   10.2730   23.3030 C   0  0  0  0  0  0  0  0  0  0  0  0
    8.6810    9.8580   24.3180 C   0  0  0  0  0  0  0  0  0  0  0  0
    7.8360   10.7300   24.9940 C   0  0  0  0  0  0  0  0  0  0  0  0
    7.7980   12.0570   24.6280 C   0  0  0  0  0  0  0  0  0  0  0  0
    8.6160   12.4950   23.5880 C   0  0  0  0  0  0  0  0  0  0  0  0
    8.5400   13.9380   23.1500 C   0  0  0  0  0  0  0  0  0  0  0  0
    7.1760   14.1360   22.6850 N   0  0  0  0  0  0  0  0  0  0  0  0
    6.4230   15.0090   23.3870 C   0  0  0  0  0  0  0  0  0  0  0  0
    5.4410   15.5660   22.6470 N   0  0  0  0  0  0  0  0  0  0  0  0
    6.5820   15.2830   24.5660 O   0  0  0  0  0  0  0  0  0  0  0  0
    9.4730   11.6060   22.9430 C   0  0  0  0  0  0  0  0  0  0  0  0
    9.7890    8.5250   22.1000 H   0  0  0  0  0  0  0  0  0  0  0  0
   11.0850    8.8110   23.2610 H   0  0  0  0  0  0  0  0  0  0  0  0
   10.9540    9.8240   21.8220 H   0  0  0  0  0  0  0  0  0  0  0  0
    8.6710    8.8420   24.6160 H   0  0  0  0  0  0  0  0  0  0  0  0
    7.2100   10.3510   25.7950 H   0  0  0  0  0  0  0  0  0  0  0  0
    7.1290   12.7460   25.1420 H   0  0  0  0  0  0  0  0  0  0  0  0
    8.7600   14.5580   24.0230 H   0  0  0  0  0  0  0  0  0  0  0  0
    9.3170   14.1210   22.3990 H   0  0  0  0  0  0  0  0  0  0  0  0
    6.6370   13.2860   22.5270 H   0  0  0  0  0  0  0  0  0  0  0  0
    5.6490   16.4440   22.1710 H   0  0  0  0  0  0  0  0  0  0  0  0
    4.8950   14.9000   22.1150 H   0  0  0  0  0  0  0  0  0  0  0  0
   10.1200   11.9550   22.1340 H   0  0  0  0  0  0  0  0  0  0  0  0
  1  2  1  0
  2  3  2  0
  3  4  1  0
  4  5  2  0
  5  6  1  0
  6  7  1  0
  7  8  1  0
  8  9  1  0
  9 10  1  0
  9 11  2  0
  6 12  2  0
 12  2  1  0
  1 13  1  0
  1 14  1  0
  1 15  1  0
  3 16  1  0
  4 17  1  0
  5 18  1  0
  7 19  1  0
  7 20  1  0
  8 21  1  0
 10 22  1  0
 10 23  1  0
 12 24  1  0
A    1
 C1 
A    2
 C2 
A    3
 C3 
A    4
 C4 
A    5
 C5 
A    6
 C6 
A    7
 C7 
A    8
 N1 
A    9
 C8 
A   10
 N2 
A   11
 O1 
A   12
 C9 
A   13
 H1 
A   14
 H2 
A   15
 H3 
A   16
 H4 
A   17
 H5 
A   18
 H6 
A   19
 H7 
A   20
 H8 
A   21
 H9 
A   22
 H10
A   23
 H11
A   24
 H12
M  END
>  <ref_pdb>  (2) 
x0310_0A

>  <ref_mols>  (2) 
x0416_0A,x1080_0A,x0451_0A

>  <original SMILES>  (2) 
Cc1cccc(CNC(N)=O)c1

>  <rationale>  (2) 
info hbond:G127+A86; hydroph_interaction:V124; 

>  <intxn_cluster>  (2) 
102

>  <intxn_cluster_rank>  (2) 
3

>  <N_interactions>  (2) 
4

>  <∆∆G>  (2) 
-7.702159

>  <$/mg>  (2) 
163.0

>  <comRMSD>  (2) 
0.902901

>  <N_rotatable_bonds>  (2) 
3

>  <hbond:SER:7>  (2) 
hbond:SER:7    0
hbond:SER:7    0
Name: 1, dtype: object

>  <halogenbond:SER:7>  (2) 
halogenbond:SER:7    0
halogenbond:SER:7    0
Name: 1, dtype: object

>  <hbond:GLY:8>  (2) 
hbond:GLY:8    0
hbond:GLY:8    0
Name: 1, dtype: object

>  <hydroph_interaction:ASN:19>  (2) 
hydroph_interaction:ASN:19    0
hydroph_interaction:ASN:19    0
Name: 1, dtype: object

>  <hbond:ASN:19>  (2) 
hbond:ASN:19    0
hbond:ASN:19    0
Name: 1, dtype: object

>  <halogenbond:ASN:19>  (2) 
halogenbond:ASN:19    0
halogenbond:ASN:19    0
Name: 1, dtype: object

>  <hbond:ARG:20>  (2) 
hbond:ARG:20    0
hbond:ARG:20    0
Name: 1, dtype: object

>  <hydroph_interaction:ARG:20>  (2) 
hydroph_interaction:ARG:20    0
hydroph_interaction:ARG:20    0
Name: 1, dtype: object

>  <saltbridge:ARG:20>  (2) 
saltbridge:ARG:20    0
saltbridge:ARG:20    0
Name: 1, dtype: object

>  <halogenbond:ARG:20>  (2) 
halogenbond:ARG:20    0
halogenbond:ARG:20    0
Name: 1, dtype: object

>  <pication:ARG:20>  (2) 
pication:ARG:20    0
pication:ARG:20    0
Name: 1, dtype: object

>  <hbond:HIS:21>  (2) 
hbond:HIS:21    0
hbond:HIS:21    0
Name: 1, dtype: object

>  <hydroph_interaction:HIS:21>  (2) 
hydroph_interaction:HIS:21    0
hydroph_interaction:HIS:21    0
Name: 1, dtype: object

>  <saltbridge:HIS:21>  (2) 
saltbridge:HIS:21    0
saltbridge:HIS:21    0
Name: 1, dtype: object

>  <pistack:HIS:21>  (2) 
pistack:HIS:21    0
pistack:HIS:21    0
Name: 1, dtype: object

>  <pication:HIS:21>  (2) 
pication:HIS:21    0
pication:HIS:21    0
Name: 1, dtype: object

>  <halogenbond:HIS:21>  (2) 
halogenbond:HIS:21    0
halogenbond:HIS:21    0
Name: 1, dtype: object

>  <hydroph_interaction:LEU:22>  (2) 
hydroph_interaction:LEU:22    0
hydroph_interaction:LEU:22    0
Name: 1, dtype: object

>  <hbond:LEU:22>  (2) 
hbond:LEU:22    0
hbond:LEU:22    0
Name: 1, dtype: object

>  <hydroph_interaction:TRP:28>  (2) 
hydroph_interaction:TRP:28    0
hydroph_interaction:TRP:28    0
Name: 1, dtype: object

>  <hbond:SER:36>  (2) 
hbond:SER:36    0
hbond:SER:36    0
Name: 1, dtype: object

>  <halogenbond:SER:36>  (2) 
halogenbond:SER:36    0
halogenbond:SER:36    0
Name: 1, dtype: object

>  <hbond:ARG:38>  (2) 
hbond:ARG:38    0
hbond:ARG:38    0
Name: 1, dtype: object

>  <halogenbond:ARG:38>  (2) 
halogenbond:ARG:38    0
halogenbond:ARG:38    0
Name: 1, dtype: object

>  <hbond:ASP:39>  (2) 
hbond:ASP:39    0
hbond:ASP:39    0
Name: 1, dtype: object

>  <saltbridge:ASP:39>  (2) 
saltbridge:ASP:39    0
saltbridge:ASP:39    0
Name: 1, dtype: object

>  <hydroph_interaction:ASP:39>  (2) 
hydroph_interaction:ASP:39    0
hydroph_interaction:ASP:39    0
Name: 1, dtype: object

>  <halogenbond:ASP:39>  (2) 
halogenbond:ASP:39    0
halogenbond:ASP:39    0
Name: 1, dtype: object

>  <hydroph_interaction:LEU:40>  (2) 
hydroph_interaction:LEU:40    0
hydroph_interaction:LEU:40    0
Name: 1, dtype: object

>  <hydroph_interaction:TYR:63>  (2) 
hydroph_interaction:TYR:63    0
hydroph_interaction:TYR:63    0
Name: 1, dtype: object

>  <pistack:TYR:63>  (2) 
pistack:TYR:63    0
pistack:TYR:63    0
Name: 1, dtype: object

>  <hbond:TYR:63>  (2) 
hbond:TYR:63    0
hbond:TYR:63    0
Name: 1, dtype: object

>  <hbond:TYR:64>  (2) 
hbond:TYR:64    0
hbond:TYR:64    0
Name: 1, dtype: object

>  <halogenbond:TYR:64>  (2) 
halogenbond:TYR:64    0
halogenbond:TYR:64    0
Name: 1, dtype: object

>  <hydroph_interaction:TYR:64>  (2) 
hydroph_interaction:TYR:64    0
hydroph_interaction:TYR:64    0
Name: 1, dtype: object

>  <hbond:CYS:65>  (2) 
hbond:CYS:65    0
hbond:CYS:65    0
Name: 1, dtype: object

>  <halogenbond:CYS:65>  (2) 
halogenbond:CYS:65    0
halogenbond:CYS:65    0
Name: 1, dtype: object

>  <hbond:SER:66>  (2) 
hbond:SER:66    0
hbond:SER:66    0
Name: 1, dtype: object

>  <hbond:SER:67>  (2) 
hbond:SER:67    0
hbond:SER:67    0
Name: 1, dtype: object

>  <halogenbond:SER:67>  (2) 
halogenbond:SER:67    0
halogenbond:SER:67    0
Name: 1, dtype: object

>  <hydroph_interaction:ARG:68>  (2) 
hydroph_interaction:ARG:68    0
hydroph_interaction:ARG:68    0
Name: 1, dtype: object

>  <hbond:ARG:68>  (2) 
hbond:ARG:68    0
hbond:ARG:68    0
Name: 1, dtype: object

>  <saltbridge:ARG:68>  (2) 
saltbridge:ARG:68    0
saltbridge:ARG:68    0
Name: 1, dtype: object

>  <pication:ARG:68>  (2) 
pication:ARG:68    0
pication:ARG:68    0
Name: 1, dtype: object

>  <hydroph_interaction:TYR:72>  (2) 
hydroph_interaction:TYR:72    0
hydroph_interaction:TYR:72    0
Name: 1, dtype: object

>  <hydroph_interaction:VAL:74>  (2) 
hydroph_interaction:VAL:74    0
hydroph_interaction:VAL:74    0
Name: 1, dtype: object

>  <hydroph_interaction:PHE:76>  (2) 
hydroph_interaction:PHE:76    0
hydroph_interaction:PHE:76    0
Name: 1, dtype: object

>  <hbond:SER:77>  (2) 
hbond:SER:77    0
hbond:SER:77    0
Name: 1, dtype: object

>  <hbond:SER:80>  (2) 
hbond:SER:80    0
hbond:SER:80    0
Name: 1, dtype: object

>  <hbond:LEU:81>  (2) 
hbond:LEU:81    0
hbond:LEU:81    0
Name: 1, dtype: object

>  <halogenbond:LEU:81>  (2) 
halogenbond:LEU:81    0
halogenbond:LEU:81    0
Name: 1, dtype: object

>  <hydroph_interaction:LEU:81>  (2) 
hydroph_interaction:LEU:81    0
hydroph_interaction:LEU:81    0
Name: 1, dtype: object

>  <hydroph_interaction:ILE:82>  (2) 
hydroph_interaction:ILE:82    0
hydroph_interaction:ILE:82    0
Name: 1, dtype: object

>  <hbond:ILE:82>  (2) 
hbond:ILE:82    0
hbond:ILE:82    0
Name: 1, dtype: object

>  <hydroph_interaction:PHE:83>  (2) 
hydroph_interaction:PHE:83    0
hydroph_interaction:PHE:83    0
Name: 1, dtype: object

>  <hbond:PHE:83>  (2) 
hbond:PHE:83    0
hbond:PHE:83    0
Name: 1, dtype: object

>  <halogenbond:PHE:83>  (2) 
halogenbond:PHE:83    0
halogenbond:PHE:83    0
Name: 1, dtype: object

>  <pistack:PHE:83>  (2) 
pistack:PHE:83    0
pistack:PHE:83    0
Name: 1, dtype: object

>  <hydroph_interaction:VAL:84>  (2) 
hydroph_interaction:VAL:84    0
hydroph_interaction:VAL:84    0
Name: 1, dtype: object

>  <hbond:VAL:84>  (2) 
hbond:VAL:84    0
hbond:VAL:84    0
Name: 1, dtype: object

>  <halogenbond:VAL:84>  (2) 
halogenbond:VAL:84    0
halogenbond:VAL:84    0
Name: 1, dtype: object

>  <hydroph_interaction:GLU:85>  (2) 
hydroph_interaction:GLU:85    0
hydroph_interaction:GLU:85    0
Name: 1, dtype: object

>  <hbond:GLU:85>  (2) 
hbond:GLU:85    0
hbond:GLU:85    0
Name: 1, dtype: object

>  <saltbridge:GLU:85>  (2) 
saltbridge:GLU:85    0
saltbridge:GLU:85    0
Name: 1, dtype: object

>  <halogenbond:GLU:85>  (2) 
halogenbond:GLU:85    0
halogenbond:GLU:85    0
Name: 1, dtype: object

>  <hbond:ALA:86>  (2) 
hbond:ALA:86    1
hbond:ALA:86    1
Name: 1, dtype: object

>  <halogenbond:ALA:86>  (2) 
halogenbond:ALA:86    0
halogenbond:ALA:86    0
Name: 1, dtype: object

>  <hydroph_interaction:ALA:86>  (2) 
hydroph_interaction:ALA:86    0
hydroph_interaction:ALA:86    0
Name: 1, dtype: object

>  <hbond:SER:87>  (2) 
hbond:SER:87    0
hbond:SER:87    0
Name: 1, dtype: object

>  <halogenbond:SER:87>  (2) 
halogenbond:SER:87    0
halogenbond:SER:87    0
Name: 1, dtype: object

>  <hbond:GLU:88>  (2) 
hbond:GLU:88    0
hbond:GLU:88    0
Name: 1, dtype: object

>  <hydroph_interaction:GLU:88>  (2) 
hydroph_interaction:GLU:88    0
hydroph_interaction:GLU:88    0
Name: 1, dtype: object

>  <halogenbond:GLU:88>  (2) 
halogenbond:GLU:88    0
halogenbond:GLU:88    0
Name: 1, dtype: object

>  <saltbridge:GLU:88>  (2) 
saltbridge:GLU:88    0
saltbridge:GLU:88    0
Name: 1, dtype: object

>  <hydroph_interaction:TYR:89>  (2) 
hydroph_interaction:TYR:89    0
hydroph_interaction:TYR:89    0
Name: 1, dtype: object

>  <pistack:TYR:89>  (2) 
pistack:TYR:89    0
pistack:TYR:89    0
Name: 1, dtype: object

>  <hbond:TYR:89>  (2) 
hbond:TYR:89    0
hbond:TYR:89    0
Name: 1, dtype: object

>  <halogenbond:TYR:89>  (2) 
halogenbond:TYR:89    0
halogenbond:TYR:89    0
Name: 1, dtype: object

>  <hbond:TYR:90>  (2) 
hbond:TYR:90    0
hbond:TYR:90    0
Name: 1, dtype: object

>  <hydroph_interaction:TYR:90>  (2) 
hydroph_interaction:TYR:90    0
hydroph_interaction:TYR:90    0
Name: 1, dtype: object

>  <pistack:TYR:90>  (2) 
pistack:TYR:90    0
pistack:TYR:90    0
Name: 1, dtype: object

>  <halogenbond:TYR:90>  (2) 
halogenbond:TYR:90    0
halogenbond:TYR:90    0
Name: 1, dtype: object

>  <pication:TYR:90>  (2) 
pication:TYR:90    0
pication:TYR:90    0
Name: 1, dtype: object

>  <hydroph_interaction:PRO:91>  (2) 
hydroph_interaction:PRO:91    0
hydroph_interaction:PRO:91    0
Name: 1, dtype: object

>  <halogenbond:PRO:91>  (2) 
halogenbond:PRO:91    0
halogenbond:PRO:91    0
Name: 1, dtype: object

>  <hbond:PRO:91>  (2) 
hbond:PRO:91    0
hbond:PRO:91    0
Name: 1, dtype: object

>  <hydroph_interaction:ALA:92>  (2) 
hydroph_interaction:ALA:92    0
hydroph_interaction:ALA:92    0
Name: 1, dtype: object

>  <hbond:ARG:93>  (2) 
hbond:ARG:93    0
hbond:ARG:93    0
Name: 1, dtype: object

>  <pication:ARG:93>  (2) 
pication:ARG:93    0
pication:ARG:93    0
Name: 1, dtype: object

>  <saltbridge:ARG:93>  (2) 
saltbridge:ARG:93    0
saltbridge:ARG:93    0
Name: 1, dtype: object

>  <hydroph_interaction:ARG:93>  (2) 
hydroph_interaction:ARG:93    0
hydroph_interaction:ARG:93    0
Name: 1, dtype: object

>  <halogenbond:ARG:93>  (2) 
halogenbond:ARG:93    0
halogenbond:ARG:93    0
Name: 1, dtype: object

>  <hydroph_interaction:TYR:94>  (2) 
hydroph_interaction:TYR:94    0
hydroph_interaction:TYR:94    0
Name: 1, dtype: object

>  <hbond:TYR:94>  (2) 
hbond:TYR:94    0
hbond:TYR:94    0
Name: 1, dtype: object

>  <halogenbond:GLN:95>  (2) 
halogenbond:GLN:95    0
halogenbond:GLN:95    0
Name: 1, dtype: object

>  <hbond:GLN:95>  (2) 
hbond:GLN:95    0
hbond:GLN:95    0
Name: 1, dtype: object

>  <hydroph_interaction:GLN:95>  (2) 
hydroph_interaction:GLN:95    0
hydroph_interaction:GLN:95    0
Name: 1, dtype: object

>  <hbond:SER:96>  (2) 
hbond:SER:96    0
hbond:SER:96    0
Name: 1, dtype: object

>  <hydroph_interaction:LEU:98>  (2) 
hydroph_interaction:LEU:98    0
hydroph_interaction:LEU:98    0
Name: 1, dtype: object

>  <hbond:LEU:98>  (2) 
hbond:LEU:98    0
hbond:LEU:98    0
Name: 1, dtype: object

>  <hbond:MET:99>  (2) 
hbond:MET:99    0
hbond:MET:99    0
Name: 1, dtype: object

>  <hydroph_interaction:MET:99>  (2) 
hydroph_interaction:MET:99    0
hydroph_interaction:MET:99    0
Name: 1, dtype: object

>  <halogenbond:MET:99>  (2) 
halogenbond:MET:99    0
halogenbond:MET:99    0
Name: 1, dtype: object

>  <hydroph_interaction:LEU:100>  (2) 
hydroph_interaction:LEU:100    0
hydroph_interaction:LEU:100    0
Name: 1, dtype: object

>  <hbond:LEU:100>  (2) 
hbond:LEU:100    0
hbond:LEU:100    0
Name: 1, dtype: object

>  <hbond:ALA:101>  (2) 
hbond:ALA:101    0
hbond:ALA:101    0
Name: 1, dtype: object

>  <hydroph_interaction:ALA:101>  (2) 
hydroph_interaction:ALA:101    0
hydroph_interaction:ALA:101    0
Name: 1, dtype: object

>  <hydroph_interaction:VAL:102>  (2) 
hydroph_interaction:VAL:102    0
hydroph_interaction:VAL:102    0
Name: 1, dtype: object

>  <hbond:VAL:102>  (2) 
hbond:VAL:102    0
hbond:VAL:102    0
Name: 1, dtype: object

>  <hbond:GLY:103>  (2) 
hbond:GLY:103    0
hbond:GLY:103    0
Name: 1, dtype: object

>  <halogenbond:GLY:103>  (2) 
halogenbond:GLY:103    0
halogenbond:GLY:103    0
Name: 1, dtype: object

>  <hydroph_interaction:HIS:104>  (2) 
hydroph_interaction:HIS:104    0
hydroph_interaction:HIS:104    0
Name: 1, dtype: object

>  <hbond:HIS:104>  (2) 
hbond:HIS:104    0
hbond:HIS:104    0
Name: 1, dtype: object

>  <saltbridge:HIS:104>  (2) 
saltbridge:HIS:104    0
saltbridge:HIS:104    0
Name: 1, dtype: object

>  <pication:HIS:104>  (2) 
pication:HIS:104    0
pication:HIS:104    0
Name: 1, dtype: object

>  <pistack:HIS:104>  (2) 
pistack:HIS:104    0
pistack:HIS:104    0
Name: 1, dtype: object

>  <halogenbond:HIS:104>  (2) 
halogenbond:HIS:104    0
halogenbond:HIS:104    0
Name: 1, dtype: object

>  <hbond:SER:105>  (2) 
hbond:SER:105    0
hbond:SER:105    0
Name: 1, dtype: object

>  <halogenbond:SER:105>  (2) 
halogenbond:SER:105    0
halogenbond:SER:105    0
Name: 1, dtype: object

>  <hbond:GLU:106>  (2) 
hbond:GLU:106    0
hbond:GLU:106    0
Name: 1, dtype: object

>  <hydroph_interaction:GLU:106>  (2) 
hydroph_interaction:GLU:106    0
hydroph_interaction:GLU:106    0
Name: 1, dtype: object

>  <saltbridge:GLU:106>  (2) 
saltbridge:GLU:106    0
saltbridge:GLU:106    0
Name: 1, dtype: object

>  <halogenbond:GLU:106>  (2) 
halogenbond:GLU:106    0
halogenbond:GLU:106    0
Name: 1, dtype: object

>  <hydroph_interaction:PRO:107>  (2) 
hydroph_interaction:PRO:107    0
hydroph_interaction:PRO:107    0
Name: 1, dtype: object

>  <hbond:PRO:107>  (2) 
hbond:PRO:107    0
hbond:PRO:107    0
Name: 1, dtype: object

>  <halogenbond:PRO:107>  (2) 
halogenbond:PRO:107    0
halogenbond:PRO:107    0
Name: 1, dtype: object

>  <hbond:GLY:108>  (2) 
hbond:GLY:108    0
hbond:GLY:108    0
Name: 1, dtype: object

>  <halogenbond:GLY:108>  (2) 
halogenbond:GLY:108    0
halogenbond:GLY:108    0
Name: 1, dtype: object

>  <hbond:ASP:109>  (2) 
hbond:ASP:109    0
hbond:ASP:109    0
Name: 1, dtype: object

>  <hydroph_interaction:ASP:109>  (2) 
hydroph_interaction:ASP:109    0
hydroph_interaction:ASP:109    0
Name: 1, dtype: object

>  <saltbridge:ASP:109>  (2) 
saltbridge:ASP:109    0
saltbridge:ASP:109    0
Name: 1, dtype: object

>  <hbond:CYS:110>  (2) 
hbond:CYS:110    0
hbond:CYS:110    0
Name: 1, dtype: object

>  <halogenbond:CYS:110>  (2) 
halogenbond:CYS:110    0
halogenbond:CYS:110    0
Name: 1, dtype: object

>  <hbond:GLY:111>  (2) 
hbond:GLY:111    0
hbond:GLY:111    0
Name: 1, dtype: object

>  <hbond:GLY:112>  (2) 
hbond:GLY:112    0
hbond:GLY:112    0
Name: 1, dtype: object

>  <hbond:ILE:113>  (2) 
hbond:ILE:113    0
hbond:ILE:113    0
Name: 1, dtype: object

>  <hydroph_interaction:LEU:114>  (2) 
hydroph_interaction:LEU:114    0
hydroph_interaction:LEU:114    0
Name: 1, dtype: object

>  <hbond:LEU:114>  (2) 
hbond:LEU:114    0
hbond:LEU:114    0
Name: 1, dtype: object

>  <hydroph_interaction:ILE:123>  (2) 
hydroph_interaction:ILE:123    0
hydroph_interaction:ILE:123    0
Name: 1, dtype: object

>  <hbond:ILE:123>  (2) 
hbond:ILE:123    0
hbond:ILE:123    0
Name: 1, dtype: object

>  <hydroph_interaction:VAL:124>  (2) 
hydroph_interaction:VAL:124    1
hydroph_interaction:VAL:124    1
Name: 1, dtype: object

>  <hbond:VAL:124>  (2) 
hbond:VAL:124    0
hbond:VAL:124    0
Name: 1, dtype: object

>  <halogenbond:VAL:124>  (2) 
halogenbond:VAL:124    0
halogenbond:VAL:124    0
Name: 1, dtype: object

>  <hbond:SER:125>  (2) 
hbond:SER:125    0
hbond:SER:125    0
Name: 1, dtype: object

>  <halogenbond:SER:125>  (2) 
halogenbond:SER:125    0
halogenbond:SER:125    0
Name: 1, dtype: object

>  <hydroph_interaction:THR:126>  (2) 
hydroph_interaction:THR:126    0
hydroph_interaction:THR:126    0
Name: 1, dtype: object

>  <hbond:THR:126>  (2) 
hbond:THR:126    0
hbond:THR:126    0
Name: 1, dtype: object

>  <halogenbond:THR:126>  (2) 
halogenbond:THR:126    0
halogenbond:THR:126    0
Name: 1, dtype: object

>  <hbond:GLY:127>  (2) 
hbond:GLY:127    2
hbond:GLY:127    2
Name: 1, dtype: object

>  <halogenbond:GLY:127>  (2) 
halogenbond:GLY:127    0
halogenbond:GLY:127    0
Name: 1, dtype: object

>  <hydroph_interaction:GLY:127>  (2) 
hydroph_interaction:GLY:127    0
hydroph_interaction:GLY:127    0
Name: 1, dtype: object

>  <hbond:GLY:128>  (2) 
hbond:GLY:128    0
hbond:GLY:128    0
Name: 1, dtype: object

>  <halogenbond:GLY:128>  (2) 
halogenbond:GLY:128    0
halogenbond:GLY:128    0
Name: 1, dtype: object

>  <hydroph_interaction:GLY:128>  (2) 
hydroph_interaction:GLY:128    0
hydroph_interaction:GLY:128    0
Name: 1, dtype: object

>  <hbond:ASN:129>  (2) 
hbond:ASN:129    0
hbond:ASN:129    0
Name: 1, dtype: object

>  <hydroph_interaction:ASN:129>  (2) 
hydroph_interaction:ASN:129    0
hydroph_interaction:ASN:129    0
Name: 1, dtype: object

>  <halogenbond:ASN:129>  (2) 
halogenbond:ASN:129    0
halogenbond:ASN:129    0
Name: 1, dtype: object

>  <hbond:GLY:130>  (2) 
hbond:GLY:130    0
hbond:GLY:130    0
Name: 1, dtype: object

>  <hydroph_interaction:LEU:131>  (2) 
hydroph_interaction:LEU:131    0
hydroph_interaction:LEU:131    0
Name: 1, dtype: object

>  <hbond:LEU:131>  (2) 
hbond:LEU:131    0
hbond:LEU:131    0
Name: 1, dtype: object

>  <halogenbond:LEU:131>  (2) 
halogenbond:LEU:131    0
halogenbond:LEU:131    0
Name: 1, dtype: object

>  <hydroph_interaction:VAL:132>  (2) 
hydroph_interaction:VAL:132    0
hydroph_interaction:VAL:132    0
Name: 1, dtype: object

>  <hbond:VAL:132>  (2) 
hbond:VAL:132    0
hbond:VAL:132    0
Name: 1, dtype: object

>  <hbond:GLY:133>  (2) 
hbond:GLY:133    0
hbond:GLY:133    0
Name: 1, dtype: object

>  <halogenbond:GLY:133>  (2) 
halogenbond:GLY:133    0
halogenbond:GLY:133    0
Name: 1, dtype: object

>  <hydroph_interaction:PHE:134>  (2) 
hydroph_interaction:PHE:134    0
hydroph_interaction:PHE:134    0
Name: 1, dtype: object

>  <hbond:PHE:134>  (2) 
hbond:PHE:134    0
hbond:PHE:134    0
Name: 1, dtype: object

>  <pistack:PHE:134>  (2) 
pistack:PHE:134    0
pistack:PHE:134    0
Name: 1, dtype: object

>  <pication:PHE:134>  (2) 
pication:PHE:134    0
pication:PHE:134    0
Name: 1, dtype: object

>  <hydroph_interaction:ALA:135>  (2) 
hydroph_interaction:ALA:135    0
hydroph_interaction:ALA:135    0
Name: 1, dtype: object

>  <hbond:ALA:135>  (2) 
hbond:ALA:135    0
hbond:ALA:135    0
Name: 1, dtype: object

$$$$
Z1208232162
     RDKit          3D

 35 35  0  0  0  0  0  0  0  0999 V2000
    7.0070   11.4260   25.6290 C   0  0  0  0  0  0  0  0  0  0  0  0
    8.1120   11.3080   24.6170 C   0  0  0  0  0  0  0  0  0  0  0  0
    8.6480    9.9880   24.1960 C   0  0  0  0  0  0  0  0  0  0  0  0
    9.6520    9.8970   23.2620 C   0  0  0  0  0  0  0  0  0  0  0  0
   10.2100    8.7410   22.7980 C   0  0  0  0  0  0  0  0  0  0  0  0
   10.1480   11.0480   22.7300 C   0  0  0  0  0  0  0  0  0  0  0  0
    9.7100   12.3040   23.0650 C   0  0  0  0  0  0  0  0  0  0  0  0
   10.3010   13.3310   22.4490 N   0  0  0  0  0  0  0  0  0  0  0  0
   11.2420   14.1200   23.2330 C   0  0  0  0  0  0  0  0  0  0  0  0
   12.2640   14.8290   22.3640 C   0  0  0  0  0  0  0  0  0  0  0  0
   12.1140   16.2440   21.9480 C   0  0  0  0  0  0  0  0  0  0  0  0
   12.4890   14.0970   21.0420 C   0  0  0  0  0  0  0  0  0  0  0  0
   13.5500   14.7490   23.1450 C   0  0  0  0  0  0  0  0  0  0  0  0
    8.6840   12.4350   24.0170 C   0  0  0  0  0  0  0  0  0  0  0  0
    6.1830   12.0050   25.2030 H   0  0  0  0  0  0  0  0  0  0  0  0
    7.3790   11.9450   26.5120 H   0  0  0  0  0  0  0  0  0  0  0  0
    6.6230   10.4410   25.9050 H   0  0  0  0  0  0  0  0  0  0  0  0
    8.1890    9.1270   24.6710 H   0  0  0  0  0  0  0  0  0  0  0  0
    9.5460    8.3040   22.0460 H   0  0  0  0  0  0  0  0  0  0  0  0
   10.4810    7.9640   23.4890 H   0  0  0  0  0  0  0  0  0  0  0  0
   11.1160    9.0110   22.2660 H   0  0  0  0  0  0  0  0  0  0  0  0
   10.9320   10.9560   21.9990 H   0  0  0  0  0  0  0  0  0  0  0  0
   10.7080   13.0030   21.5590 H   0  0  0  0  0  0  0  0  0  0  0  0
   10.6720   14.7270   23.9270 H   0  0  0  0  0  0  0  0  0  0  0  0
   11.8070   13.4090   23.8470 H   0  0  0  0  0  0  0  0  0  0  0  0
   12.0470   17.0090   22.7090 H   0  0  0  0  0  0  0  0  0  0  0  0
   11.2230   16.3310   21.3180 H   0  0  0  0  0  0  0  0  0  0  0  0
   12.9650   16.4850   21.3100 H   0  0  0  0  0  0  0  0  0  0  0  0
   13.2150   14.5240   20.3560 H   0  0  0  0  0  0  0  0  0  0  0  0
   12.8080   13.0610   21.1100 H   0  0  0  0  0  0  0  0  0  0  0  0
   11.5450   14.1110   20.4920 H   0  0  0  0  0  0  0  0  0  0  0  0
   13.4520   15.1990   24.1410 H   0  0  0  0  0  0  0  0  0  0  0  0
   13.8640   13.7210   23.2810 H   0  0  0  0  0  0  0  0  0  0  0  0
   14.3230   15.2850   22.6030 H   0  0  0  0  0  0  0  0  0  0  0  0
    8.3170   13.4170   24.3010 H   0  0  0  0  0  0  0  0  0  0  0  0
  1  2  1  0
  2  3  2  0
  3  4  1  0
  4  5  1  0
  4  6  2  0
  6  7  1  0
  7  8  1  0
  8  9  1  0
  9 10  1  0
 10 11  1  0
 10 12  1  0
 10 13  1  0
  7 14  2  0
 14  2  1  0
  1 15  1  0
  1 16  1  0
  1 17  1  0
  3 18  1  0
  5 19  1  0
  5 20  1  0
  5 21  1  0
  6 22  1  0
  8 23  1  0
  9 24  1  0
  9 25  1  0
 11 26  1  0
 11 27  1  0
 11 28  1  0
 12 29  1  0
 12 30  1  0
 12 31  1  0
 13 32  1  0
 13 33  1  0
 13 34  1  0
 14 35  1  0
A    1
 C1 
A    2
 C2 
A    3
 C3 
A    4
 C4 
A    5
 C5 
A    6
 C6 
A    7
 C7 
A    8
 N1 
A    9
 C8 
A   10
 C9 
A   11
 C10
A   12
 C11
A   13
 C12
A   14
 C13
A   15
 H1 
A   16
 H2 
A   17
 H3 
A   18
 H4 
A   19
 H5 
A   20
 H6 
A   21
 H7 
A   22
 H8 
A   23
 H9 
A   24
 H10
A   25
 H11
A   26
 H12
A   27
 H13
A   28
 H14
A   29
 H15
A   30
 H16
A   31
 H17
A   32
 H18
A   33
 H19
A   34
 H20
A   35
 H21
M  END
>  <ref_pdb>  (3) 
x0310_0A

>  <ref_mols>  (3) 
x0554_0A,x0739_0A

>  <original SMILES>  (3) 
Cc1cc(C)cc(NCC(C)(C)C)c1

>  <rationale>  (3) 
info hbond:S125+S87; hydroph_interaction:V124+Y89+Y90; 

>  <intxn_cluster>  (3) 
103

>  <intxn_cluster_rank>  (3) 
3

>  <N_interactions>  (3) 
6

>  <∆∆G>  (3) 
-14.697596

>  <$/mg>  (3) 
163.0

>  <comRMSD>  (3) 
0.778491

>  <N_rotatable_bonds>  (3) 
4

>  <hbond:SER:7>  (3) 
hbond:SER:7    0
hbond:SER:7    0
Name: 2, dtype: object

>  <halogenbond:SER:7>  (3) 
halogenbond:SER:7    0
halogenbond:SER:7    0
Name: 2, dtype: object

>  <hbond:GLY:8>  (3) 
hbond:GLY:8    0
hbond:GLY:8    0
Name: 2, dtype: object

>  <hydroph_interaction:ASN:19>  (3) 
hydroph_interaction:ASN:19    0
hydroph_interaction:ASN:19    0
Name: 2, dtype: object

>  <hbond:ASN:19>  (3) 
hbond:ASN:19    0
hbond:ASN:19    0
Name: 2, dtype: object

>  <halogenbond:ASN:19>  (3) 
halogenbond:ASN:19    0
halogenbond:ASN:19    0
Name: 2, dtype: object

>  <hbond:ARG:20>  (3) 
hbond:ARG:20    0
hbond:ARG:20    0
Name: 2, dtype: object

>  <hydroph_interaction:ARG:20>  (3) 
hydroph_interaction:ARG:20    0
hydroph_interaction:ARG:20    0
Name: 2, dtype: object

>  <saltbridge:ARG:20>  (3) 
saltbridge:ARG:20    0
saltbridge:ARG:20    0
Name: 2, dtype: object

>  <halogenbond:ARG:20>  (3) 
halogenbond:ARG:20    0
halogenbond:ARG:20    0
Name: 2, dtype: object

>  <pication:ARG:20>  (3) 
pication:ARG:20    0
pication:ARG:20    0
Name: 2, dtype: object

>  <hbond:HIS:21>  (3) 
hbond:HIS:21    0
hbond:HIS:21    0
Name: 2, dtype: object

>  <hydroph_interaction:HIS:21>  (3) 
hydroph_interaction:HIS:21    0
hydroph_interaction:HIS:21    0
Name: 2, dtype: object

>  <saltbridge:HIS:21>  (3) 
saltbridge:HIS:21    0
saltbridge:HIS:21    0
Name: 2, dtype: object

>  <pistack:HIS:21>  (3) 
pistack:HIS:21    0
pistack:HIS:21    0
Name: 2, dtype: object

>  <pication:HIS:21>  (3) 
pication:HIS:21    0
pication:HIS:21    0
Name: 2, dtype: object

>  <halogenbond:HIS:21>  (3) 
halogenbond:HIS:21    0
halogenbond:HIS:21    0
Name: 2, dtype: object

>  <hydroph_interaction:LEU:22>  (3) 
hydroph_interaction:LEU:22    0
hydroph_interaction:LEU:22    0
Name: 2, dtype: object

>  <hbond:LEU:22>  (3) 
hbond:LEU:22    0
hbond:LEU:22    0
Name: 2, dtype: object

>  <hydroph_interaction:TRP:28>  (3) 
hydroph_interaction:TRP:28    0
hydroph_interaction:TRP:28    0
Name: 2, dtype: object

>  <hbond:SER:36>  (3) 
hbond:SER:36    0
hbond:SER:36    0
Name: 2, dtype: object

>  <halogenbond:SER:36>  (3) 
halogenbond:SER:36    0
halogenbond:SER:36    0
Name: 2, dtype: object

>  <hbond:ARG:38>  (3) 
hbond:ARG:38    0
hbond:ARG:38    0
Name: 2, dtype: object

>  <halogenbond:ARG:38>  (3) 
halogenbond:ARG:38    0
halogenbond:ARG:38    0
Name: 2, dtype: object

>  <hbond:ASP:39>  (3) 
hbond:ASP:39    0
hbond:ASP:39    0
Name: 2, dtype: object

>  <saltbridge:ASP:39>  (3) 
saltbridge:ASP:39    0
saltbridge:ASP:39    0
Name: 2, dtype: object

>  <hydroph_interaction:ASP:39>  (3) 
hydroph_interaction:ASP:39    0
hydroph_interaction:ASP:39    0
Name: 2, dtype: object

>  <halogenbond:ASP:39>  (3) 
halogenbond:ASP:39    0
halogenbond:ASP:39    0
Name: 2, dtype: object

>  <hydroph_interaction:LEU:40>  (3) 
hydroph_interaction:LEU:40    0
hydroph_interaction:LEU:40    0
Name: 2, dtype: object

>  <hydroph_interaction:TYR:63>  (3) 
hydroph_interaction:TYR:63    0
hydroph_interaction:TYR:63    0
Name: 2, dtype: object

>  <pistack:TYR:63>  (3) 
pistack:TYR:63    0
pistack:TYR:63    0
Name: 2, dtype: object

>  <hbond:TYR:63>  (3) 
hbond:TYR:63    0
hbond:TYR:63    0
Name: 2, dtype: object

>  <hbond:TYR:64>  (3) 
hbond:TYR:64    0
hbond:TYR:64    0
Name: 2, dtype: object

>  <halogenbond:TYR:64>  (3) 
halogenbond:TYR:64    0
halogenbond:TYR:64    0
Name: 2, dtype: object

>  <hydroph_interaction:TYR:64>  (3) 
hydroph_interaction:TYR:64    0
hydroph_interaction:TYR:64    0
Name: 2, dtype: object

>  <hbond:CYS:65>  (3) 
hbond:CYS:65    0
hbond:CYS:65    0
Name: 2, dtype: object

>  <halogenbond:CYS:65>  (3) 
halogenbond:CYS:65    0
halogenbond:CYS:65    0
Name: 2, dtype: object

>  <hbond:SER:66>  (3) 
hbond:SER:66    0
hbond:SER:66    0
Name: 2, dtype: object

>  <hbond:SER:67>  (3) 
hbond:SER:67    0
hbond:SER:67    0
Name: 2, dtype: object

>  <halogenbond:SER:67>  (3) 
halogenbond:SER:67    0
halogenbond:SER:67    0
Name: 2, dtype: object

>  <hydroph_interaction:ARG:68>  (3) 
hydroph_interaction:ARG:68    0
hydroph_interaction:ARG:68    0
Name: 2, dtype: object

>  <hbond:ARG:68>  (3) 
hbond:ARG:68    0
hbond:ARG:68    0
Name: 2, dtype: object

>  <saltbridge:ARG:68>  (3) 
saltbridge:ARG:68    0
saltbridge:ARG:68    0
Name: 2, dtype: object

>  <pication:ARG:68>  (3) 
pication:ARG:68    0
pication:ARG:68    0
Name: 2, dtype: object

>  <hydroph_interaction:TYR:72>  (3) 
hydroph_interaction:TYR:72    0
hydroph_interaction:TYR:72    0
Name: 2, dtype: object

>  <hydroph_interaction:VAL:74>  (3) 
hydroph_interaction:VAL:74    0
hydroph_interaction:VAL:74    0
Name: 2, dtype: object

>  <hydroph_interaction:PHE:76>  (3) 
hydroph_interaction:PHE:76    0
hydroph_interaction:PHE:76    0
Name: 2, dtype: object

>  <hbond:SER:77>  (3) 
hbond:SER:77    0
hbond:SER:77    0
Name: 2, dtype: object

>  <hbond:SER:80>  (3) 
hbond:SER:80    0
hbond:SER:80    0
Name: 2, dtype: object

>  <hbond:LEU:81>  (3) 
hbond:LEU:81    0
hbond:LEU:81    0
Name: 2, dtype: object

>  <halogenbond:LEU:81>  (3) 
halogenbond:LEU:81    0
halogenbond:LEU:81    0
Name: 2, dtype: object

>  <hydroph_interaction:LEU:81>  (3) 
hydroph_interaction:LEU:81    0
hydroph_interaction:LEU:81    0
Name: 2, dtype: object

>  <hydroph_interaction:ILE:82>  (3) 
hydroph_interaction:ILE:82    0
hydroph_interaction:ILE:82    0
Name: 2, dtype: object

>  <hbond:ILE:82>  (3) 
hbond:ILE:82    0
hbond:ILE:82    0
Name: 2, dtype: object

>  <hydroph_interaction:PHE:83>  (3) 
hydroph_interaction:PHE:83    0
hydroph_interaction:PHE:83    0
Name: 2, dtype: object

>  <hbond:PHE:83>  (3) 
hbond:PHE:83    0
hbond:PHE:83    0
Name: 2, dtype: object

>  <halogenbond:PHE:83>  (3) 
halogenbond:PHE:83    0
halogenbond:PHE:83    0
Name: 2, dtype: object

>  <pistack:PHE:83>  (3) 
pistack:PHE:83    0
pistack:PHE:83    0
Name: 2, dtype: object

>  <hydroph_interaction:VAL:84>  (3) 
hydroph_interaction:VAL:84    0
hydroph_interaction:VAL:84    0
Name: 2, dtype: object

>  <hbond:VAL:84>  (3) 
hbond:VAL:84    0
hbond:VAL:84    0
Name: 2, dtype: object

>  <halogenbond:VAL:84>  (3) 
halogenbond:VAL:84    0
halogenbond:VAL:84    0
Name: 2, dtype: object

>  <hydroph_interaction:GLU:85>  (3) 
hydroph_interaction:GLU:85    0
hydroph_interaction:GLU:85    0
Name: 2, dtype: object

>  <hbond:GLU:85>  (3) 
hbond:GLU:85    0
hbond:GLU:85    0
Name: 2, dtype: object

>  <saltbridge:GLU:85>  (3) 
saltbridge:GLU:85    0
saltbridge:GLU:85    0
Name: 2, dtype: object

>  <halogenbond:GLU:85>  (3) 
halogenbond:GLU:85    0
halogenbond:GLU:85    0
Name: 2, dtype: object

>  <hbond:ALA:86>  (3) 
hbond:ALA:86    0
hbond:ALA:86    0
Name: 2, dtype: object

>  <halogenbond:ALA:86>  (3) 
halogenbond:ALA:86    0
halogenbond:ALA:86    0
Name: 2, dtype: object

>  <hydroph_interaction:ALA:86>  (3) 
hydroph_interaction:ALA:86    0
hydroph_interaction:ALA:86    0
Name: 2, dtype: object

>  <hbond:SER:87>  (3) 
hbond:SER:87    1
hbond:SER:87    1
Name: 2, dtype: object

>  <halogenbond:SER:87>  (3) 
halogenbond:SER:87    0
halogenbond:SER:87    0
Name: 2, dtype: object

>  <hbond:GLU:88>  (3) 
hbond:GLU:88    0
hbond:GLU:88    0
Name: 2, dtype: object

>  <hydroph_interaction:GLU:88>  (3) 
hydroph_interaction:GLU:88    0
hydroph_interaction:GLU:88    0
Name: 2, dtype: object

>  <halogenbond:GLU:88>  (3) 
halogenbond:GLU:88    0
halogenbond:GLU:88    0
Name: 2, dtype: object

>  <saltbridge:GLU:88>  (3) 
saltbridge:GLU:88    0
saltbridge:GLU:88    0
Name: 2, dtype: object

>  <hydroph_interaction:TYR:89>  (3) 
hydroph_interaction:TYR:89    2
hydroph_interaction:TYR:89    2
Name: 2, dtype: object

>  <pistack:TYR:89>  (3) 
pistack:TYR:89    0
pistack:TYR:89    0
Name: 2, dtype: object

>  <hbond:TYR:89>  (3) 
hbond:TYR:89    0
hbond:TYR:89    0
Name: 2, dtype: object

>  <halogenbond:TYR:89>  (3) 
halogenbond:TYR:89    0
halogenbond:TYR:89    0
Name: 2, dtype: object

>  <hbond:TYR:90>  (3) 
hbond:TYR:90    0
hbond:TYR:90    0
Name: 2, dtype: object

>  <hydroph_interaction:TYR:90>  (3) 
hydroph_interaction:TYR:90    1
hydroph_interaction:TYR:90    1
Name: 2, dtype: object

>  <pistack:TYR:90>  (3) 
pistack:TYR:90    0
pistack:TYR:90    0
Name: 2, dtype: object

>  <halogenbond:TYR:90>  (3) 
halogenbond:TYR:90    0
halogenbond:TYR:90    0
Name: 2, dtype: object

>  <pication:TYR:90>  (3) 
pication:TYR:90    0
pication:TYR:90    0
Name: 2, dtype: object

>  <hydroph_interaction:PRO:91>  (3) 
hydroph_interaction:PRO:91    0
hydroph_interaction:PRO:91    0
Name: 2, dtype: object

>  <halogenbond:PRO:91>  (3) 
halogenbond:PRO:91    0
halogenbond:PRO:91    0
Name: 2, dtype: object

>  <hbond:PRO:91>  (3) 
hbond:PRO:91    0
hbond:PRO:91    0
Name: 2, dtype: object

>  <hydroph_interaction:ALA:92>  (3) 
hydroph_interaction:ALA:92    0
hydroph_interaction:ALA:92    0
Name: 2, dtype: object

>  <hbond:ARG:93>  (3) 
hbond:ARG:93    0
hbond:ARG:93    0
Name: 2, dtype: object

>  <pication:ARG:93>  (3) 
pication:ARG:93    0
pication:ARG:93    0
Name: 2, dtype: object

>  <saltbridge:ARG:93>  (3) 
saltbridge:ARG:93    0
saltbridge:ARG:93    0
Name: 2, dtype: object

>  <hydroph_interaction:ARG:93>  (3) 
hydroph_interaction:ARG:93    0
hydroph_interaction:ARG:93    0
Name: 2, dtype: object

>  <halogenbond:ARG:93>  (3) 
halogenbond:ARG:93    0
halogenbond:ARG:93    0
Name: 2, dtype: object

>  <hydroph_interaction:TYR:94>  (3) 
hydroph_interaction:TYR:94    0
hydroph_interaction:TYR:94    0
Name: 2, dtype: object

>  <hbond:TYR:94>  (3) 
hbond:TYR:94    0
hbond:TYR:94    0
Name: 2, dtype: object

>  <halogenbond:GLN:95>  (3) 
halogenbond:GLN:95    0
halogenbond:GLN:95    0
Name: 2, dtype: object

>  <hbond:GLN:95>  (3) 
hbond:GLN:95    0
hbond:GLN:95    0
Name: 2, dtype: object

>  <hydroph_interaction:GLN:95>  (3) 
hydroph_interaction:GLN:95    0
hydroph_interaction:GLN:95    0
Name: 2, dtype: object

>  <hbond:SER:96>  (3) 
hbond:SER:96    0
hbond:SER:96    0
Name: 2, dtype: object

>  <hydroph_interaction:LEU:98>  (3) 
hydroph_interaction:LEU:98    0
hydroph_interaction:LEU:98    0
Name: 2, dtype: object

>  <hbond:LEU:98>  (3) 
hbond:LEU:98    0
hbond:LEU:98    0
Name: 2, dtype: object

>  <hbond:MET:99>  (3) 
hbond:MET:99    0
hbond:MET:99    0
Name: 2, dtype: object

>  <hydroph_interaction:MET:99>  (3) 
hydroph_interaction:MET:99    0
hydroph_interaction:MET:99    0
Name: 2, dtype: object

>  <halogenbond:MET:99>  (3) 
halogenbond:MET:99    0
halogenbond:MET:99    0
Name: 2, dtype: object

>  <hydroph_interaction:LEU:100>  (3) 
hydroph_interaction:LEU:100    0
hydroph_interaction:LEU:100    0
Name: 2, dtype: object

>  <hbond:LEU:100>  (3) 
hbond:LEU:100    0
hbond:LEU:100    0
Name: 2, dtype: object

>  <hbond:ALA:101>  (3) 
hbond:ALA:101    0
hbond:ALA:101    0
Name: 2, dtype: object

>  <hydroph_interaction:ALA:101>  (3) 
hydroph_interaction:ALA:101    0
hydroph_interaction:ALA:101    0
Name: 2, dtype: object

>  <hydroph_interaction:VAL:102>  (3) 
hydroph_interaction:VAL:102    0
hydroph_interaction:VAL:102    0
Name: 2, dtype: object

>  <hbond:VAL:102>  (3) 
hbond:VAL:102    0
hbond:VAL:102    0
Name: 2, dtype: object

>  <hbond:GLY:103>  (3) 
hbond:GLY:103    0
hbond:GLY:103    0
Name: 2, dtype: object

>  <halogenbond:GLY:103>  (3) 
halogenbond:GLY:103    0
halogenbond:GLY:103    0
Name: 2, dtype: object

>  <hydroph_interaction:HIS:104>  (3) 
hydroph_interaction:HIS:104    0
hydroph_interaction:HIS:104    0
Name: 2, dtype: object

>  <hbond:HIS:104>  (3) 
hbond:HIS:104    0
hbond:HIS:104    0
Name: 2, dtype: object

>  <saltbridge:HIS:104>  (3) 
saltbridge:HIS:104    0
saltbridge:HIS:104    0
Name: 2, dtype: object

>  <pication:HIS:104>  (3) 
pication:HIS:104    0
pication:HIS:104    0
Name: 2, dtype: object

>  <pistack:HIS:104>  (3) 
pistack:HIS:104    0
pistack:HIS:104    0
Name: 2, dtype: object

>  <halogenbond:HIS:104>  (3) 
halogenbond:HIS:104    0
halogenbond:HIS:104    0
Name: 2, dtype: object

>  <hbond:SER:105>  (3) 
hbond:SER:105    0
hbond:SER:105    0
Name: 2, dtype: object

>  <halogenbond:SER:105>  (3) 
halogenbond:SER:105    0
halogenbond:SER:105    0
Name: 2, dtype: object

>  <hbond:GLU:106>  (3) 
hbond:GLU:106    0
hbond:GLU:106    0
Name: 2, dtype: object

>  <hydroph_interaction:GLU:106>  (3) 
hydroph_interaction:GLU:106    0
hydroph_interaction:GLU:106    0
Name: 2, dtype: object

>  <saltbridge:GLU:106>  (3) 
saltbridge:GLU:106    0
saltbridge:GLU:106    0
Name: 2, dtype: object

>  <halogenbond:GLU:106>  (3) 
halogenbond:GLU:106    0
halogenbond:GLU:106    0
Name: 2, dtype: object

>  <hydroph_interaction:PRO:107>  (3) 
hydroph_interaction:PRO:107    0
hydroph_interaction:PRO:107    0
Name: 2, dtype: object

>  <hbond:PRO:107>  (3) 
hbond:PRO:107    0
hbond:PRO:107    0
Name: 2, dtype: object

>  <halogenbond:PRO:107>  (3) 
halogenbond:PRO:107    0
halogenbond:PRO:107    0
Name: 2, dtype: object

>  <hbond:GLY:108>  (3) 
hbond:GLY:108    0
hbond:GLY:108    0
Name: 2, dtype: object

>  <halogenbond:GLY:108>  (3) 
halogenbond:GLY:108    0
halogenbond:GLY:108    0
Name: 2, dtype: object

>  <hbond:ASP:109>  (3) 
hbond:ASP:109    0
hbond:ASP:109    0
Name: 2, dtype: object

>  <hydroph_interaction:ASP:109>  (3) 
hydroph_interaction:ASP:109    0
hydroph_interaction:ASP:109    0
Name: 2, dtype: object

>  <saltbridge:ASP:109>  (3) 
saltbridge:ASP:109    0
saltbridge:ASP:109    0
Name: 2, dtype: object

>  <hbond:CYS:110>  (3) 
hbond:CYS:110    0
hbond:CYS:110    0
Name: 2, dtype: object

>  <halogenbond:CYS:110>  (3) 
halogenbond:CYS:110    0
halogenbond:CYS:110    0
Name: 2, dtype: object

>  <hbond:GLY:111>  (3) 
hbond:GLY:111    0
hbond:GLY:111    0
Name: 2, dtype: object

>  <hbond:GLY:112>  (3) 
hbond:GLY:112    0
hbond:GLY:112    0
Name: 2, dtype: object

>  <hbond:ILE:113>  (3) 
hbond:ILE:113    0
hbond:ILE:113    0
Name: 2, dtype: object

>  <hydroph_interaction:LEU:114>  (3) 
hydroph_interaction:LEU:114    0
hydroph_interaction:LEU:114    0
Name: 2, dtype: object

>  <hbond:LEU:114>  (3) 
hbond:LEU:114    0
hbond:LEU:114    0
Name: 2, dtype: object

>  <hydroph_interaction:ILE:123>  (3) 
hydroph_interaction:ILE:123    0
hydroph_interaction:ILE:123    0
Name: 2, dtype: object

>  <hbond:ILE:123>  (3) 
hbond:ILE:123    0
hbond:ILE:123    0
Name: 2, dtype: object

>  <hydroph_interaction:VAL:124>  (3) 
hydroph_interaction:VAL:124    1
hydroph_interaction:VAL:124    1
Name: 2, dtype: object

>  <hbond:VAL:124>  (3) 
hbond:VAL:124    0
hbond:VAL:124    0
Name: 2, dtype: object

>  <halogenbond:VAL:124>  (3) 
halogenbond:VAL:124    0
halogenbond:VAL:124    0
Name: 2, dtype: object

>  <hbond:SER:125>  (3) 
hbond:SER:125    1
hbond:SER:125    1
Name: 2, dtype: object

>  <halogenbond:SER:125>  (3) 
halogenbond:SER:125    0
halogenbond:SER:125    0
Name: 2, dtype: object

>  <hydroph_interaction:THR:126>  (3) 
hydroph_interaction:THR:126    0
hydroph_interaction:THR:126    0
Name: 2, dtype: object

>  <hbond:THR:126>  (3) 
hbond:THR:126    0
hbond:THR:126    0
Name: 2, dtype: object

>  <halogenbond:THR:126>  (3) 
halogenbond:THR:126    0
halogenbond:THR:126    0
Name: 2, dtype: object

>  <hbond:GLY:127>  (3) 
hbond:GLY:127    0
hbond:GLY:127    0
Name: 2, dtype: object

>  <halogenbond:GLY:127>  (3) 
halogenbond:GLY:127    0
halogenbond:GLY:127    0
Name: 2, dtype: object

>  <hydroph_interaction:GLY:127>  (3) 
hydroph_interaction:GLY:127    0
hydroph_interaction:GLY:127    0
Name: 2, dtype: object

>  <hbond:GLY:128>  (3) 
hbond:GLY:128    0
hbond:GLY:128    0
Name: 2, dtype: object

>  <halogenbond:GLY:128>  (3) 
halogenbond:GLY:128    0
halogenbond:GLY:128    0
Name: 2, dtype: object

>  <hydroph_interaction:GLY:128>  (3) 
hydroph_interaction:GLY:128    0
hydroph_interaction:GLY:128    0
Name: 2, dtype: object

>  <hbond:ASN:129>  (3) 
hbond:ASN:129    0
hbond:ASN:129    0
Name: 2, dtype: object

>  <hydroph_interaction:ASN:129>  (3) 
hydroph_interaction:ASN:129    0
hydroph_interaction:ASN:129    0
Name: 2, dtype: object

>  <halogenbond:ASN:129>  (3) 
halogenbond:ASN:129    0
halogenbond:ASN:129    0
Name: 2, dtype: object

>  <hbond:GLY:130>  (3) 
hbond:GLY:130    0
hbond:GLY:130    0
Name: 2, dtype: object

>  <hydroph_interaction:LEU:131>  (3) 
hydroph_interaction:LEU:131    0
hydroph_interaction:LEU:131    0
Name: 2, dtype: object

>  <hbond:LEU:131>  (3) 
hbond:LEU:131    0
hbond:LEU:131    0
Name: 2, dtype: object

>  <halogenbond:LEU:131>  (3) 
halogenbond:LEU:131    0
halogenbond:LEU:131    0
Name: 2, dtype: object

>  <hydroph_interaction:VAL:132>  (3) 
hydroph_interaction:VAL:132    0
hydroph_interaction:VAL:132    0
Name: 2, dtype: object

>  <hbond:VAL:132>  (3) 
hbond:VAL:132    0
hbond:VAL:132    0
Name: 2, dtype: object

>  <hbond:GLY:133>  (3) 
hbond:GLY:133    0
hbond:GLY:133    0
Name: 2, dtype: object

>  <halogenbond:GLY:133>  (3) 
halogenbond:GLY:133    0
halogenbond:GLY:133    0
Name: 2, dtype: object

>  <hydroph_interaction:PHE:134>  (3) 
hydroph_interaction:PHE:134    0
hydroph_interaction:PHE:134    0
Name: 2, dtype: object

>  <hbond:PHE:134>  (3) 
hbond:PHE:134    0
hbond:PHE:134    0
Name: 2, dtype: object

>  <pistack:PHE:134>  (3) 
pistack:PHE:134    0
pistack:PHE:134    0
Name: 2, dtype: object

>  <pication:PHE:134>  (3) 
pication:PHE:134    0
pication:PHE:134    0
Name: 2, dtype: object

>  <hydroph_interaction:ALA:135>  (3) 
hydroph_interaction:ALA:135    0
hydroph_interaction:ALA:135    0
Name: 2, dtype: object

>  <hbond:ALA:135>  (3) 
hbond:ALA:135    0
hbond:ALA:135    0
Name: 2, dtype: object

$$$$
PV_005192650565
     RDKit          3D

 30 32  0  0  0  0  0  0  0  0999 V2000
   13.3120   16.2420   20.4960 C   0  0  0  0  0  0  0  0  0  0  0  0
   12.2900   15.3600   21.0740 C   0  0  0  0  0  0  0  0  0  0  0  0
   10.9210   15.3840   20.7300 C   0  0  0  0  0  0  0  0  0  0  0  0
   10.0300   14.4800   21.3410 C   0  0  0  0  0  0  0  0  0  0  0  0
   10.5390   13.5640   22.2810 C   0  0  0  0  0  0  0  0  0  0  0  0
    9.8110   12.5310   22.9940 C   0  0  0  0  0  0  0  0  0  0  0  0
   10.2140   11.3020   22.6760 N   0  0  0  0  0  0  0  0  0  0  0  0
    9.4820   10.4940   23.3940 N   0  0  0  0  0  0  0  0  0  0  0  0
    9.7260    9.1010   23.2310 C   0  0  0  0  0  0  0  0  0  0  0  0
    8.5790   11.1160   24.2040 C   0  0  0  0  0  0  0  0  0  0  0  0
    7.6340   10.6440   25.0990 C   0  0  0  0  0  0  0  0  0  0  0  0
    6.8800   11.5960   25.7580 C   0  0  0  0  0  0  0  0  0  0  0  0
    7.1110   12.9350   25.4920 C   0  0  0  0  0  0  0  0  0  0  0  0
    8.0270   13.4200   24.6240 N   0  0  0  0  0  0  0  0  0  0  0  0
    8.7630   12.4760   23.9750 C   0  0  0  0  0  0  0  0  0  0  0  0
   11.8830   13.5940   22.5800 C   0  0  0  0  0  0  0  0  0  0  0  0
   12.7450   14.4670   22.0000 C   0  0  0  0  0  0  0  0  0  0  0  0
   13.5340   15.9360   19.4780 H   0  0  0  0  0  0  0  0  0  0  0  0
   12.9910   17.2850   20.5030 H   0  0  0  0  0  0  0  0  0  0  0  0
   14.2260   16.1460   21.0730 H   0  0  0  0  0  0  0  0  0  0  0  0
   10.5430   16.0920   19.9950 H   0  0  0  0  0  0  0  0  0  0  0  0
    8.9760   14.4940   21.0740 H   0  0  0  0  0  0  0  0  0  0  0  0
    9.2170    8.5830   24.0340 H   0  0  0  0  0  0  0  0  0  0  0  0
   10.8060    8.9320   23.2880 H   0  0  0  0  0  0  0  0  0  0  0  0
    9.3400    8.7620   22.2700 H   0  0  0  0  0  0  0  0  0  0  0  0
    7.4920    9.5960   25.2720 H   0  0  0  0  0  0  0  0  0  0  0  0
    6.1200   11.3030   26.4750 H   0  0  0  0  0  0  0  0  0  0  0  0
    6.5290   13.6980   26.0020 H   0  0  0  0  0  0  0  0  0  0  0  0
   12.2940   12.8970   23.3060 H   0  0  0  0  0  0  0  0  0  0  0  0
   13.7950   14.4410   22.2760 H   0  0  0  0  0  0  0  0  0  0  0  0
  1  2  1  0
  2  3  2  0
  3  4  1  0
  4  5  2  0
  5  6  1  0
  6  7  2  0
  7  8  1  0
  8  9  1  0
  8 10  1  0
 10 11  2  0
 11 12  1  0
 12 13  2  0
 13 14  1  0
 14 15  2  0
  5 16  1  0
 16 17  2  0
 17  2  1  0
 15  6  1  0
 15 10  1  0
  1 18  1  0
  1 19  1  0
  1 20  1  0
  3 21  1  0
  4 22  1  0
  9 23  1  0
  9 24  1  0
  9 25  1  0
 11 26  1  0
 12 27  1  0
 13 28  1  0
 16 29  1  0
 17 30  1  0
A    1
 C1 
A    2
 C2 
A    3
 C3 
A    4
 C4 
A    5
 C5 
A    6
 C6 
A    7
 N1 
A    8
 N2 
A    9
 C7 
A   10
 C8 
A   11
 C9 
A   12
 C10
A   13
 C11
A   14
 N3 
A   15
 C12
A   16
 C13
A   17
 C14
A   18
 H1 
A   19
 H2 
A   20
 H3 
A   21
 H4 
A   22
 H5 
A   23
 H6 
A   24
 H7 
A   25
 H8 
A   26
 H9 
A   27
 H10
A   28
 H11
A   29
 H12
A   30
 H13
M  END
>  <ref_pdb>  (4) 
x0310_0A

>  <ref_mols>  (4) 
x0451_0A,x0812_0A

>  <original SMILES>  (4) 
Cc1ccc(-c2nn(C)c3cccnc23)cc1

>  <rationale>  (4) 
info hydroph_interaction:Y89+Y90+H21; 

>  <intxn_cluster>  (4) 
208

>  <intxn_cluster_rank>  (4) 
6

>  <N_interactions>  (4) 
3

>  <∆∆G>  (4) 
-11.325735

>  <$/mg>  (4) 
163.0

>  <comRMSD>  (4) 
0.834493

>  <N_rotatable_bonds>  (4) 
3

>  <hbond:SER:7>  (4) 
hbond:SER:7    0
hbond:SER:7    0
Name: 3, dtype: object

>  <halogenbond:SER:7>  (4) 
halogenbond:SER:7    0
halogenbond:SER:7    0
Name: 3, dtype: object

>  <hbond:GLY:8>  (4) 
hbond:GLY:8    0
hbond:GLY:8    0
Name: 3, dtype: object

>  <hydroph_interaction:ASN:19>  (4) 
hydroph_interaction:ASN:19    0
hydroph_interaction:ASN:19    0
Name: 3, dtype: object

>  <hbond:ASN:19>  (4) 
hbond:ASN:19    0
hbond:ASN:19    0
Name: 3, dtype: object

>  <halogenbond:ASN:19>  (4) 
halogenbond:ASN:19    0
halogenbond:ASN:19    0
Name: 3, dtype: object

>  <hbond:ARG:20>  (4) 
hbond:ARG:20    0
hbond:ARG:20    0
Name: 3, dtype: object

>  <hydroph_interaction:ARG:20>  (4) 
hydroph_interaction:ARG:20    0
hydroph_interaction:ARG:20    0
Name: 3, dtype: object

>  <saltbridge:ARG:20>  (4) 
saltbridge:ARG:20    0
saltbridge:ARG:20    0
Name: 3, dtype: object

>  <halogenbond:ARG:20>  (4) 
halogenbond:ARG:20    0
halogenbond:ARG:20    0
Name: 3, dtype: object

>  <pication:ARG:20>  (4) 
pication:ARG:20    0
pication:ARG:20    0
Name: 3, dtype: object

>  <hbond:HIS:21>  (4) 
hbond:HIS:21    0
hbond:HIS:21    0
Name: 3, dtype: object

>  <hydroph_interaction:HIS:21>  (4) 
hydroph_interaction:HIS:21    1
hydroph_interaction:HIS:21    1
Name: 3, dtype: object

>  <saltbridge:HIS:21>  (4) 
saltbridge:HIS:21    0
saltbridge:HIS:21    0
Name: 3, dtype: object

>  <pistack:HIS:21>  (4) 
pistack:HIS:21    0
pistack:HIS:21    0
Name: 3, dtype: object

>  <pication:HIS:21>  (4) 
pication:HIS:21    0
pication:HIS:21    0
Name: 3, dtype: object

>  <halogenbond:HIS:21>  (4) 
halogenbond:HIS:21    0
halogenbond:HIS:21    0
Name: 3, dtype: object

>  <hydroph_interaction:LEU:22>  (4) 
hydroph_interaction:LEU:22    0
hydroph_interaction:LEU:22    0
Name: 3, dtype: object

>  <hbond:LEU:22>  (4) 
hbond:LEU:22    0
hbond:LEU:22    0
Name: 3, dtype: object

>  <hydroph_interaction:TRP:28>  (4) 
hydroph_interaction:TRP:28    0
hydroph_interaction:TRP:28    0
Name: 3, dtype: object

>  <hbond:SER:36>  (4) 
hbond:SER:36    0
hbond:SER:36    0
Name: 3, dtype: object

>  <halogenbond:SER:36>  (4) 
halogenbond:SER:36    0
halogenbond:SER:36    0
Name: 3, dtype: object

>  <hbond:ARG:38>  (4) 
hbond:ARG:38    0
hbond:ARG:38    0
Name: 3, dtype: object

>  <halogenbond:ARG:38>  (4) 
halogenbond:ARG:38    0
halogenbond:ARG:38    0
Name: 3, dtype: object

>  <hbond:ASP:39>  (4) 
hbond:ASP:39    0
hbond:ASP:39    0
Name: 3, dtype: object

>  <saltbridge:ASP:39>  (4) 
saltbridge:ASP:39    0
saltbridge:ASP:39    0
Name: 3, dtype: object

>  <hydroph_interaction:ASP:39>  (4) 
hydroph_interaction:ASP:39    0
hydroph_interaction:ASP:39    0
Name: 3, dtype: object

>  <halogenbond:ASP:39>  (4) 
halogenbond:ASP:39    0
halogenbond:ASP:39    0
Name: 3, dtype: object

>  <hydroph_interaction:LEU:40>  (4) 
hydroph_interaction:LEU:40    0
hydroph_interaction:LEU:40    0
Name: 3, dtype: object

>  <hydroph_interaction:TYR:63>  (4) 
hydroph_interaction:TYR:63    0
hydroph_interaction:TYR:63    0
Name: 3, dtype: object

>  <pistack:TYR:63>  (4) 
pistack:TYR:63    0
pistack:TYR:63    0
Name: 3, dtype: object

>  <hbond:TYR:63>  (4) 
hbond:TYR:63    0
hbond:TYR:63    0
Name: 3, dtype: object

>  <hbond:TYR:64>  (4) 
hbond:TYR:64    0
hbond:TYR:64    0
Name: 3, dtype: object

>  <halogenbond:TYR:64>  (4) 
halogenbond:TYR:64    0
halogenbond:TYR:64    0
Name: 3, dtype: object

>  <hydroph_interaction:TYR:64>  (4) 
hydroph_interaction:TYR:64    0
hydroph_interaction:TYR:64    0
Name: 3, dtype: object

>  <hbond:CYS:65>  (4) 
hbond:CYS:65    0
hbond:CYS:65    0
Name: 3, dtype: object

>  <halogenbond:CYS:65>  (4) 
halogenbond:CYS:65    0
halogenbond:CYS:65    0
Name: 3, dtype: object

>  <hbond:SER:66>  (4) 
hbond:SER:66    0
hbond:SER:66    0
Name: 3, dtype: object

>  <hbond:SER:67>  (4) 
hbond:SER:67    0
hbond:SER:67    0
Name: 3, dtype: object

>  <halogenbond:SER:67>  (4) 
halogenbond:SER:67    0
halogenbond:SER:67    0
Name: 3, dtype: object

>  <hydroph_interaction:ARG:68>  (4) 
hydroph_interaction:ARG:68    0
hydroph_interaction:ARG:68    0
Name: 3, dtype: object

>  <hbond:ARG:68>  (4) 
hbond:ARG:68    0
hbond:ARG:68    0
Name: 3, dtype: object

>  <saltbridge:ARG:68>  (4) 
saltbridge:ARG:68    0
saltbridge:ARG:68    0
Name: 3, dtype: object

>  <pication:ARG:68>  (4) 
pication:ARG:68    0
pication:ARG:68    0
Name: 3, dtype: object

>  <hydroph_interaction:TYR:72>  (4) 
hydroph_interaction:TYR:72    0
hydroph_interaction:TYR:72    0
Name: 3, dtype: object

>  <hydroph_interaction:VAL:74>  (4) 
hydroph_interaction:VAL:74    0
hydroph_interaction:VAL:74    0
Name: 3, dtype: object

>  <hydroph_interaction:PHE:76>  (4) 
hydroph_interaction:PHE:76    0
hydroph_interaction:PHE:76    0
Name: 3, dtype: object

>  <hbond:SER:77>  (4) 
hbond:SER:77    0
hbond:SER:77    0
Name: 3, dtype: object

>  <hbond:SER:80>  (4) 
hbond:SER:80    0
hbond:SER:80    0
Name: 3, dtype: object

>  <hbond:LEU:81>  (4) 
hbond:LEU:81    0
hbond:LEU:81    0
Name: 3, dtype: object

>  <halogenbond:LEU:81>  (4) 
halogenbond:LEU:81    0
halogenbond:LEU:81    0
Name: 3, dtype: object

>  <hydroph_interaction:LEU:81>  (4) 
hydroph_interaction:LEU:81    0
hydroph_interaction:LEU:81    0
Name: 3, dtype: object

>  <hydroph_interaction:ILE:82>  (4) 
hydroph_interaction:ILE:82    0
hydroph_interaction:ILE:82    0
Name: 3, dtype: object

>  <hbond:ILE:82>  (4) 
hbond:ILE:82    0
hbond:ILE:82    0
Name: 3, dtype: object

>  <hydroph_interaction:PHE:83>  (4) 
hydroph_interaction:PHE:83    0
hydroph_interaction:PHE:83    0
Name: 3, dtype: object

>  <hbond:PHE:83>  (4) 
hbond:PHE:83    0
hbond:PHE:83    0
Name: 3, dtype: object

>  <halogenbond:PHE:83>  (4) 
halogenbond:PHE:83    0
halogenbond:PHE:83    0
Name: 3, dtype: object

>  <pistack:PHE:83>  (4) 
pistack:PHE:83    0
pistack:PHE:83    0
Name: 3, dtype: object

>  <hydroph_interaction:VAL:84>  (4) 
hydroph_interaction:VAL:84    0
hydroph_interaction:VAL:84    0
Name: 3, dtype: object

>  <hbond:VAL:84>  (4) 
hbond:VAL:84    0
hbond:VAL:84    0
Name: 3, dtype: object

>  <halogenbond:VAL:84>  (4) 
halogenbond:VAL:84    0
halogenbond:VAL:84    0
Name: 3, dtype: object

>  <hydroph_interaction:GLU:85>  (4) 
hydroph_interaction:GLU:85    0
hydroph_interaction:GLU:85    0
Name: 3, dtype: object

>  <hbond:GLU:85>  (4) 
hbond:GLU:85    0
hbond:GLU:85    0
Name: 3, dtype: object

>  <saltbridge:GLU:85>  (4) 
saltbridge:GLU:85    0
saltbridge:GLU:85    0
Name: 3, dtype: object

>  <halogenbond:GLU:85>  (4) 
halogenbond:GLU:85    0
halogenbond:GLU:85    0
Name: 3, dtype: object

>  <hbond:ALA:86>  (4) 
hbond:ALA:86    0
hbond:ALA:86    0
Name: 3, dtype: object

>  <halogenbond:ALA:86>  (4) 
halogenbond:ALA:86    0
halogenbond:ALA:86    0
Name: 3, dtype: object

>  <hydroph_interaction:ALA:86>  (4) 
hydroph_interaction:ALA:86    0
hydroph_interaction:ALA:86    0
Name: 3, dtype: object

>  <hbond:SER:87>  (4) 
hbond:SER:87    0
hbond:SER:87    0
Name: 3, dtype: object

>  <halogenbond:SER:87>  (4) 
halogenbond:SER:87    0
halogenbond:SER:87    0
Name: 3, dtype: object

>  <hbond:GLU:88>  (4) 
hbond:GLU:88    0
hbond:GLU:88    0
Name: 3, dtype: object

>  <hydroph_interaction:GLU:88>  (4) 
hydroph_interaction:GLU:88    0
hydroph_interaction:GLU:88    0
Name: 3, dtype: object

>  <halogenbond:GLU:88>  (4) 
halogenbond:GLU:88    0
halogenbond:GLU:88    0
Name: 3, dtype: object

>  <saltbridge:GLU:88>  (4) 
saltbridge:GLU:88    0
saltbridge:GLU:88    0
Name: 3, dtype: object

>  <hydroph_interaction:TYR:89>  (4) 
hydroph_interaction:TYR:89    1
hydroph_interaction:TYR:89    1
Name: 3, dtype: object

>  <pistack:TYR:89>  (4) 
pistack:TYR:89    0
pistack:TYR:89    0
Name: 3, dtype: object

>  <hbond:TYR:89>  (4) 
hbond:TYR:89    0
hbond:TYR:89    0
Name: 3, dtype: object

>  <halogenbond:TYR:89>  (4) 
halogenbond:TYR:89    0
halogenbond:TYR:89    0
Name: 3, dtype: object

>  <hbond:TYR:90>  (4) 
hbond:TYR:90    0
hbond:TYR:90    0
Name: 3, dtype: object

>  <hydroph_interaction:TYR:90>  (4) 
hydroph_interaction:TYR:90    1
hydroph_interaction:TYR:90    1
Name: 3, dtype: object

>  <pistack:TYR:90>  (4) 
pistack:TYR:90    0
pistack:TYR:90    0
Name: 3, dtype: object

>  <halogenbond:TYR:90>  (4) 
halogenbond:TYR:90    0
halogenbond:TYR:90    0
Name: 3, dtype: object

>  <pication:TYR:90>  (4) 
pication:TYR:90    0
pication:TYR:90    0
Name: 3, dtype: object

>  <hydroph_interaction:PRO:91>  (4) 
hydroph_interaction:PRO:91    0
hydroph_interaction:PRO:91    0
Name: 3, dtype: object

>  <halogenbond:PRO:91>  (4) 
halogenbond:PRO:91    0
halogenbond:PRO:91    0
Name: 3, dtype: object

>  <hbond:PRO:91>  (4) 
hbond:PRO:91    0
hbond:PRO:91    0
Name: 3, dtype: object

>  <hydroph_interaction:ALA:92>  (4) 
hydroph_interaction:ALA:92    0
hydroph_interaction:ALA:92    0
Name: 3, dtype: object

>  <hbond:ARG:93>  (4) 
hbond:ARG:93    0
hbond:ARG:93    0
Name: 3, dtype: object

>  <pication:ARG:93>  (4) 
pication:ARG:93    0
pication:ARG:93    0
Name: 3, dtype: object

>  <saltbridge:ARG:93>  (4) 
saltbridge:ARG:93    0
saltbridge:ARG:93    0
Name: 3, dtype: object

>  <hydroph_interaction:ARG:93>  (4) 
hydroph_interaction:ARG:93    0
hydroph_interaction:ARG:93    0
Name: 3, dtype: object

>  <halogenbond:ARG:93>  (4) 
halogenbond:ARG:93    0
halogenbond:ARG:93    0
Name: 3, dtype: object

>  <hydroph_interaction:TYR:94>  (4) 
hydroph_interaction:TYR:94    0
hydroph_interaction:TYR:94    0
Name: 3, dtype: object

>  <hbond:TYR:94>  (4) 
hbond:TYR:94    0
hbond:TYR:94    0
Name: 3, dtype: object

>  <halogenbond:GLN:95>  (4) 
halogenbond:GLN:95    0
halogenbond:GLN:95    0
Name: 3, dtype: object

>  <hbond:GLN:95>  (4) 
hbond:GLN:95    0
hbond:GLN:95    0
Name: 3, dtype: object

>  <hydroph_interaction:GLN:95>  (4) 
hydroph_interaction:GLN:95    0
hydroph_interaction:GLN:95    0
Name: 3, dtype: object

>  <hbond:SER:96>  (4) 
hbond:SER:96    0
hbond:SER:96    0
Name: 3, dtype: object

>  <hydroph_interaction:LEU:98>  (4) 
hydroph_interaction:LEU:98    0
hydroph_interaction:LEU:98    0
Name: 3, dtype: object

>  <hbond:LEU:98>  (4) 
hbond:LEU:98    0
hbond:LEU:98    0
Name: 3, dtype: object

>  <hbond:MET:99>  (4) 
hbond:MET:99    0
hbond:MET:99    0
Name: 3, dtype: object

>  <hydroph_interaction:MET:99>  (4) 
hydroph_interaction:MET:99    0
hydroph_interaction:MET:99    0
Name: 3, dtype: object

>  <halogenbond:MET:99>  (4) 
halogenbond:MET:99    0
halogenbond:MET:99    0
Name: 3, dtype: object

>  <hydroph_interaction:LEU:100>  (4) 
hydroph_interaction:LEU:100    0
hydroph_interaction:LEU:100    0
Name: 3, dtype: object

>  <hbond:LEU:100>  (4) 
hbond:LEU:100    0
hbond:LEU:100    0
Name: 3, dtype: object

>  <hbond:ALA:101>  (4) 
hbond:ALA:101    0
hbond:ALA:101    0
Name: 3, dtype: object

>  <hydroph_interaction:ALA:101>  (4) 
hydroph_interaction:ALA:101    0
hydroph_interaction:ALA:101    0
Name: 3, dtype: object

>  <hydroph_interaction:VAL:102>  (4) 
hydroph_interaction:VAL:102    0
hydroph_interaction:VAL:102    0
Name: 3, dtype: object

>  <hbond:VAL:102>  (4) 
hbond:VAL:102    0
hbond:VAL:102    0
Name: 3, dtype: object

>  <hbond:GLY:103>  (4) 
hbond:GLY:103    0
hbond:GLY:103    0
Name: 3, dtype: object

>  <halogenbond:GLY:103>  (4) 
halogenbond:GLY:103    0
halogenbond:GLY:103    0
Name: 3, dtype: object

>  <hydroph_interaction:HIS:104>  (4) 
hydroph_interaction:HIS:104    0
hydroph_interaction:HIS:104    0
Name: 3, dtype: object

>  <hbond:HIS:104>  (4) 
hbond:HIS:104    0
hbond:HIS:104    0
Name: 3, dtype: object

>  <saltbridge:HIS:104>  (4) 
saltbridge:HIS:104    0
saltbridge:HIS:104    0
Name: 3, dtype: object

>  <pication:HIS:104>  (4) 
pication:HIS:104    0
pication:HIS:104    0
Name: 3, dtype: object

>  <pistack:HIS:104>  (4) 
pistack:HIS:104    0
pistack:HIS:104    0
Name: 3, dtype: object

>  <halogenbond:HIS:104>  (4) 
halogenbond:HIS:104    0
halogenbond:HIS:104    0
Name: 3, dtype: object

>  <hbond:SER:105>  (4) 
hbond:SER:105    0
hbond:SER:105    0
Name: 3, dtype: object

>  <halogenbond:SER:105>  (4) 
halogenbond:SER:105    0
halogenbond:SER:105    0
Name: 3, dtype: object

>  <hbond:GLU:106>  (4) 
hbond:GLU:106    0
hbond:GLU:106    0
Name: 3, dtype: object

>  <hydroph_interaction:GLU:106>  (4) 
hydroph_interaction:GLU:106    0
hydroph_interaction:GLU:106    0
Name: 3, dtype: object

>  <saltbridge:GLU:106>  (4) 
saltbridge:GLU:106    0
saltbridge:GLU:106    0
Name: 3, dtype: object

>  <halogenbond:GLU:106>  (4) 
halogenbond:GLU:106    0
halogenbond:GLU:106    0
Name: 3, dtype: object

>  <hydroph_interaction:PRO:107>  (4) 
hydroph_interaction:PRO:107    0
hydroph_interaction:PRO:107    0
Name: 3, dtype: object

>  <hbond:PRO:107>  (4) 
hbond:PRO:107    0
hbond:PRO:107    0
Name: 3, dtype: object

>  <halogenbond:PRO:107>  (4) 
halogenbond:PRO:107    0
halogenbond:PRO:107    0
Name: 3, dtype: object

>  <hbond:GLY:108>  (4) 
hbond:GLY:108    0
hbond:GLY:108    0
Name: 3, dtype: object

>  <halogenbond:GLY:108>  (4) 
halogenbond:GLY:108    0
halogenbond:GLY:108    0
Name: 3, dtype: object

>  <hbond:ASP:109>  (4) 
hbond:ASP:109    0
hbond:ASP:109    0
Name: 3, dtype: object

>  <hydroph_interaction:ASP:109>  (4) 
hydroph_interaction:ASP:109    0
hydroph_interaction:ASP:109    0
Name: 3, dtype: object

>  <saltbridge:ASP:109>  (4) 
saltbridge:ASP:109    0
saltbridge:ASP:109    0
Name: 3, dtype: object

>  <hbond:CYS:110>  (4) 
hbond:CYS:110    0
hbond:CYS:110    0
Name: 3, dtype: object

>  <halogenbond:CYS:110>  (4) 
halogenbond:CYS:110    0
halogenbond:CYS:110    0
Name: 3, dtype: object

>  <hbond:GLY:111>  (4) 
hbond:GLY:111    0
hbond:GLY:111    0
Name: 3, dtype: object

>  <hbond:GLY:112>  (4) 
hbond:GLY:112    0
hbond:GLY:112    0
Name: 3, dtype: object

>  <hbond:ILE:113>  (4) 
hbond:ILE:113    0
hbond:ILE:113    0
Name: 3, dtype: object

>  <hydroph_interaction:LEU:114>  (4) 
hydroph_interaction:LEU:114    0
hydroph_interaction:LEU:114    0
Name: 3, dtype: object

>  <hbond:LEU:114>  (4) 
hbond:LEU:114    0
hbond:LEU:114    0
Name: 3, dtype: object

>  <hydroph_interaction:ILE:123>  (4) 
hydroph_interaction:ILE:123    0
hydroph_interaction:ILE:123    0
Name: 3, dtype: object

>  <hbond:ILE:123>  (4) 
hbond:ILE:123    0
hbond:ILE:123    0
Name: 3, dtype: object

>  <hydroph_interaction:VAL:124>  (4) 
hydroph_interaction:VAL:124    0
hydroph_interaction:VAL:124    0
Name: 3, dtype: object

>  <hbond:VAL:124>  (4) 
hbond:VAL:124    0
hbond:VAL:124    0
Name: 3, dtype: object

>  <halogenbond:VAL:124>  (4) 
halogenbond:VAL:124    0
halogenbond:VAL:124    0
Name: 3, dtype: object

>  <hbond:SER:125>  (4) 
hbond:SER:125    0
hbond:SER:125    0
Name: 3, dtype: object

>  <halogenbond:SER:125>  (4) 
halogenbond:SER:125    0
halogenbond:SER:125    0
Name: 3, dtype: object

>  <hydroph_interaction:THR:126>  (4) 
hydroph_interaction:THR:126    0
hydroph_interaction:THR:126    0
Name: 3, dtype: object

>  <hbond:THR:126>  (4) 
hbond:THR:126    0
hbond:THR:126    0
Name: 3, dtype: object

>  <halogenbond:THR:126>  (4) 
halogenbond:THR:126    0
halogenbond:THR:126    0
Name: 3, dtype: object

>  <hbond:GLY:127>  (4) 
hbond:GLY:127    0
hbond:GLY:127    0
Name: 3, dtype: object

>  <halogenbond:GLY:127>  (4) 
halogenbond:GLY:127    0
halogenbond:GLY:127    0
Name: 3, dtype: object

>  <hydroph_interaction:GLY:127>  (4) 
hydroph_interaction:GLY:127    0
hydroph_interaction:GLY:127    0
Name: 3, dtype: object

>  <hbond:GLY:128>  (4) 
hbond:GLY:128    0
hbond:GLY:128    0
Name: 3, dtype: object

>  <halogenbond:GLY:128>  (4) 
halogenbond:GLY:128    0
halogenbond:GLY:128    0
Name: 3, dtype: object

>  <hydroph_interaction:GLY:128>  (4) 
hydroph_interaction:GLY:128    0
hydroph_interaction:GLY:128    0
Name: 3, dtype: object

>  <hbond:ASN:129>  (4) 
hbond:ASN:129    0
hbond:ASN:129    0
Name: 3, dtype: object

>  <hydroph_interaction:ASN:129>  (4) 
hydroph_interaction:ASN:129    0
hydroph_interaction:ASN:129    0
Name: 3, dtype: object

>  <halogenbond:ASN:129>  (4) 
halogenbond:ASN:129    0
halogenbond:ASN:129    0
Name: 3, dtype: object

>  <hbond:GLY:130>  (4) 
hbond:GLY:130    0
hbond:GLY:130    0
Name: 3, dtype: object

>  <hydroph_interaction:LEU:131>  (4) 
hydroph_interaction:LEU:131    0
hydroph_interaction:LEU:131    0
Name: 3, dtype: object

>  <hbond:LEU:131>  (4) 
hbond:LEU:131    0
hbond:LEU:131    0
Name: 3, dtype: object

>  <halogenbond:LEU:131>  (4) 
halogenbond:LEU:131    0
halogenbond:LEU:131    0
Name: 3, dtype: object

>  <hydroph_interaction:VAL:132>  (4) 
hydroph_interaction:VAL:132    0
hydroph_interaction:VAL:132    0
Name: 3, dtype: object

>  <hbond:VAL:132>  (4) 
hbond:VAL:132    0
hbond:VAL:132    0
Name: 3, dtype: object

>  <hbond:GLY:133>  (4) 
hbond:GLY:133    0
hbond:GLY:133    0
Name: 3, dtype: object

>  <halogenbond:GLY:133>  (4) 
halogenbond:GLY:133    0
halogenbond:GLY:133    0
Name: 3, dtype: object

>  <hydroph_interaction:PHE:134>  (4) 
hydroph_interaction:PHE:134    0
hydroph_interaction:PHE:134    0
Name: 3, dtype: object

>  <hbond:PHE:134>  (4) 
hbond:PHE:134    0
hbond:PHE:134    0
Name: 3, dtype: object

>  <pistack:PHE:134>  (4) 
pistack:PHE:134    0
pistack:PHE:134    0
Name: 3, dtype: object

>  <pication:PHE:134>  (4) 
pication:PHE:134    0
pication:PHE:134    0
Name: 3, dtype: object

>  <hydroph_interaction:ALA:135>  (4) 
hydroph_interaction:ALA:135    0
hydroph_interaction:ALA:135    0
Name: 3, dtype: object

>  <hbond:ALA:135>  (4) 
hbond:ALA:135    0
hbond:ALA:135    0
Name: 3, dtype: object

$$$$
Z3465836346
     RDKit          3D

 32 34  0  0  0  0  0  0  0  0999 V2000
   13.3260   16.2770   20.5000 C   0  0  0  0  0  0  0  0  0  0  0  0
   12.3210   15.3660   21.1250 C   0  0  0  0  0  0  0  0  0  0  0  0
   10.8660   15.5030   20.7100 C   0  0  0  0  0  0  0  0  0  0  0  0
    9.9560   14.5270   21.3850 C   0  0  0  0  0  0  0  0  0  0  0  0
   10.4830   13.6070   22.2980 C   0  0  0  0  0  0  0  0  0  0  0  0
    9.8070   12.6360   22.9650 C   0  0  0  0  0  0  0  0  0  0  0  0
   10.1430   11.2620   22.7020 C   0  0  0  0  0  0  0  0  0  0  0  0
    9.4310   10.4320   23.4000 N   0  0  0  0  0  0  0  0  0  0  0  0
    9.5950    9.0330   23.2910 C   0  0  0  0  0  0  0  0  0  0  0  0
    8.5650   11.1360   24.1980 C   0  0  0  0  0  0  0  0  0  0  0  0
    7.6330   10.6680   25.0950 C   0  0  0  0  0  0  0  0  0  0  0  0
    6.8070   11.6430   25.8450 C   0  0  0  0  0  0  0  0  0  0  0  0
    6.9860   13.0000   25.6320 C   0  0  0  0  0  0  0  0  0  0  0  0
    7.9560   13.4380   24.6990 C   0  0  0  0  0  0  0  0  0  0  0  0
    8.7610   12.5250   23.9630 C   0  0  0  0  0  0  0  0  0  0  0  0
   11.8310   13.5880   22.5990 C   0  0  0  0  0  0  0  0  0  0  0  0
   12.7350   14.4400   22.0380 C   0  0  0  0  0  0  0  0  0  0  0  0
   14.2620   16.2160   21.0410 H   0  0  0  0  0  0  0  0  0  0  0  0
   12.9620   17.3040   20.5250 H   0  0  0  0  0  0  0  0  0  0  0  0
   13.5190   15.9540   19.4830 H   0  0  0  0  0  0  0  0  0  0  0  0
   10.5850   16.2650   19.9770 H   0  0  0  0  0  0  0  0  0  0  0  0
    8.8970   14.5880   21.1090 H   0  0  0  0  0  0  0  0  0  0  0  0
   10.9150   11.0370   21.9840 H   0  0  0  0  0  0  0  0  0  0  0  0
   10.6630    8.7990   23.3250 H   0  0  0  0  0  0  0  0  0  0  0  0
    9.0690    8.5910   24.1280 H   0  0  0  0  0  0  0  0  0  0  0  0
    9.1740    8.6730   22.3520 H   0  0  0  0  0  0  0  0  0  0  0  0
    7.5140    9.6090   25.2430 H   0  0  0  0  0  0  0  0  0  0  0  0
    6.0630   11.2950   26.5590 H   0  0  0  0  0  0  0  0  0  0  0  0
    6.3820   13.7130   26.1820 H   0  0  0  0  0  0  0  0  0  0  0  0
    8.0880   14.5050   24.5390 H   0  0  0  0  0  0  0  0  0  0  0  0
   12.1980   12.8580   23.3160 H   0  0  0  0  0  0  0  0  0  0  0  0
   13.7800   14.3690   22.3200 H   0  0  0  0  0  0  0  0  0  0  0  0
  1  2  1  0
  2  3  2  0
  3  4  1  0
  4  5  2  0
  5  6  1  0
  6  7  2  0
  7  8  1  0
  8  9  1  0
  8 10  1  0
 10 11  2  0
 11 12  1  0
 12 13  2  0
 13 14  1  0
 14 15  2  0
  5 16  1  0
 16 17  2  0
 17  2  1  0
 15  6  1  0
 15 10  1  0
  1 18  1  0
  1 19  1  0
  1 20  1  0
  3 21  1  0
  4 22  1  0
  7 23  1  0
  9 24  1  0
  9 25  1  0
  9 26  1  0
 11 27  1  0
 12 28  1  0
 13 29  1  0
 14 30  1  0
 16 31  1  0
 17 32  1  0
A    1
 C1 
A    2
 C2 
A    3
 C3 
A    4
 C4 
A    5
 C5 
A    6
 C6 
A    7
 C7 
A    8
 N1 
A    9
 C8 
A   10
 C9 
A   11
 C10
A   12
 C11
A   13
 C12
A   14
 C13
A   15
 C14
A   16
 C15
A   17
 C16
A   18
 H1 
A   19
 H2 
A   20
 H3 
A   21
 H4 
A   22
 H5 
A   23
 H6 
A   24
 H7 
A   25
 H8 
A   26
 H9 
A   27
 H10
A   28
 H11
A   29
 H12
A   30
 H13
A   31
 H14
A   32
 H15
M  END
>  <ref_pdb>  (5) 
x0310_0A

>  <ref_mols>  (5) 
x0451_0A,x0812_0A

>  <original SMILES>  (5) 
Cc1ccc(-c2cn(C)c3ccccc23)cc1

>  <rationale>  (5) 
info hydroph_interaction:Y89+Y90+H21; 

>  <intxn_cluster>  (5) 
208

>  <intxn_cluster_rank>  (5) 
12

>  <N_interactions>  (5) 
3

>  <∆∆G>  (5) 
-11.787186

>  <$/mg>  (5) 
163.0

>  <comRMSD>  (5) 
0.932055

>  <N_rotatable_bonds>  (5) 
3

>  <hbond:SER:7>  (5) 
hbond:SER:7    0
hbond:SER:7    0
Name: 4, dtype: object

>  <halogenbond:SER:7>  (5) 
halogenbond:SER:7    0
halogenbond:SER:7    0
Name: 4, dtype: object

>  <hbond:GLY:8>  (5) 
hbond:GLY:8    0
hbond:GLY:8    0
Name: 4, dtype: object

>  <hydroph_interaction:ASN:19>  (5) 
hydroph_interaction:ASN:19    0
hydroph_interaction:ASN:19    0
Name: 4, dtype: object

>  <hbond:ASN:19>  (5) 
hbond:ASN:19    0
hbond:ASN:19    0
Name: 4, dtype: object

>  <halogenbond:ASN:19>  (5) 
halogenbond:ASN:19    0
halogenbond:ASN:19    0
Name: 4, dtype: object

>  <hbond:ARG:20>  (5) 
hbond:ARG:20    0
hbond:ARG:20    0
Name: 4, dtype: object

>  <hydroph_interaction:ARG:20>  (5) 
hydroph_interaction:ARG:20    0
hydroph_interaction:ARG:20    0
Name: 4, dtype: object

>  <saltbridge:ARG:20>  (5) 
saltbridge:ARG:20    0
saltbridge:ARG:20    0
Name: 4, dtype: object

>  <halogenbond:ARG:20>  (5) 
halogenbond:ARG:20    0
halogenbond:ARG:20    0
Name: 4, dtype: object

>  <pication:ARG:20>  (5) 
pication:ARG:20    0
pication:ARG:20    0
Name: 4, dtype: object

>  <hbond:HIS:21>  (5) 
hbond:HIS:21    0
hbond:HIS:21    0
Name: 4, dtype: object

>  <hydroph_interaction:HIS:21>  (5) 
hydroph_interaction:HIS:21    1
hydroph_interaction:HIS:21    1
Name: 4, dtype: object

>  <saltbridge:HIS:21>  (5) 
saltbridge:HIS:21    0
saltbridge:HIS:21    0
Name: 4, dtype: object

>  <pistack:HIS:21>  (5) 
pistack:HIS:21    0
pistack:HIS:21    0
Name: 4, dtype: object

>  <pication:HIS:21>  (5) 
pication:HIS:21    0
pication:HIS:21    0
Name: 4, dtype: object

>  <halogenbond:HIS:21>  (5) 
halogenbond:HIS:21    0
halogenbond:HIS:21    0
Name: 4, dtype: object

>  <hydroph_interaction:LEU:22>  (5) 
hydroph_interaction:LEU:22    0
hydroph_interaction:LEU:22    0
Name: 4, dtype: object

>  <hbond:LEU:22>  (5) 
hbond:LEU:22    0
hbond:LEU:22    0
Name: 4, dtype: object

>  <hydroph_interaction:TRP:28>  (5) 
hydroph_interaction:TRP:28    0
hydroph_interaction:TRP:28    0
Name: 4, dtype: object

>  <hbond:SER:36>  (5) 
hbond:SER:36    0
hbond:SER:36    0
Name: 4, dtype: object

>  <halogenbond:SER:36>  (5) 
halogenbond:SER:36    0
halogenbond:SER:36    0
Name: 4, dtype: object

>  <hbond:ARG:38>  (5) 
hbond:ARG:38    0
hbond:ARG:38    0
Name: 4, dtype: object

>  <halogenbond:ARG:38>  (5) 
halogenbond:ARG:38    0
halogenbond:ARG:38    0
Name: 4, dtype: object

>  <hbond:ASP:39>  (5) 
hbond:ASP:39    0
hbond:ASP:39    0
Name: 4, dtype: object

>  <saltbridge:ASP:39>  (5) 
saltbridge:ASP:39    0
saltbridge:ASP:39    0
Name: 4, dtype: object

>  <hydroph_interaction:ASP:39>  (5) 
hydroph_interaction:ASP:39    0
hydroph_interaction:ASP:39    0
Name: 4, dtype: object

>  <halogenbond:ASP:39>  (5) 
halogenbond:ASP:39    0
halogenbond:ASP:39    0
Name: 4, dtype: object

>  <hydroph_interaction:LEU:40>  (5) 
hydroph_interaction:LEU:40    0
hydroph_interaction:LEU:40    0
Name: 4, dtype: object

>  <hydroph_interaction:TYR:63>  (5) 
hydroph_interaction:TYR:63    0
hydroph_interaction:TYR:63    0
Name: 4, dtype: object

>  <pistack:TYR:63>  (5) 
pistack:TYR:63    0
pistack:TYR:63    0
Name: 4, dtype: object

>  <hbond:TYR:63>  (5) 
hbond:TYR:63    0
hbond:TYR:63    0
Name: 4, dtype: object

>  <hbond:TYR:64>  (5) 
hbond:TYR:64    0
hbond:TYR:64    0
Name: 4, dtype: object

>  <halogenbond:TYR:64>  (5) 
halogenbond:TYR:64    0
halogenbond:TYR:64    0
Name: 4, dtype: object

>  <hydroph_interaction:TYR:64>  (5) 
hydroph_interaction:TYR:64    0
hydroph_interaction:TYR:64    0
Name: 4, dtype: object

>  <hbond:CYS:65>  (5) 
hbond:CYS:65    0
hbond:CYS:65    0
Name: 4, dtype: object

>  <halogenbond:CYS:65>  (5) 
halogenbond:CYS:65    0
halogenbond:CYS:65    0
Name: 4, dtype: object

>  <hbond:SER:66>  (5) 
hbond:SER:66    0
hbond:SER:66    0
Name: 4, dtype: object

>  <hbond:SER:67>  (5) 
hbond:SER:67    0
hbond:SER:67    0
Name: 4, dtype: object

>  <halogenbond:SER:67>  (5) 
halogenbond:SER:67    0
halogenbond:SER:67    0
Name: 4, dtype: object

>  <hydroph_interaction:ARG:68>  (5) 
hydroph_interaction:ARG:68    0
hydroph_interaction:ARG:68    0
Name: 4, dtype: object

>  <hbond:ARG:68>  (5) 
hbond:ARG:68    0
hbond:ARG:68    0
Name: 4, dtype: object

>  <saltbridge:ARG:68>  (5) 
saltbridge:ARG:68    0
saltbridge:ARG:68    0
Name: 4, dtype: object

>  <pication:ARG:68>  (5) 
pication:ARG:68    0
pication:ARG:68    0
Name: 4, dtype: object

>  <hydroph_interaction:TYR:72>  (5) 
hydroph_interaction:TYR:72    0
hydroph_interaction:TYR:72    0
Name: 4, dtype: object

>  <hydroph_interaction:VAL:74>  (5) 
hydroph_interaction:VAL:74    0
hydroph_interaction:VAL:74    0
Name: 4, dtype: object

>  <hydroph_interaction:PHE:76>  (5) 
hydroph_interaction:PHE:76    0
hydroph_interaction:PHE:76    0
Name: 4, dtype: object

>  <hbond:SER:77>  (5) 
hbond:SER:77    0
hbond:SER:77    0
Name: 4, dtype: object

>  <hbond:SER:80>  (5) 
hbond:SER:80    0
hbond:SER:80    0
Name: 4, dtype: object

>  <hbond:LEU:81>  (5) 
hbond:LEU:81    0
hbond:LEU:81    0
Name: 4, dtype: object

>  <halogenbond:LEU:81>  (5) 
halogenbond:LEU:81    0
halogenbond:LEU:81    0
Name: 4, dtype: object

>  <hydroph_interaction:LEU:81>  (5) 
hydroph_interaction:LEU:81    0
hydroph_interaction:LEU:81    0
Name: 4, dtype: object

>  <hydroph_interaction:ILE:82>  (5) 
hydroph_interaction:ILE:82    0
hydroph_interaction:ILE:82    0
Name: 4, dtype: object

>  <hbond:ILE:82>  (5) 
hbond:ILE:82    0
hbond:ILE:82    0
Name: 4, dtype: object

>  <hydroph_interaction:PHE:83>  (5) 
hydroph_interaction:PHE:83    0
hydroph_interaction:PHE:83    0
Name: 4, dtype: object

>  <hbond:PHE:83>  (5) 
hbond:PHE:83    0
hbond:PHE:83    0
Name: 4, dtype: object

>  <halogenbond:PHE:83>  (5) 
halogenbond:PHE:83    0
halogenbond:PHE:83    0
Name: 4, dtype: object

>  <pistack:PHE:83>  (5) 
pistack:PHE:83    0
pistack:PHE:83    0
Name: 4, dtype: object

>  <hydroph_interaction:VAL:84>  (5) 
hydroph_interaction:VAL:84    0
hydroph_interaction:VAL:84    0
Name: 4, dtype: object

>  <hbond:VAL:84>  (5) 
hbond:VAL:84    0
hbond:VAL:84    0
Name: 4, dtype: object

>  <halogenbond:VAL:84>  (5) 
halogenbond:VAL:84    0
halogenbond:VAL:84    0
Name: 4, dtype: object

>  <hydroph_interaction:GLU:85>  (5) 
hydroph_interaction:GLU:85    0
hydroph_interaction:GLU:85    0
Name: 4, dtype: object

>  <hbond:GLU:85>  (5) 
hbond:GLU:85    0
hbond:GLU:85    0
Name: 4, dtype: object

>  <saltbridge:GLU:85>  (5) 
saltbridge:GLU:85    0
saltbridge:GLU:85    0
Name: 4, dtype: object

>  <halogenbond:GLU:85>  (5) 
halogenbond:GLU:85    0
halogenbond:GLU:85    0
Name: 4, dtype: object

>  <hbond:ALA:86>  (5) 
hbond:ALA:86    0
hbond:ALA:86    0
Name: 4, dtype: object

>  <halogenbond:ALA:86>  (5) 
halogenbond:ALA:86    0
halogenbond:ALA:86    0
Name: 4, dtype: object

>  <hydroph_interaction:ALA:86>  (5) 
hydroph_interaction:ALA:86    0
hydroph_interaction:ALA:86    0
Name: 4, dtype: object

>  <hbond:SER:87>  (5) 
hbond:SER:87    0
hbond:SER:87    0
Name: 4, dtype: object

>  <halogenbond:SER:87>  (5) 
halogenbond:SER:87    0
halogenbond:SER:87    0
Name: 4, dtype: object

>  <hbond:GLU:88>  (5) 
hbond:GLU:88    0
hbond:GLU:88    0
Name: 4, dtype: object

>  <hydroph_interaction:GLU:88>  (5) 
hydroph_interaction:GLU:88    0
hydroph_interaction:GLU:88    0
Name: 4, dtype: object

>  <halogenbond:GLU:88>  (5) 
halogenbond:GLU:88    0
halogenbond:GLU:88    0
Name: 4, dtype: object

>  <saltbridge:GLU:88>  (5) 
saltbridge:GLU:88    0
saltbridge:GLU:88    0
Name: 4, dtype: object

>  <hydroph_interaction:TYR:89>  (5) 
hydroph_interaction:TYR:89    1
hydroph_interaction:TYR:89    1
Name: 4, dtype: object

>  <pistack:TYR:89>  (5) 
pistack:TYR:89    0
pistack:TYR:89    0
Name: 4, dtype: object

>  <hbond:TYR:89>  (5) 
hbond:TYR:89    0
hbond:TYR:89    0
Name: 4, dtype: object

>  <halogenbond:TYR:89>  (5) 
halogenbond:TYR:89    0
halogenbond:TYR:89    0
Name: 4, dtype: object

>  <hbond:TYR:90>  (5) 
hbond:TYR:90    0
hbond:TYR:90    0
Name: 4, dtype: object

>  <hydroph_interaction:TYR:90>  (5) 
hydroph_interaction:TYR:90    1
hydroph_interaction:TYR:90    1
Name: 4, dtype: object

>  <pistack:TYR:90>  (5) 
pistack:TYR:90    0
pistack:TYR:90    0
Name: 4, dtype: object

>  <halogenbond:TYR:90>  (5) 
halogenbond:TYR:90    0
halogenbond:TYR:90    0
Name: 4, dtype: object

>  <pication:TYR:90>  (5) 
pication:TYR:90    0
pication:TYR:90    0
Name: 4, dtype: object

>  <hydroph_interaction:PRO:91>  (5) 
hydroph_interaction:PRO:91    0
hydroph_interaction:PRO:91    0
Name: 4, dtype: object

>  <halogenbond:PRO:91>  (5) 
halogenbond:PRO:91    0
halogenbond:PRO:91    0
Name: 4, dtype: object

>  <hbond:PRO:91>  (5) 
hbond:PRO:91    0
hbond:PRO:91    0
Name: 4, dtype: object

>  <hydroph_interaction:ALA:92>  (5) 
hydroph_interaction:ALA:92    0
hydroph_interaction:ALA:92    0
Name: 4, dtype: object

>  <hbond:ARG:93>  (5) 
hbond:ARG:93    0
hbond:ARG:93    0
Name: 4, dtype: object

>  <pication:ARG:93>  (5) 
pication:ARG:93    0
pication:ARG:93    0
Name: 4, dtype: object

>  <saltbridge:ARG:93>  (5) 
saltbridge:ARG:93    0
saltbridge:ARG:93    0
Name: 4, dtype: object

>  <hydroph_interaction:ARG:93>  (5) 
hydroph_interaction:ARG:93    0
hydroph_interaction:ARG:93    0
Name: 4, dtype: object

>  <halogenbond:ARG:93>  (5) 
halogenbond:ARG:93    0
halogenbond:ARG:93    0
Name: 4, dtype: object

>  <hydroph_interaction:TYR:94>  (5) 
hydroph_interaction:TYR:94    0
hydroph_interaction:TYR:94    0
Name: 4, dtype: object

>  <hbond:TYR:94>  (5) 
hbond:TYR:94    0
hbond:TYR:94    0
Name: 4, dtype: object

>  <halogenbond:GLN:95>  (5) 
halogenbond:GLN:95    0
halogenbond:GLN:95    0
Name: 4, dtype: object

>  <hbond:GLN:95>  (5) 
hbond:GLN:95    0
hbond:GLN:95    0
Name: 4, dtype: object

>  <hydroph_interaction:GLN:95>  (5) 
hydroph_interaction:GLN:95    0
hydroph_interaction:GLN:95    0
Name: 4, dtype: object

>  <hbond:SER:96>  (5) 
hbond:SER:96    0
hbond:SER:96    0
Name: 4, dtype: object

>  <hydroph_interaction:LEU:98>  (5) 
hydroph_interaction:LEU:98    0
hydroph_interaction:LEU:98    0
Name: 4, dtype: object

>  <hbond:LEU:98>  (5) 
hbond:LEU:98    0
hbond:LEU:98    0
Name: 4, dtype: object

>  <hbond:MET:99>  (5) 
hbond:MET:99    0
hbond:MET:99    0
Name: 4, dtype: object

>  <hydroph_interaction:MET:99>  (5) 
hydroph_interaction:MET:99    0
hydroph_interaction:MET:99    0
Name: 4, dtype: object

>  <halogenbond:MET:99>  (5) 
halogenbond:MET:99    0
halogenbond:MET:99    0
Name: 4, dtype: object

>  <hydroph_interaction:LEU:100>  (5) 
hydroph_interaction:LEU:100    0
hydroph_interaction:LEU:100    0
Name: 4, dtype: object

>  <hbond:LEU:100>  (5) 
hbond:LEU:100    0
hbond:LEU:100    0
Name: 4, dtype: object

>  <hbond:ALA:101>  (5) 
hbond:ALA:101    0
hbond:ALA:101    0
Name: 4, dtype: object

>  <hydroph_interaction:ALA:101>  (5) 
hydroph_interaction:ALA:101    0
hydroph_interaction:ALA:101    0
Name: 4, dtype: object

>  <hydroph_interaction:VAL:102>  (5) 
hydroph_interaction:VAL:102    0
hydroph_interaction:VAL:102    0
Name: 4, dtype: object

>  <hbond:VAL:102>  (5) 
hbond:VAL:102    0
hbond:VAL:102    0
Name: 4, dtype: object

>  <hbond:GLY:103>  (5) 
hbond:GLY:103    0
hbond:GLY:103    0
Name: 4, dtype: object

>  <halogenbond:GLY:103>  (5) 
halogenbond:GLY:103    0
halogenbond:GLY:103    0
Name: 4, dtype: object

>  <hydroph_interaction:HIS:104>  (5) 
hydroph_interaction:HIS:104    0
hydroph_interaction:HIS:104    0
Name: 4, dtype: object

>  <hbond:HIS:104>  (5) 
hbond:HIS:104    0
hbond:HIS:104    0
Name: 4, dtype: object

>  <saltbridge:HIS:104>  (5) 
saltbridge:HIS:104    0
saltbridge:HIS:104    0
Name: 4, dtype: object

>  <pication:HIS:104>  (5) 
pication:HIS:104    0
pication:HIS:104    0
Name: 4, dtype: object

>  <pistack:HIS:104>  (5) 
pistack:HIS:104    0
pistack:HIS:104    0
Name: 4, dtype: object

>  <halogenbond:HIS:104>  (5) 
halogenbond:HIS:104    0
halogenbond:HIS:104    0
Name: 4, dtype: object

>  <hbond:SER:105>  (5) 
hbond:SER:105    0
hbond:SER:105    0
Name: 4, dtype: object

>  <halogenbond:SER:105>  (5) 
halogenbond:SER:105    0
halogenbond:SER:105    0
Name: 4, dtype: object

>  <hbond:GLU:106>  (5) 
hbond:GLU:106    0
hbond:GLU:106    0
Name: 4, dtype: object

>  <hydroph_interaction:GLU:106>  (5) 
hydroph_interaction:GLU:106    0
hydroph_interaction:GLU:106    0
Name: 4, dtype: object

>  <saltbridge:GLU:106>  (5) 
saltbridge:GLU:106    0
saltbridge:GLU:106    0
Name: 4, dtype: object

>  <halogenbond:GLU:106>  (5) 
halogenbond:GLU:106    0
halogenbond:GLU:106    0
Name: 4, dtype: object

>  <hydroph_interaction:PRO:107>  (5) 
hydroph_interaction:PRO:107    0
hydroph_interaction:PRO:107    0
Name: 4, dtype: object

>  <hbond:PRO:107>  (5) 
hbond:PRO:107    0
hbond:PRO:107    0
Name: 4, dtype: object

>  <halogenbond:PRO:107>  (5) 
halogenbond:PRO:107    0
halogenbond:PRO:107    0
Name: 4, dtype: object

>  <hbond:GLY:108>  (5) 
hbond:GLY:108    0
hbond:GLY:108    0
Name: 4, dtype: object

>  <halogenbond:GLY:108>  (5) 
halogenbond:GLY:108    0
halogenbond:GLY:108    0
Name: 4, dtype: object

>  <hbond:ASP:109>  (5) 
hbond:ASP:109    0
hbond:ASP:109    0
Name: 4, dtype: object

>  <hydroph_interaction:ASP:109>  (5) 
hydroph_interaction:ASP:109    0
hydroph_interaction:ASP:109    0
Name: 4, dtype: object

>  <saltbridge:ASP:109>  (5) 
saltbridge:ASP:109    0
saltbridge:ASP:109    0
Name: 4, dtype: object

>  <hbond:CYS:110>  (5) 
hbond:CYS:110    0
hbond:CYS:110    0
Name: 4, dtype: object

>  <halogenbond:CYS:110>  (5) 
halogenbond:CYS:110    0
halogenbond:CYS:110    0
Name: 4, dtype: object

>  <hbond:GLY:111>  (5) 
hbond:GLY:111    0
hbond:GLY:111    0
Name: 4, dtype: object

>  <hbond:GLY:112>  (5) 
hbond:GLY:112    0
hbond:GLY:112    0
Name: 4, dtype: object

>  <hbond:ILE:113>  (5) 
hbond:ILE:113    0
hbond:ILE:113    0
Name: 4, dtype: object

>  <hydroph_interaction:LEU:114>  (5) 
hydroph_interaction:LEU:114    0
hydroph_interaction:LEU:114    0
Name: 4, dtype: object

>  <hbond:LEU:114>  (5) 
hbond:LEU:114    0
hbond:LEU:114    0
Name: 4, dtype: object

>  <hydroph_interaction:ILE:123>  (5) 
hydroph_interaction:ILE:123    0
hydroph_interaction:ILE:123    0
Name: 4, dtype: object

>  <hbond:ILE:123>  (5) 
hbond:ILE:123    0
hbond:ILE:123    0
Name: 4, dtype: object

>  <hydroph_interaction:VAL:124>  (5) 
hydroph_interaction:VAL:124    0
hydroph_interaction:VAL:124    0
Name: 4, dtype: object

>  <hbond:VAL:124>  (5) 
hbond:VAL:124    0
hbond:VAL:124    0
Name: 4, dtype: object

>  <halogenbond:VAL:124>  (5) 
halogenbond:VAL:124    0
halogenbond:VAL:124    0
Name: 4, dtype: object

>  <hbond:SER:125>  (5) 
hbond:SER:125    0
hbond:SER:125    0
Name: 4, dtype: object

>  <halogenbond:SER:125>  (5) 
halogenbond:SER:125    0
halogenbond:SER:125    0
Name: 4, dtype: object

>  <hydroph_interaction:THR:126>  (5) 
hydroph_interaction:THR:126    0
hydroph_interaction:THR:126    0
Name: 4, dtype: object

>  <hbond:THR:126>  (5) 
hbond:THR:126    0
hbond:THR:126    0
Name: 4, dtype: object

>  <halogenbond:THR:126>  (5) 
halogenbond:THR:126    0
halogenbond:THR:126    0
Name: 4, dtype: object

>  <hbond:GLY:127>  (5) 
hbond:GLY:127    0
hbond:GLY:127    0
Name: 4, dtype: object

>  <halogenbond:GLY:127>  (5) 
halogenbond:GLY:127    0
halogenbond:GLY:127    0
Name: 4, dtype: object

>  <hydroph_interaction:GLY:127>  (5) 
hydroph_interaction:GLY:127    0
hydroph_interaction:GLY:127    0
Name: 4, dtype: object

>  <hbond:GLY:128>  (5) 
hbond:GLY:128    0
hbond:GLY:128    0
Name: 4, dtype: object

>  <halogenbond:GLY:128>  (5) 
halogenbond:GLY:128    0
halogenbond:GLY:128    0
Name: 4, dtype: object

>  <hydroph_interaction:GLY:128>  (5) 
hydroph_interaction:GLY:128    0
hydroph_interaction:GLY:128    0
Name: 4, dtype: object

>  <hbond:ASN:129>  (5) 
hbond:ASN:129    0
hbond:ASN:129    0
Name: 4, dtype: object

>  <hydroph_interaction:ASN:129>  (5) 
hydroph_interaction:ASN:129    0
hydroph_interaction:ASN:129    0
Name: 4, dtype: object

>  <halogenbond:ASN:129>  (5) 
halogenbond:ASN:129    0
halogenbond:ASN:129    0
Name: 4, dtype: object

>  <hbond:GLY:130>  (5) 
hbond:GLY:130    0
hbond:GLY:130    0
Name: 4, dtype: object

>  <hydroph_interaction:LEU:131>  (5) 
hydroph_interaction:LEU:131    0
hydroph_interaction:LEU:131    0
Name: 4, dtype: object

>  <hbond:LEU:131>  (5) 
hbond:LEU:131    0
hbond:LEU:131    0
Name: 4, dtype: object

>  <halogenbond:LEU:131>  (5) 
halogenbond:LEU:131    0
halogenbond:LEU:131    0
Name: 4, dtype: object

>  <hydroph_interaction:VAL:132>  (5) 
hydroph_interaction:VAL:132    0
hydroph_interaction:VAL:132    0
Name: 4, dtype: object

>  <hbond:VAL:132>  (5) 
hbond:VAL:132    0
hbond:VAL:132    0
Name: 4, dtype: object

>  <hbond:GLY:133>  (5) 
hbond:GLY:133    0
hbond:GLY:133    0
Name: 4, dtype: object

>  <halogenbond:GLY:133>  (5) 
halogenbond:GLY:133    0
halogenbond:GLY:133    0
Name: 4, dtype: object

>  <hydroph_interaction:PHE:134>  (5) 
hydroph_interaction:PHE:134    0
hydroph_interaction:PHE:134    0
Name: 4, dtype: object

>  <hbond:PHE:134>  (5) 
hbond:PHE:134    0
hbond:PHE:134    0
Name: 4, dtype: object

>  <pistack:PHE:134>  (5) 
pistack:PHE:134    0
pistack:PHE:134    0
Name: 4, dtype: object

>  <pication:PHE:134>  (5) 
pication:PHE:134    0
pication:PHE:134    0
Name: 4, dtype: object

>  <hydroph_interaction:ALA:135>  (5) 
hydroph_interaction:ALA:135    0
hydroph_interaction:ALA:135    0
Name: 4, dtype: object

>  <hbond:ALA:135>  (5) 
hbond:ALA:135    0
hbond:ALA:135    0
Name: 4, dtype: object

$$$$
PV_003585554678
     RDKit          3D

 31 33  0  0  0  0  0  0  0  0999 V2000
   13.3960   16.2820   20.4710 C   0  0  0  0  0  0  0  0  0  0  0  0
   12.3220   15.4300   21.0150 C   0  0  0  0  0  0  0  0  0  0  0  0
   10.8550   15.5790   20.6110 C   0  0  0  0  0  0  0  0  0  0  0  0
    9.8920   14.6020   21.2660 C   0  0  0  0  0  0  0  0  0  0  0  0
   10.4520   13.6290   22.2040 C   0  0  0  0  0  0  0  0  0  0  0  0
    9.7520   12.6010   22.9140 C   0  0  0  0  0  0  0  0  0  0  0  0
   10.1300   11.3250   22.6230 C   0  0  0  0  0  0  0  0  0  0  0  0
    9.4230   10.4750   23.3350 N   0  0  0  0  0  0  0  0  0  0  0  0
    9.6190    9.0710   23.2180 C   0  0  0  0  0  0  0  0  0  0  0  0
    8.5420   11.1480   24.1450 C   0  0  0  0  0  0  0  0  0  0  0  0
    7.6020   10.6810   25.0720 C   0  0  0  0  0  0  0  0  0  0  0  0
    6.8310   11.5440   25.7720 N   0  0  0  0  0  0  0  0  0  0  0  0
    6.9980   12.8630   25.5470 C   0  0  0  0  0  0  0  0  0  0  0  0
    7.9260   13.3940   24.6290 C   0  0  0  0  0  0  0  0  0  0  0  0
    8.7250   12.5150   23.9020 C   0  0  0  0  0  0  0  0  0  0  0  0
   11.8010   13.6070   22.4840 C   0  0  0  0  0  0  0  0  0  0  0  0
   12.7130   14.4770   21.9160 C   0  0  0  0  0  0  0  0  0  0  0  0
   13.0900   17.3270   20.4800 H   0  0  0  0  0  0  0  0  0  0  0  0
   14.2700   16.1620   21.0990 H   0  0  0  0  0  0  0  0  0  0  0  0
   13.6650   15.9300   19.4800 H   0  0  0  0  0  0  0  0  0  0  0  0
   10.6170   16.3660   19.8900 H   0  0  0  0  0  0  0  0  0  0  0  0
    8.8220   14.6150   21.0460 H   0  0  0  0  0  0  0  0  0  0  0  0
   10.8720   10.9650   21.9400 H   0  0  0  0  0  0  0  0  0  0  0  0
   10.6920    8.8650   23.2670 H   0  0  0  0  0  0  0  0  0  0  0  0
    9.0970    8.6170   24.0530 H   0  0  0  0  0  0  0  0  0  0  0  0
    9.2220    8.7060   22.2820 H   0  0  0  0  0  0  0  0  0  0  0  0
    7.4640    9.6300   25.2540 H   0  0  0  0  0  0  0  0  0  0  0  0
    6.3590   13.5210   26.1300 H   0  0  0  0  0  0  0  0  0  0  0  0
    8.0180   14.4680   24.4870 H   0  0  0  0  0  0  0  0  0  0  0  0
   12.1790   12.8690   23.1870 H   0  0  0  0  0  0  0  0  0  0  0  0
   13.7590   14.3890   22.1930 H   0  0  0  0  0  0  0  0  0  0  0  0
  1  2  1  0
  2  3  2  0
  3  4  1  0
  4  5  2  0
  5  6  1  0
  6  7  2  0
  7  8  1  0
  8  9  1  0
  8 10  1  0
 10 11  2  0
 11 12  1  0
 12 13  2  0
 13 14  1  0
 14 15  2  0
  5 16  1  0
 16 17  2  0
 17  2  1  0
 15  6  1  0
 15 10  1  0
  1 18  1  0
  1 19  1  0
  1 20  1  0
  3 21  1  0
  4 22  1  0
  7 23  1  0
  9 24  1  0
  9 25  1  0
  9 26  1  0
 11 27  1  0
 13 28  1  0
 14 29  1  0
 16 30  1  0
 17 31  1  0
A    1
 C1 
A    2
 C2 
A    3
 C3 
A    4
 C4 
A    5
 C5 
A    6
 C6 
A    7
 C7 
A    8
 N1 
A    9
 C8 
A   10
 C9 
A   11
 C10
A   12
 N2 
A   13
 C11
A   14
 C12
A   15
 C13
A   16
 C14
A   17
 C15
A   18
 H1 
A   19
 H2 
A   20
 H3 
A   21
 H4 
A   22
 H5 
A   23
 H6 
A   24
 H7 
A   25
 H8 
A   26
 H9 
A   27
 H10
A   28
 H11
A   29
 H12
A   30
 H13
A   31
 H14
M  END
>  <ref_pdb>  (6) 
x0310_0A

>  <ref_mols>  (6) 
x0451_0A,x0812_0A

>  <original SMILES>  (6) 
Cc1ccc(-c2cn(C)c3cnccc23)cc1

>  <rationale>  (6) 
info hydroph_interaction:Y89+Y90+H21; 

>  <intxn_cluster>  (6) 
208

>  <intxn_cluster_rank>  (6) 
16

>  <N_interactions>  (6) 
3

>  <∆∆G>  (6) 
-10.97634

>  <$/mg>  (6) 
163.0

>  <comRMSD>  (6) 
0.849253

>  <N_rotatable_bonds>  (6) 
3

>  <hbond:SER:7>  (6) 
hbond:SER:7    0
hbond:SER:7    0
Name: 5, dtype: object

>  <halogenbond:SER:7>  (6) 
halogenbond:SER:7    0
halogenbond:SER:7    0
Name: 5, dtype: object

>  <hbond:GLY:8>  (6) 
hbond:GLY:8    0
hbond:GLY:8    0
Name: 5, dtype: object

>  <hydroph_interaction:ASN:19>  (6) 
hydroph_interaction:ASN:19    0
hydroph_interaction:ASN:19    0
Name: 5, dtype: object

>  <hbond:ASN:19>  (6) 
hbond:ASN:19    0
hbond:ASN:19    0
Name: 5, dtype: object

>  <halogenbond:ASN:19>  (6) 
halogenbond:ASN:19    0
halogenbond:ASN:19    0
Name: 5, dtype: object

>  <hbond:ARG:20>  (6) 
hbond:ARG:20    0
hbond:ARG:20    0
Name: 5, dtype: object

>  <hydroph_interaction:ARG:20>  (6) 
hydroph_interaction:ARG:20    0
hydroph_interaction:ARG:20    0
Name: 5, dtype: object

>  <saltbridge:ARG:20>  (6) 
saltbridge:ARG:20    0
saltbridge:ARG:20    0
Name: 5, dtype: object

>  <halogenbond:ARG:20>  (6) 
halogenbond:ARG:20    0
halogenbond:ARG:20    0
Name: 5, dtype: object

>  <pication:ARG:20>  (6) 
pication:ARG:20    0
pication:ARG:20    0
Name: 5, dtype: object

>  <hbond:HIS:21>  (6) 
hbond:HIS:21    0
hbond:HIS:21    0
Name: 5, dtype: object

>  <hydroph_interaction:HIS:21>  (6) 
hydroph_interaction:HIS:21    1
hydroph_interaction:HIS:21    1
Name: 5, dtype: object

>  <saltbridge:HIS:21>  (6) 
saltbridge:HIS:21    0
saltbridge:HIS:21    0
Name: 5, dtype: object

>  <pistack:HIS:21>  (6) 
pistack:HIS:21    0
pistack:HIS:21    0
Name: 5, dtype: object

>  <pication:HIS:21>  (6) 
pication:HIS:21    0
pication:HIS:21    0
Name: 5, dtype: object

>  <halogenbond:HIS:21>  (6) 
halogenbond:HIS:21    0
halogenbond:HIS:21    0
Name: 5, dtype: object

>  <hydroph_interaction:LEU:22>  (6) 
hydroph_interaction:LEU:22    0
hydroph_interaction:LEU:22    0
Name: 5, dtype: object

>  <hbond:LEU:22>  (6) 
hbond:LEU:22    0
hbond:LEU:22    0
Name: 5, dtype: object

>  <hydroph_interaction:TRP:28>  (6) 
hydroph_interaction:TRP:28    0
hydroph_interaction:TRP:28    0
Name: 5, dtype: object

>  <hbond:SER:36>  (6) 
hbond:SER:36    0
hbond:SER:36    0
Name: 5, dtype: object

>  <halogenbond:SER:36>  (6) 
halogenbond:SER:36    0
halogenbond:SER:36    0
Name: 5, dtype: object

>  <hbond:ARG:38>  (6) 
hbond:ARG:38    0
hbond:ARG:38    0
Name: 5, dtype: object

>  <halogenbond:ARG:38>  (6) 
halogenbond:ARG:38    0
halogenbond:ARG:38    0
Name: 5, dtype: object

>  <hbond:ASP:39>  (6) 
hbond:ASP:39    0
hbond:ASP:39    0
Name: 5, dtype: object

>  <saltbridge:ASP:39>  (6) 
saltbridge:ASP:39    0
saltbridge:ASP:39    0
Name: 5, dtype: object

>  <hydroph_interaction:ASP:39>  (6) 
hydroph_interaction:ASP:39    0
hydroph_interaction:ASP:39    0
Name: 5, dtype: object

>  <halogenbond:ASP:39>  (6) 
halogenbond:ASP:39    0
halogenbond:ASP:39    0
Name: 5, dtype: object

>  <hydroph_interaction:LEU:40>  (6) 
hydroph_interaction:LEU:40    0
hydroph_interaction:LEU:40    0
Name: 5, dtype: object

>  <hydroph_interaction:TYR:63>  (6) 
hydroph_interaction:TYR:63    0
hydroph_interaction:TYR:63    0
Name: 5, dtype: object

>  <pistack:TYR:63>  (6) 
pistack:TYR:63    0
pistack:TYR:63    0
Name: 5, dtype: object

>  <hbond:TYR:63>  (6) 
hbond:TYR:63    0
hbond:TYR:63    0
Name: 5, dtype: object

>  <hbond:TYR:64>  (6) 
hbond:TYR:64    0
hbond:TYR:64    0
Name: 5, dtype: object

>  <halogenbond:TYR:64>  (6) 
halogenbond:TYR:64    0
halogenbond:TYR:64    0
Name: 5, dtype: object

>  <hydroph_interaction:TYR:64>  (6) 
hydroph_interaction:TYR:64    0
hydroph_interaction:TYR:64    0
Name: 5, dtype: object

>  <hbond:CYS:65>  (6) 
hbond:CYS:65    0
hbond:CYS:65    0
Name: 5, dtype: object

>  <halogenbond:CYS:65>  (6) 
halogenbond:CYS:65    0
halogenbond:CYS:65    0
Name: 5, dtype: object

>  <hbond:SER:66>  (6) 
hbond:SER:66    0
hbond:SER:66    0
Name: 5, dtype: object

>  <hbond:SER:67>  (6) 
hbond:SER:67    0
hbond:SER:67    0
Name: 5, dtype: object

>  <halogenbond:SER:67>  (6) 
halogenbond:SER:67    0
halogenbond:SER:67    0
Name: 5, dtype: object

>  <hydroph_interaction:ARG:68>  (6) 
hydroph_interaction:ARG:68    0
hydroph_interaction:ARG:68    0
Name: 5, dtype: object

>  <hbond:ARG:68>  (6) 
hbond:ARG:68    0
hbond:ARG:68    0
Name: 5, dtype: object

>  <saltbridge:ARG:68>  (6) 
saltbridge:ARG:68    0
saltbridge:ARG:68    0
Name: 5, dtype: object

>  <pication:ARG:68>  (6) 
pication:ARG:68    0
pication:ARG:68    0
Name: 5, dtype: object

>  <hydroph_interaction:TYR:72>  (6) 
hydroph_interaction:TYR:72    0
hydroph_interaction:TYR:72    0
Name: 5, dtype: object

>  <hydroph_interaction:VAL:74>  (6) 
hydroph_interaction:VAL:74    0
hydroph_interaction:VAL:74    0
Name: 5, dtype: object

>  <hydroph_interaction:PHE:76>  (6) 
hydroph_interaction:PHE:76    0
hydroph_interaction:PHE:76    0
Name: 5, dtype: object

>  <hbond:SER:77>  (6) 
hbond:SER:77    0
hbond:SER:77    0
Name: 5, dtype: object

>  <hbond:SER:80>  (6) 
hbond:SER:80    0
hbond:SER:80    0
Name: 5, dtype: object

>  <hbond:LEU:81>  (6) 
hbond:LEU:81    0
hbond:LEU:81    0
Name: 5, dtype: object

>  <halogenbond:LEU:81>  (6) 
halogenbond:LEU:81    0
halogenbond:LEU:81    0
Name: 5, dtype: object

>  <hydroph_interaction:LEU:81>  (6) 
hydroph_interaction:LEU:81    0
hydroph_interaction:LEU:81    0
Name: 5, dtype: object

>  <hydroph_interaction:ILE:82>  (6) 
hydroph_interaction:ILE:82    0
hydroph_interaction:ILE:82    0
Name: 5, dtype: object

>  <hbond:ILE:82>  (6) 
hbond:ILE:82    0
hbond:ILE:82    0
Name: 5, dtype: object

>  <hydroph_interaction:PHE:83>  (6) 
hydroph_interaction:PHE:83    0
hydroph_interaction:PHE:83    0
Name: 5, dtype: object

>  <hbond:PHE:83>  (6) 
hbond:PHE:83    0
hbond:PHE:83    0
Name: 5, dtype: object

>  <halogenbond:PHE:83>  (6) 
halogenbond:PHE:83    0
halogenbond:PHE:83    0
Name: 5, dtype: object

>  <pistack:PHE:83>  (6) 
pistack:PHE:83    0
pistack:PHE:83    0
Name: 5, dtype: object

>  <hydroph_interaction:VAL:84>  (6) 
hydroph_interaction:VAL:84    0
hydroph_interaction:VAL:84    0
Name: 5, dtype: object

>  <hbond:VAL:84>  (6) 
hbond:VAL:84    0
hbond:VAL:84    0
Name: 5, dtype: object

>  <halogenbond:VAL:84>  (6) 
halogenbond:VAL:84    0
halogenbond:VAL:84    0
Name: 5, dtype: object

>  <hydroph_interaction:GLU:85>  (6) 
hydroph_interaction:GLU:85    0
hydroph_interaction:GLU:85    0
Name: 5, dtype: object

>  <hbond:GLU:85>  (6) 
hbond:GLU:85    0
hbond:GLU:85    0
Name: 5, dtype: object

>  <saltbridge:GLU:85>  (6) 
saltbridge:GLU:85    0
saltbridge:GLU:85    0
Name: 5, dtype: object

>  <halogenbond:GLU:85>  (6) 
halogenbond:GLU:85    0
halogenbond:GLU:85    0
Name: 5, dtype: object

>  <hbond:ALA:86>  (6) 
hbond:ALA:86    0
hbond:ALA:86    0
Name: 5, dtype: object

>  <halogenbond:ALA:86>  (6) 
halogenbond:ALA:86    0
halogenbond:ALA:86    0
Name: 5, dtype: object

>  <hydroph_interaction:ALA:86>  (6) 
hydroph_interaction:ALA:86    0
hydroph_interaction:ALA:86    0
Name: 5, dtype: object

>  <hbond:SER:87>  (6) 
hbond:SER:87    0
hbond:SER:87    0
Name: 5, dtype: object

>  <halogenbond:SER:87>  (6) 
halogenbond:SER:87    0
halogenbond:SER:87    0
Name: 5, dtype: object

>  <hbond:GLU:88>  (6) 
hbond:GLU:88    0
hbond:GLU:88    0
Name: 5, dtype: object

>  <hydroph_interaction:GLU:88>  (6) 
hydroph_interaction:GLU:88    0
hydroph_interaction:GLU:88    0
Name: 5, dtype: object

>  <halogenbond:GLU:88>  (6) 
halogenbond:GLU:88    0
halogenbond:GLU:88    0
Name: 5, dtype: object

>  <saltbridge:GLU:88>  (6) 
saltbridge:GLU:88    0
saltbridge:GLU:88    0
Name: 5, dtype: object

>  <hydroph_interaction:TYR:89>  (6) 
hydroph_interaction:TYR:89    1
hydroph_interaction:TYR:89    1
Name: 5, dtype: object

>  <pistack:TYR:89>  (6) 
pistack:TYR:89    0
pistack:TYR:89    0
Name: 5, dtype: object

>  <hbond:TYR:89>  (6) 
hbond:TYR:89    0
hbond:TYR:89    0
Name: 5, dtype: object

>  <halogenbond:TYR:89>  (6) 
halogenbond:TYR:89    0
halogenbond:TYR:89    0
Name: 5, dtype: object

>  <hbond:TYR:90>  (6) 
hbond:TYR:90    0
hbond:TYR:90    0
Name: 5, dtype: object

>  <hydroph_interaction:TYR:90>  (6) 
hydroph_interaction:TYR:90    1
hydroph_interaction:TYR:90    1
Name: 5, dtype: object

>  <pistack:TYR:90>  (6) 
pistack:TYR:90    0
pistack:TYR:90    0
Name: 5, dtype: object

>  <halogenbond:TYR:90>  (6) 
halogenbond:TYR:90    0
halogenbond:TYR:90    0
Name: 5, dtype: object

>  <pication:TYR:90>  (6) 
pication:TYR:90    0
pication:TYR:90    0
Name: 5, dtype: object

>  <hydroph_interaction:PRO:91>  (6) 
hydroph_interaction:PRO:91    0
hydroph_interaction:PRO:91    0
Name: 5, dtype: object

>  <halogenbond:PRO:91>  (6) 
halogenbond:PRO:91    0
halogenbond:PRO:91    0
Name: 5, dtype: object

>  <hbond:PRO:91>  (6) 
hbond:PRO:91    0
hbond:PRO:91    0
Name: 5, dtype: object

>  <hydroph_interaction:ALA:92>  (6) 
hydroph_interaction:ALA:92    0
hydroph_interaction:ALA:92    0
Name: 5, dtype: object

>  <hbond:ARG:93>  (6) 
hbond:ARG:93    0
hbond:ARG:93    0
Name: 5, dtype: object

>  <pication:ARG:93>  (6) 
pication:ARG:93    0
pication:ARG:93    0
Name: 5, dtype: object

>  <saltbridge:ARG:93>  (6) 
saltbridge:ARG:93    0
saltbridge:ARG:93    0
Name: 5, dtype: object

>  <hydroph_interaction:ARG:93>  (6) 
hydroph_interaction:ARG:93    0
hydroph_interaction:ARG:93    0
Name: 5, dtype: object

>  <halogenbond:ARG:93>  (6) 
halogenbond:ARG:93    0
halogenbond:ARG:93    0
Name: 5, dtype: object

>  <hydroph_interaction:TYR:94>  (6) 
hydroph_interaction:TYR:94    0
hydroph_interaction:TYR:94    0
Name: 5, dtype: object

>  <hbond:TYR:94>  (6) 
hbond:TYR:94    0
hbond:TYR:94    0
Name: 5, dtype: object

>  <halogenbond:GLN:95>  (6) 
halogenbond:GLN:95    0
halogenbond:GLN:95    0
Name: 5, dtype: object

>  <hbond:GLN:95>  (6) 
hbond:GLN:95    0
hbond:GLN:95    0
Name: 5, dtype: object

>  <hydroph_interaction:GLN:95>  (6) 
hydroph_interaction:GLN:95    0
hydroph_interaction:GLN:95    0
Name: 5, dtype: object

>  <hbond:SER:96>  (6) 
hbond:SER:96    0
hbond:SER:96    0
Name: 5, dtype: object

>  <hydroph_interaction:LEU:98>  (6) 
hydroph_interaction:LEU:98    0
hydroph_interaction:LEU:98    0
Name: 5, dtype: object

>  <hbond:LEU:98>  (6) 
hbond:LEU:98    0
hbond:LEU:98    0
Name: 5, dtype: object

>  <hbond:MET:99>  (6) 
hbond:MET:99    0
hbond:MET:99    0
Name: 5, dtype: object

>  <hydroph_interaction:MET:99>  (6) 
hydroph_interaction:MET:99    0
hydroph_interaction:MET:99    0
Name: 5, dtype: object

>  <halogenbond:MET:99>  (6) 
halogenbond:MET:99    0
halogenbond:MET:99    0
Name: 5, dtype: object

>  <hydroph_interaction:LEU:100>  (6) 
hydroph_interaction:LEU:100    0
hydroph_interaction:LEU:100    0
Name: 5, dtype: object

>  <hbond:LEU:100>  (6) 
hbond:LEU:100    0
hbond:LEU:100    0
Name: 5, dtype: object

>  <hbond:ALA:101>  (6) 
hbond:ALA:101    0
hbond:ALA:101    0
Name: 5, dtype: object

>  <hydroph_interaction:ALA:101>  (6) 
hydroph_interaction:ALA:101    0
hydroph_interaction:ALA:101    0
Name: 5, dtype: object

>  <hydroph_interaction:VAL:102>  (6) 
hydroph_interaction:VAL:102    0
hydroph_interaction:VAL:102    0
Name: 5, dtype: object

>  <hbond:VAL:102>  (6) 
hbond:VAL:102    0
hbond:VAL:102    0
Name: 5, dtype: object

>  <hbond:GLY:103>  (6) 
hbond:GLY:103    0
hbond:GLY:103    0
Name: 5, dtype: object

>  <halogenbond:GLY:103>  (6) 
halogenbond:GLY:103    0
halogenbond:GLY:103    0
Name: 5, dtype: object

>  <hydroph_interaction:HIS:104>  (6) 
hydroph_interaction:HIS:104    0
hydroph_interaction:HIS:104    0
Name: 5, dtype: object

>  <hbond:HIS:104>  (6) 
hbond:HIS:104    0
hbond:HIS:104    0
Name: 5, dtype: object

>  <saltbridge:HIS:104>  (6) 
saltbridge:HIS:104    0
saltbridge:HIS:104    0
Name: 5, dtype: object

>  <pication:HIS:104>  (6) 
pication:HIS:104    0
pication:HIS:104    0
Name: 5, dtype: object

>  <pistack:HIS:104>  (6) 
pistack:HIS:104    0
pistack:HIS:104    0
Name: 5, dtype: object

>  <halogenbond:HIS:104>  (6) 
halogenbond:HIS:104    0
halogenbond:HIS:104    0
Name: 5, dtype: object

>  <hbond:SER:105>  (6) 
hbond:SER:105    0
hbond:SER:105    0
Name: 5, dtype: object

>  <halogenbond:SER:105>  (6) 
halogenbond:SER:105    0
halogenbond:SER:105    0
Name: 5, dtype: object

>  <hbond:GLU:106>  (6) 
hbond:GLU:106    0
hbond:GLU:106    0
Name: 5, dtype: object

>  <hydroph_interaction:GLU:106>  (6) 
hydroph_interaction:GLU:106    0
hydroph_interaction:GLU:106    0
Name: 5, dtype: object

>  <saltbridge:GLU:106>  (6) 
saltbridge:GLU:106    0
saltbridge:GLU:106    0
Name: 5, dtype: object

>  <halogenbond:GLU:106>  (6) 
halogenbond:GLU:106    0
halogenbond:GLU:106    0
Name: 5, dtype: object

>  <hydroph_interaction:PRO:107>  (6) 
hydroph_interaction:PRO:107    0
hydroph_interaction:PRO:107    0
Name: 5, dtype: object

>  <hbond:PRO:107>  (6) 
hbond:PRO:107    0
hbond:PRO:107    0
Name: 5, dtype: object

>  <halogenbond:PRO:107>  (6) 
halogenbond:PRO:107    0
halogenbond:PRO:107    0
Name: 5, dtype: object

>  <hbond:GLY:108>  (6) 
hbond:GLY:108    0
hbond:GLY:108    0
Name: 5, dtype: object

>  <halogenbond:GLY:108>  (6) 
halogenbond:GLY:108    0
halogenbond:GLY:108    0
Name: 5, dtype: object

>  <hbond:ASP:109>  (6) 
hbond:ASP:109    0
hbond:ASP:109    0
Name: 5, dtype: object

>  <hydroph_interaction:ASP:109>  (6) 
hydroph_interaction:ASP:109    0
hydroph_interaction:ASP:109    0
Name: 5, dtype: object

>  <saltbridge:ASP:109>  (6) 
saltbridge:ASP:109    0
saltbridge:ASP:109    0
Name: 5, dtype: object

>  <hbond:CYS:110>  (6) 
hbond:CYS:110    0
hbond:CYS:110    0
Name: 5, dtype: object

>  <halogenbond:CYS:110>  (6) 
halogenbond:CYS:110    0
halogenbond:CYS:110    0
Name: 5, dtype: object

>  <hbond:GLY:111>  (6) 
hbond:GLY:111    0
hbond:GLY:111    0
Name: 5, dtype: object

>  <hbond:GLY:112>  (6) 
hbond:GLY:112    0
hbond:GLY:112    0
Name: 5, dtype: object

>  <hbond:ILE:113>  (6) 
hbond:ILE:113    0
hbond:ILE:113    0
Name: 5, dtype: object

>  <hydroph_interaction:LEU:114>  (6) 
hydroph_interaction:LEU:114    0
hydroph_interaction:LEU:114    0
Name: 5, dtype: object

>  <hbond:LEU:114>  (6) 
hbond:LEU:114    0
hbond:LEU:114    0
Name: 5, dtype: object

>  <hydroph_interaction:ILE:123>  (6) 
hydroph_interaction:ILE:123    0
hydroph_interaction:ILE:123    0
Name: 5, dtype: object

>  <hbond:ILE:123>  (6) 
hbond:ILE:123    0
hbond:ILE:123    0
Name: 5, dtype: object

>  <hydroph_interaction:VAL:124>  (6) 
hydroph_interaction:VAL:124    0
hydroph_interaction:VAL:124    0
Name: 5, dtype: object

>  <hbond:VAL:124>  (6) 
hbond:VAL:124    0
hbond:VAL:124    0
Name: 5, dtype: object

>  <halogenbond:VAL:124>  (6) 
halogenbond:VAL:124    0
halogenbond:VAL:124    0
Name: 5, dtype: object

>  <hbond:SER:125>  (6) 
hbond:SER:125    0
hbond:SER:125    0
Name: 5, dtype: object

>  <halogenbond:SER:125>  (6) 
halogenbond:SER:125    0
halogenbond:SER:125    0
Name: 5, dtype: object

>  <hydroph_interaction:THR:126>  (6) 
hydroph_interaction:THR:126    0
hydroph_interaction:THR:126    0
Name: 5, dtype: object

>  <hbond:THR:126>  (6) 
hbond:THR:126    0
hbond:THR:126    0
Name: 5, dtype: object

>  <halogenbond:THR:126>  (6) 
halogenbond:THR:126    0
halogenbond:THR:126    0
Name: 5, dtype: object

>  <hbond:GLY:127>  (6) 
hbond:GLY:127    0
hbond:GLY:127    0
Name: 5, dtype: object

>  <halogenbond:GLY:127>  (6) 
halogenbond:GLY:127    0
halogenbond:GLY:127    0
Name: 5, dtype: object

>  <hydroph_interaction:GLY:127>  (6) 
hydroph_interaction:GLY:127    0
hydroph_interaction:GLY:127    0
Name: 5, dtype: object

>  <hbond:GLY:128>  (6) 
hbond:GLY:128    0
hbond:GLY:128    0
Name: 5, dtype: object

>  <halogenbond:GLY:128>  (6) 
halogenbond:GLY:128    0
halogenbond:GLY:128    0
Name: 5, dtype: object

>  <hydroph_interaction:GLY:128>  (6) 
hydroph_interaction:GLY:128    0
hydroph_interaction:GLY:128    0
Name: 5, dtype: object

>  <hbond:ASN:129>  (6) 
hbond:ASN:129    0
hbond:ASN:129    0
Name: 5, dtype: object

>  <hydroph_interaction:ASN:129>  (6) 
hydroph_interaction:ASN:129    0
hydroph_interaction:ASN:129    0
Name: 5, dtype: object

>  <halogenbond:ASN:129>  (6) 
halogenbond:ASN:129    0
halogenbond:ASN:129    0
Name: 5, dtype: object

>  <hbond:GLY:130>  (6) 
hbond:GLY:130    0
hbond:GLY:130    0
Name: 5, dtype: object

>  <hydroph_interaction:LEU:131>  (6) 
hydroph_interaction:LEU:131    0
hydroph_interaction:LEU:131    0
Name: 5, dtype: object

>  <hbond:LEU:131>  (6) 
hbond:LEU:131    0
hbond:LEU:131    0
Name: 5, dtype: object

>  <halogenbond:LEU:131>  (6) 
halogenbond:LEU:131    0
halogenbond:LEU:131    0
Name: 5, dtype: object

>  <hydroph_interaction:VAL:132>  (6) 
hydroph_interaction:VAL:132    0
hydroph_interaction:VAL:132    0
Name: 5, dtype: object

>  <hbond:VAL:132>  (6) 
hbond:VAL:132    0
hbond:VAL:132    0
Name: 5, dtype: object

>  <hbond:GLY:133>  (6) 
hbond:GLY:133    0
hbond:GLY:133    0
Name: 5, dtype: object

>  <halogenbond:GLY:133>  (6) 
halogenbond:GLY:133    0
halogenbond:GLY:133    0
Name: 5, dtype: object

>  <hydroph_interaction:PHE:134>  (6) 
hydroph_interaction:PHE:134    0
hydroph_interaction:PHE:134    0
Name: 5, dtype: object

>  <hbond:PHE:134>  (6) 
hbond:PHE:134    0
hbond:PHE:134    0
Name: 5, dtype: object

>  <pistack:PHE:134>  (6) 
pistack:PHE:134    0
pistack:PHE:134    0
Name: 5, dtype: object

>  <pication:PHE:134>  (6) 
pication:PHE:134    0
pication:PHE:134    0
Name: 5, dtype: object

>  <hydroph_interaction:ALA:135>  (6) 
hydroph_interaction:ALA:135    0
hydroph_interaction:ALA:135    0
Name: 5, dtype: object

>  <hbond:ALA:135>  (6) 
hbond:ALA:135    0
hbond:ALA:135    0
Name: 5, dtype: object

$$$$
PV_002881139093
     RDKit          3D

 23 24  0  0  0  0  0  0  0  0999 V2000
   12.4190   15.7600   21.8020 C   0  0  0  0  0  0  0  0  0  0  0  0
   12.5020   14.3290   22.2920 C   0  0  0  0  0  0  0  0  0  0  0  0
   11.3630   14.0190   23.0970 O   0  0  0  0  0  0  0  0  0  0  0  0
   10.3260   13.5020   22.3920 C   0  0  0  0  0  0  0  0  0  0  0  0
    9.8800   14.0470   21.3880 O   0  0  0  0  0  0  0  0  0  0  0  0
    9.7870   12.2420   22.9990 C   0  0  0  0  0  0  0  0  0  0  0  0
   10.1670   10.9510   22.7020 C   0  0  0  0  0  0  0  0  0  0  0  0
    9.3270    9.7730   23.5870 S   0  0  0  0  0  0  0  0  0  0  0  0
    8.4190   10.9640   24.3940 C   0  0  0  0  0  0  0  0  0  0  0  0
    7.4360   10.7730   25.3450 C   0  0  0  0  0  0  0  0  0  0  0  0
    6.8290   11.9050   25.8650 C   0  0  0  0  0  0  0  0  0  0  0  0
    7.2280   13.1450   25.4170 C   0  0  0  0  0  0  0  0  0  0  0  0
    8.1750   13.3560   24.4980 N   0  0  0  0  0  0  0  0  0  0  0  0
    8.7680   12.2450   23.9880 C   0  0  0  0  0  0  0  0  0  0  0  0
   11.5540   15.8900   21.1500 H   0  0  0  0  0  0  0  0  0  0  0  0
   13.3180   16.0090   21.2300 H   0  0  0  0  0  0  0  0  0  0  0  0
   12.3160   16.4470   22.6500 H   0  0  0  0  0  0  0  0  0  0  0  0
   13.4060   14.2020   22.8940 H   0  0  0  0  0  0  0  0  0  0  0  0
   12.5450   13.6430   21.4400 H   0  0  0  0  0  0  0  0  0  0  0  0
   10.9050   10.6270   21.9940 H   0  0  0  0  0  0  0  0  0  0  0  0
    7.1400    9.7980   25.6770 H   0  0  0  0  0  0  0  0  0  0  0  0
    6.0520   11.8160   26.6130 H   0  0  0  0  0  0  0  0  0  0  0  0
    6.7680   14.0460   25.8110 H   0  0  0  0  0  0  0  0  0  0  0  0
  1  2  1  0
  2  3  1  0
  3  4  1  0
  4  5  2  0
  4  6  1  0
  6  7  2  0
  7  8  1  0
  8  9  1  0
  9 10  2  0
 10 11  1  0
 11 12  2  0
 12 13  1  0
 13 14  2  0
 14  6  1  0
 14  9  1  0
  1 15  1  0
  1 16  1  0
  1 17  1  0
  2 18  1  0
  2 19  1  0
  7 20  1  0
 10 21  1  0
 11 22  1  0
 12 23  1  0
A    1
 C1 
A    2
 C2 
A    3
 O1 
A    4
 C3 
A    5
 O2 
A    6
 C4 
A    7
 C5 
A    8
 S1 
A    9
 C6 
A   10
 C7 
A   11
 C8 
A   12
 C9 
A   13
 N1 
A   14
 C10
A   15
 H1 
A   16
 H2 
A   17
 H3 
A   18
 H4 
A   19
 H5 
A   20
 H6 
A   21
 H7 
A   22
 H8 
A   23
 H9 
M  END
>  <ref_pdb>  (7) 
x0310_0A

>  <ref_mols>  (7) 
x0554_0A,x0310_0A

>  <original SMILES>  (7) 
CCOC(=O)c1csc2cccnc12

>  <rationale>  (7) 
info hbond:S87; hydroph_interaction:Y89+Y90; saltbridge:H21; 

>  <intxn_cluster>  (7) 
208

>  <intxn_cluster_rank>  (7) 
17

>  <N_interactions>  (7) 
4

>  <∆∆G>  (7) 
-8.374749

>  <$/mg>  (7) 
163.0

>  <comRMSD>  (7) 
0.908756

>  <N_rotatable_bonds>  (7) 
3

>  <hbond:SER:7>  (7) 
hbond:SER:7    0
hbond:SER:7    0
Name: 6, dtype: object

>  <halogenbond:SER:7>  (7) 
halogenbond:SER:7    0
halogenbond:SER:7    0
Name: 6, dtype: object

>  <hbond:GLY:8>  (7) 
hbond:GLY:8    0
hbond:GLY:8    0
Name: 6, dtype: object

>  <hydroph_interaction:ASN:19>  (7) 
hydroph_interaction:ASN:19    0
hydroph_interaction:ASN:19    0
Name: 6, dtype: object

>  <hbond:ASN:19>  (7) 
hbond:ASN:19    0
hbond:ASN:19    0
Name: 6, dtype: object

>  <halogenbond:ASN:19>  (7) 
halogenbond:ASN:19    0
halogenbond:ASN:19    0
Name: 6, dtype: object

>  <hbond:ARG:20>  (7) 
hbond:ARG:20    0
hbond:ARG:20    0
Name: 6, dtype: object

>  <hydroph_interaction:ARG:20>  (7) 
hydroph_interaction:ARG:20    0
hydroph_interaction:ARG:20    0
Name: 6, dtype: object

>  <saltbridge:ARG:20>  (7) 
saltbridge:ARG:20    0
saltbridge:ARG:20    0
Name: 6, dtype: object

>  <halogenbond:ARG:20>  (7) 
halogenbond:ARG:20    0
halogenbond:ARG:20    0
Name: 6, dtype: object

>  <pication:ARG:20>  (7) 
pication:ARG:20    0
pication:ARG:20    0
Name: 6, dtype: object

>  <hbond:HIS:21>  (7) 
hbond:HIS:21    0
hbond:HIS:21    0
Name: 6, dtype: object

>  <hydroph_interaction:HIS:21>  (7) 
hydroph_interaction:HIS:21    0
hydroph_interaction:HIS:21    0
Name: 6, dtype: object

>  <saltbridge:HIS:21>  (7) 
saltbridge:HIS:21    1
saltbridge:HIS:21    1
Name: 6, dtype: object

>  <pistack:HIS:21>  (7) 
pistack:HIS:21    0
pistack:HIS:21    0
Name: 6, dtype: object

>  <pication:HIS:21>  (7) 
pication:HIS:21    0
pication:HIS:21    0
Name: 6, dtype: object

>  <halogenbond:HIS:21>  (7) 
halogenbond:HIS:21    0
halogenbond:HIS:21    0
Name: 6, dtype: object

>  <hydroph_interaction:LEU:22>  (7) 
hydroph_interaction:LEU:22    0
hydroph_interaction:LEU:22    0
Name: 6, dtype: object

>  <hbond:LEU:22>  (7) 
hbond:LEU:22    0
hbond:LEU:22    0
Name: 6, dtype: object

>  <hydroph_interaction:TRP:28>  (7) 
hydroph_interaction:TRP:28    0
hydroph_interaction:TRP:28    0
Name: 6, dtype: object

>  <hbond:SER:36>  (7) 
hbond:SER:36    0
hbond:SER:36    0
Name: 6, dtype: object

>  <halogenbond:SER:36>  (7) 
halogenbond:SER:36    0
halogenbond:SER:36    0
Name: 6, dtype: object

>  <hbond:ARG:38>  (7) 
hbond:ARG:38    0
hbond:ARG:38    0
Name: 6, dtype: object

>  <halogenbond:ARG:38>  (7) 
halogenbond:ARG:38    0
halogenbond:ARG:38    0
Name: 6, dtype: object

>  <hbond:ASP:39>  (7) 
hbond:ASP:39    0
hbond:ASP:39    0
Name: 6, dtype: object

>  <saltbridge:ASP:39>  (7) 
saltbridge:ASP:39    0
saltbridge:ASP:39    0
Name: 6, dtype: object

>  <hydroph_interaction:ASP:39>  (7) 
hydroph_interaction:ASP:39    0
hydroph_interaction:ASP:39    0
Name: 6, dtype: object

>  <halogenbond:ASP:39>  (7) 
halogenbond:ASP:39    0
halogenbond:ASP:39    0
Name: 6, dtype: object

>  <hydroph_interaction:LEU:40>  (7) 
hydroph_interaction:LEU:40    0
hydroph_interaction:LEU:40    0
Name: 6, dtype: object

>  <hydroph_interaction:TYR:63>  (7) 
hydroph_interaction:TYR:63    0
hydroph_interaction:TYR:63    0
Name: 6, dtype: object

>  <pistack:TYR:63>  (7) 
pistack:TYR:63    0
pistack:TYR:63    0
Name: 6, dtype: object

>  <hbond:TYR:63>  (7) 
hbond:TYR:63    0
hbond:TYR:63    0
Name: 6, dtype: object

>  <hbond:TYR:64>  (7) 
hbond:TYR:64    0
hbond:TYR:64    0
Name: 6, dtype: object

>  <halogenbond:TYR:64>  (7) 
halogenbond:TYR:64    0
halogenbond:TYR:64    0
Name: 6, dtype: object

>  <hydroph_interaction:TYR:64>  (7) 
hydroph_interaction:TYR:64    0
hydroph_interaction:TYR:64    0
Name: 6, dtype: object

>  <hbond:CYS:65>  (7) 
hbond:CYS:65    0
hbond:CYS:65    0
Name: 6, dtype: object

>  <halogenbond:CYS:65>  (7) 
halogenbond:CYS:65    0
halogenbond:CYS:65    0
Name: 6, dtype: object

>  <hbond:SER:66>  (7) 
hbond:SER:66    0
hbond:SER:66    0
Name: 6, dtype: object

>  <hbond:SER:67>  (7) 
hbond:SER:67    0
hbond:SER:67    0
Name: 6, dtype: object

>  <halogenbond:SER:67>  (7) 
halogenbond:SER:67    0
halogenbond:SER:67    0
Name: 6, dtype: object

>  <hydroph_interaction:ARG:68>  (7) 
hydroph_interaction:ARG:68    0
hydroph_interaction:ARG:68    0
Name: 6, dtype: object

>  <hbond:ARG:68>  (7) 
hbond:ARG:68    0
hbond:ARG:68    0
Name: 6, dtype: object

>  <saltbridge:ARG:68>  (7) 
saltbridge:ARG:68    0
saltbridge:ARG:68    0
Name: 6, dtype: object

>  <pication:ARG:68>  (7) 
pication:ARG:68    0
pication:ARG:68    0
Name: 6, dtype: object

>  <hydroph_interaction:TYR:72>  (7) 
hydroph_interaction:TYR:72    0
hydroph_interaction:TYR:72    0
Name: 6, dtype: object

>  <hydroph_interaction:VAL:74>  (7) 
hydroph_interaction:VAL:74    0
hydroph_interaction:VAL:74    0
Name: 6, dtype: object

>  <hydroph_interaction:PHE:76>  (7) 
hydroph_interaction:PHE:76    0
hydroph_interaction:PHE:76    0
Name: 6, dtype: object

>  <hbond:SER:77>  (7) 
hbond:SER:77    0
hbond:SER:77    0
Name: 6, dtype: object

>  <hbond:SER:80>  (7) 
hbond:SER:80    0
hbond:SER:80    0
Name: 6, dtype: object

>  <hbond:LEU:81>  (7) 
hbond:LEU:81    0
hbond:LEU:81    0
Name: 6, dtype: object

>  <halogenbond:LEU:81>  (7) 
halogenbond:LEU:81    0
halogenbond:LEU:81    0
Name: 6, dtype: object

>  <hydroph_interaction:LEU:81>  (7) 
hydroph_interaction:LEU:81    0
hydroph_interaction:LEU:81    0
Name: 6, dtype: object

>  <hydroph_interaction:ILE:82>  (7) 
hydroph_interaction:ILE:82    0
hydroph_interaction:ILE:82    0
Name: 6, dtype: object

>  <hbond:ILE:82>  (7) 
hbond:ILE:82    0
hbond:ILE:82    0
Name: 6, dtype: object

>  <hydroph_interaction:PHE:83>  (7) 
hydroph_interaction:PHE:83    0
hydroph_interaction:PHE:83    0
Name: 6, dtype: object

>  <hbond:PHE:83>  (7) 
hbond:PHE:83    0
hbond:PHE:83    0
Name: 6, dtype: object

>  <halogenbond:PHE:83>  (7) 
halogenbond:PHE:83    0
halogenbond:PHE:83    0
Name: 6, dtype: object

>  <pistack:PHE:83>  (7) 
pistack:PHE:83    0
pistack:PHE:83    0
Name: 6, dtype: object

>  <hydroph_interaction:VAL:84>  (7) 
hydroph_interaction:VAL:84    0
hydroph_interaction:VAL:84    0
Name: 6, dtype: object

>  <hbond:VAL:84>  (7) 
hbond:VAL:84    0
hbond:VAL:84    0
Name: 6, dtype: object

>  <halogenbond:VAL:84>  (7) 
halogenbond:VAL:84    0
halogenbond:VAL:84    0
Name: 6, dtype: object

>  <hydroph_interaction:GLU:85>  (7) 
hydroph_interaction:GLU:85    0
hydroph_interaction:GLU:85    0
Name: 6, dtype: object

>  <hbond:GLU:85>  (7) 
hbond:GLU:85    0
hbond:GLU:85    0
Name: 6, dtype: object

>  <saltbridge:GLU:85>  (7) 
saltbridge:GLU:85    0
saltbridge:GLU:85    0
Name: 6, dtype: object

>  <halogenbond:GLU:85>  (7) 
halogenbond:GLU:85    0
halogenbond:GLU:85    0
Name: 6, dtype: object

>  <hbond:ALA:86>  (7) 
hbond:ALA:86    0
hbond:ALA:86    0
Name: 6, dtype: object

>  <halogenbond:ALA:86>  (7) 
halogenbond:ALA:86    0
halogenbond:ALA:86    0
Name: 6, dtype: object

>  <hydroph_interaction:ALA:86>  (7) 
hydroph_interaction:ALA:86    0
hydroph_interaction:ALA:86    0
Name: 6, dtype: object

>  <hbond:SER:87>  (7) 
hbond:SER:87    1
hbond:SER:87    1
Name: 6, dtype: object

>  <halogenbond:SER:87>  (7) 
halogenbond:SER:87    0
halogenbond:SER:87    0
Name: 6, dtype: object

>  <hbond:GLU:88>  (7) 
hbond:GLU:88    0
hbond:GLU:88    0
Name: 6, dtype: object

>  <hydroph_interaction:GLU:88>  (7) 
hydroph_interaction:GLU:88    0
hydroph_interaction:GLU:88    0
Name: 6, dtype: object

>  <halogenbond:GLU:88>  (7) 
halogenbond:GLU:88    0
halogenbond:GLU:88    0
Name: 6, dtype: object

>  <saltbridge:GLU:88>  (7) 
saltbridge:GLU:88    0
saltbridge:GLU:88    0
Name: 6, dtype: object

>  <hydroph_interaction:TYR:89>  (7) 
hydroph_interaction:TYR:89    1
hydroph_interaction:TYR:89    1
Name: 6, dtype: object

>  <pistack:TYR:89>  (7) 
pistack:TYR:89    0
pistack:TYR:89    0
Name: 6, dtype: object

>  <hbond:TYR:89>  (7) 
hbond:TYR:89    0
hbond:TYR:89    0
Name: 6, dtype: object

>  <halogenbond:TYR:89>  (7) 
halogenbond:TYR:89    0
halogenbond:TYR:89    0
Name: 6, dtype: object

>  <hbond:TYR:90>  (7) 
hbond:TYR:90    0
hbond:TYR:90    0
Name: 6, dtype: object

>  <hydroph_interaction:TYR:90>  (7) 
hydroph_interaction:TYR:90    1
hydroph_interaction:TYR:90    1
Name: 6, dtype: object

>  <pistack:TYR:90>  (7) 
pistack:TYR:90    0
pistack:TYR:90    0
Name: 6, dtype: object

>  <halogenbond:TYR:90>  (7) 
halogenbond:TYR:90    0
halogenbond:TYR:90    0
Name: 6, dtype: object

>  <pication:TYR:90>  (7) 
pication:TYR:90    0
pication:TYR:90    0
Name: 6, dtype: object

>  <hydroph_interaction:PRO:91>  (7) 
hydroph_interaction:PRO:91    0
hydroph_interaction:PRO:91    0
Name: 6, dtype: object

>  <halogenbond:PRO:91>  (7) 
halogenbond:PRO:91    0
halogenbond:PRO:91    0
Name: 6, dtype: object

>  <hbond:PRO:91>  (7) 
hbond:PRO:91    0
hbond:PRO:91    0
Name: 6, dtype: object

>  <hydroph_interaction:ALA:92>  (7) 
hydroph_interaction:ALA:92    0
hydroph_interaction:ALA:92    0
Name: 6, dtype: object

>  <hbond:ARG:93>  (7) 
hbond:ARG:93    0
hbond:ARG:93    0
Name: 6, dtype: object

>  <pication:ARG:93>  (7) 
pication:ARG:93    0
pication:ARG:93    0
Name: 6, dtype: object

>  <saltbridge:ARG:93>  (7) 
saltbridge:ARG:93    0
saltbridge:ARG:93    0
Name: 6, dtype: object

>  <hydroph_interaction:ARG:93>  (7) 
hydroph_interaction:ARG:93    0
hydroph_interaction:ARG:93    0
Name: 6, dtype: object

>  <halogenbond:ARG:93>  (7) 
halogenbond:ARG:93    0
halogenbond:ARG:93    0
Name: 6, dtype: object

>  <hydroph_interaction:TYR:94>  (7) 
hydroph_interaction:TYR:94    0
hydroph_interaction:TYR:94    0
Name: 6, dtype: object

>  <hbond:TYR:94>  (7) 
hbond:TYR:94    0
hbond:TYR:94    0
Name: 6, dtype: object

>  <halogenbond:GLN:95>  (7) 
halogenbond:GLN:95    0
halogenbond:GLN:95    0
Name: 6, dtype: object

>  <hbond:GLN:95>  (7) 
hbond:GLN:95    0
hbond:GLN:95    0
Name: 6, dtype: object

>  <hydroph_interaction:GLN:95>  (7) 
hydroph_interaction:GLN:95    0
hydroph_interaction:GLN:95    0
Name: 6, dtype: object

>  <hbond:SER:96>  (7) 
hbond:SER:96    0
hbond:SER:96    0
Name: 6, dtype: object

>  <hydroph_interaction:LEU:98>  (7) 
hydroph_interaction:LEU:98    0
hydroph_interaction:LEU:98    0
Name: 6, dtype: object

>  <hbond:LEU:98>  (7) 
hbond:LEU:98    0
hbond:LEU:98    0
Name: 6, dtype: object

>  <hbond:MET:99>  (7) 
hbond:MET:99    0
hbond:MET:99    0
Name: 6, dtype: object

>  <hydroph_interaction:MET:99>  (7) 
hydroph_interaction:MET:99    0
hydroph_interaction:MET:99    0
Name: 6, dtype: object

>  <halogenbond:MET:99>  (7) 
halogenbond:MET:99    0
halogenbond:MET:99    0
Name: 6, dtype: object

>  <hydroph_interaction:LEU:100>  (7) 
hydroph_interaction:LEU:100    0
hydroph_interaction:LEU:100    0
Name: 6, dtype: object

>  <hbond:LEU:100>  (7) 
hbond:LEU:100    0
hbond:LEU:100    0
Name: 6, dtype: object

>  <hbond:ALA:101>  (7) 
hbond:ALA:101    0
hbond:ALA:101    0
Name: 6, dtype: object

>  <hydroph_interaction:ALA:101>  (7) 
hydroph_interaction:ALA:101    0
hydroph_interaction:ALA:101    0
Name: 6, dtype: object

>  <hydroph_interaction:VAL:102>  (7) 
hydroph_interaction:VAL:102    0
hydroph_interaction:VAL:102    0
Name: 6, dtype: object

>  <hbond:VAL:102>  (7) 
hbond:VAL:102    0
hbond:VAL:102    0
Name: 6, dtype: object

>  <hbond:GLY:103>  (7) 
hbond:GLY:103    0
hbond:GLY:103    0
Name: 6, dtype: object

>  <halogenbond:GLY:103>  (7) 
halogenbond:GLY:103    0
halogenbond:GLY:103    0
Name: 6, dtype: object

>  <hydroph_interaction:HIS:104>  (7) 
hydroph_interaction:HIS:104    0
hydroph_interaction:HIS:104    0
Name: 6, dtype: object

>  <hbond:HIS:104>  (7) 
hbond:HIS:104    0
hbond:HIS:104    0
Name: 6, dtype: object

>  <saltbridge:HIS:104>  (7) 
saltbridge:HIS:104    0
saltbridge:HIS:104    0
Name: 6, dtype: object

>  <pication:HIS:104>  (7) 
pication:HIS:104    0
pication:HIS:104    0
Name: 6, dtype: object

>  <pistack:HIS:104>  (7) 
pistack:HIS:104    0
pistack:HIS:104    0
Name: 6, dtype: object

>  <halogenbond:HIS:104>  (7) 
halogenbond:HIS:104    0
halogenbond:HIS:104    0
Name: 6, dtype: object

>  <hbond:SER:105>  (7) 
hbond:SER:105    0
hbond:SER:105    0
Name: 6, dtype: object

>  <halogenbond:SER:105>  (7) 
halogenbond:SER:105    0
halogenbond:SER:105    0
Name: 6, dtype: object

>  <hbond:GLU:106>  (7) 
hbond:GLU:106    0
hbond:GLU:106    0
Name: 6, dtype: object

>  <hydroph_interaction:GLU:106>  (7) 
hydroph_interaction:GLU:106    0
hydroph_interaction:GLU:106    0
Name: 6, dtype: object

>  <saltbridge:GLU:106>  (7) 
saltbridge:GLU:106    0
saltbridge:GLU:106    0
Name: 6, dtype: object

>  <halogenbond:GLU:106>  (7) 
halogenbond:GLU:106    0
halogenbond:GLU:106    0
Name: 6, dtype: object

>  <hydroph_interaction:PRO:107>  (7) 
hydroph_interaction:PRO:107    0
hydroph_interaction:PRO:107    0
Name: 6, dtype: object

>  <hbond:PRO:107>  (7) 
hbond:PRO:107    0
hbond:PRO:107    0
Name: 6, dtype: object

>  <halogenbond:PRO:107>  (7) 
halogenbond:PRO:107    0
halogenbond:PRO:107    0
Name: 6, dtype: object

>  <hbond:GLY:108>  (7) 
hbond:GLY:108    0
hbond:GLY:108    0
Name: 6, dtype: object

>  <halogenbond:GLY:108>  (7) 
halogenbond:GLY:108    0
halogenbond:GLY:108    0
Name: 6, dtype: object

>  <hbond:ASP:109>  (7) 
hbond:ASP:109    0
hbond:ASP:109    0
Name: 6, dtype: object

>  <hydroph_interaction:ASP:109>  (7) 
hydroph_interaction:ASP:109    0
hydroph_interaction:ASP:109    0
Name: 6, dtype: object

>  <saltbridge:ASP:109>  (7) 
saltbridge:ASP:109    0
saltbridge:ASP:109    0
Name: 6, dtype: object

>  <hbond:CYS:110>  (7) 
hbond:CYS:110    0
hbond:CYS:110    0
Name: 6, dtype: object

>  <halogenbond:CYS:110>  (7) 
halogenbond:CYS:110    0
halogenbond:CYS:110    0
Name: 6, dtype: object

>  <hbond:GLY:111>  (7) 
hbond:GLY:111    0
hbond:GLY:111    0
Name: 6, dtype: object

>  <hbond:GLY:112>  (7) 
hbond:GLY:112    0
hbond:GLY:112    0
Name: 6, dtype: object

>  <hbond:ILE:113>  (7) 
hbond:ILE:113    0
hbond:ILE:113    0
Name: 6, dtype: object

>  <hydroph_interaction:LEU:114>  (7) 
hydroph_interaction:LEU:114    0
hydroph_interaction:LEU:114    0
Name: 6, dtype: object

>  <hbond:LEU:114>  (7) 
hbond:LEU:114    0
hbond:LEU:114    0
Name: 6, dtype: object

>  <hydroph_interaction:ILE:123>  (7) 
hydroph_interaction:ILE:123    0
hydroph_interaction:ILE:123    0
Name: 6, dtype: object

>  <hbond:ILE:123>  (7) 
hbond:ILE:123    0
hbond:ILE:123    0
Name: 6, dtype: object

>  <hydroph_interaction:VAL:124>  (7) 
hydroph_interaction:VAL:124    0
hydroph_interaction:VAL:124    0
Name: 6, dtype: object

>  <hbond:VAL:124>  (7) 
hbond:VAL:124    0
hbond:VAL:124    0
Name: 6, dtype: object

>  <halogenbond:VAL:124>  (7) 
halogenbond:VAL:124    0
halogenbond:VAL:124    0
Name: 6, dtype: object

>  <hbond:SER:125>  (7) 
hbond:SER:125    0
hbond:SER:125    0
Name: 6, dtype: object

>  <halogenbond:SER:125>  (7) 
halogenbond:SER:125    0
halogenbond:SER:125    0
Name: 6, dtype: object

>  <hydroph_interaction:THR:126>  (7) 
hydroph_interaction:THR:126    0
hydroph_interaction:THR:126    0
Name: 6, dtype: object

>  <hbond:THR:126>  (7) 
hbond:THR:126    0
hbond:THR:126    0
Name: 6, dtype: object

>  <halogenbond:THR:126>  (7) 
halogenbond:THR:126    0
halogenbond:THR:126    0
Name: 6, dtype: object

>  <hbond:GLY:127>  (7) 
hbond:GLY:127    0
hbond:GLY:127    0
Name: 6, dtype: object

>  <halogenbond:GLY:127>  (7) 
halogenbond:GLY:127    0
halogenbond:GLY:127    0
Name: 6, dtype: object

>  <hydroph_interaction:GLY:127>  (7) 
hydroph_interaction:GLY:127    0
hydroph_interaction:GLY:127    0
Name: 6, dtype: object

>  <hbond:GLY:128>  (7) 
hbond:GLY:128    0
hbond:GLY:128    0
Name: 6, dtype: object

>  <halogenbond:GLY:128>  (7) 
halogenbond:GLY:128    0
halogenbond:GLY:128    0
Name: 6, dtype: object

>  <hydroph_interaction:GLY:128>  (7) 
hydroph_interaction:GLY:128    0
hydroph_interaction:GLY:128    0
Name: 6, dtype: object

>  <hbond:ASN:129>  (7) 
hbond:ASN:129    0
hbond:ASN:129    0
Name: 6, dtype: object

>  <hydroph_interaction:ASN:129>  (7) 
hydroph_interaction:ASN:129    0
hydroph_interaction:ASN:129    0
Name: 6, dtype: object

>  <halogenbond:ASN:129>  (7) 
halogenbond:ASN:129    0
halogenbond:ASN:129    0
Name: 6, dtype: object

>  <hbond:GLY:130>  (7) 
hbond:GLY:130    0
hbond:GLY:130    0
Name: 6, dtype: object

>  <hydroph_interaction:LEU:131>  (7) 
hydroph_interaction:LEU:131    0
hydroph_interaction:LEU:131    0
Name: 6, dtype: object

>  <hbond:LEU:131>  (7) 
hbond:LEU:131    0
hbond:LEU:131    0
Name: 6, dtype: object

>  <halogenbond:LEU:131>  (7) 
halogenbond:LEU:131    0
halogenbond:LEU:131    0
Name: 6, dtype: object

>  <hydroph_interaction:VAL:132>  (7) 
hydroph_interaction:VAL:132    0
hydroph_interaction:VAL:132    0
Name: 6, dtype: object

>  <hbond:VAL:132>  (7) 
hbond:VAL:132    0
hbond:VAL:132    0
Name: 6, dtype: object

>  <hbond:GLY:133>  (7) 
hbond:GLY:133    0
hbond:GLY:133    0
Name: 6, dtype: object

>  <halogenbond:GLY:133>  (7) 
halogenbond:GLY:133    0
halogenbond:GLY:133    0
Name: 6, dtype: object

>  <hydroph_interaction:PHE:134>  (7) 
hydroph_interaction:PHE:134    0
hydroph_interaction:PHE:134    0
Name: 6, dtype: object

>  <hbond:PHE:134>  (7) 
hbond:PHE:134    0
hbond:PHE:134    0
Name: 6, dtype: object

>  <pistack:PHE:134>  (7) 
pistack:PHE:134    0
pistack:PHE:134    0
Name: 6, dtype: object

>  <pication:PHE:134>  (7) 
pication:PHE:134    0
pication:PHE:134    0
Name: 6, dtype: object

>  <hydroph_interaction:ALA:135>  (7) 
hydroph_interaction:ALA:135    0
hydroph_interaction:ALA:135    0
Name: 6, dtype: object

>  <hbond:ALA:135>  (7) 
hbond:ALA:135    0
hbond:ALA:135    0
Name: 6, dtype: object

$$$$
PV_002404879736
     RDKit          3D

 30 31  0  0  0  0  0  0  0  0999 V2000
   12.3900   15.8610   21.7250 C   0  0  0  0  0  0  0  0  0  0  0  0
   12.5560   14.4530   22.2480 C   0  0  0  0  0  0  0  0  0  0  0  0
   11.4430   14.0180   23.0410 N   0  0  0  0  0  0  0  0  0  0  0  0
   10.3100   13.5530   22.4400 C   0  0  0  0  0  0  0  0  0  0  0  0
    9.8090   14.0860   21.4560 O   0  0  0  0  0  0  0  0  0  0  0  0
    9.7340   12.3850   23.0680 C   0  0  0  0  0  0  0  0  0  0  0  0
    8.7590   12.5170   24.0110 C   0  0  0  0  0  0  0  0  0  0  0  0
    8.3250   13.7750   24.3700 C   0  0  0  0  0  0  0  0  0  0  0  0
    7.3750   14.0220   25.2850 N   0  0  0  0  0  0  0  0  0  0  0  0
    6.8450   12.8940   25.8540 C   0  0  0  0  0  0  0  0  0  0  0  0
    7.2030   11.5990   25.5670 C   0  0  0  0  0  0  0  0  0  0  0  0
    8.1880   11.3860   24.6200 C   0  0  0  0  0  0  0  0  0  0  0  0
    8.6370   10.1140   24.2440 C   0  0  0  0  0  0  0  0  0  0  0  0
    9.6370    9.9940   23.2830 C   0  0  0  0  0  0  0  0  0  0  0  0
   10.1930    8.7200   22.8050 C   0  0  0  0  0  0  0  0  0  0  0  0
   10.1640   11.1120   22.7180 C   0  0  0  0  0  0  0  0  0  0  0  0
   13.2650   16.1470   21.1340 H   0  0  0  0  0  0  0  0  0  0  0  0
   12.2740   16.5830   22.5380 H   0  0  0  0  0  0  0  0  0  0  0  0
   11.5080   15.9340   21.0870 H   0  0  0  0  0  0  0  0  0  0  0  0
   12.6550   13.7500   21.4150 H   0  0  0  0  0  0  0  0  0  0  0  0
   13.4550   14.3910   22.8640 H   0  0  0  0  0  0  0  0  0  0  0  0
   11.6440   13.7000   23.9780 H   0  0  0  0  0  0  0  0  0  0  0  0
    8.7390   14.6690   23.9190 H   0  0  0  0  0  0  0  0  0  0  0  0
    6.0750   13.0920   26.5940 H   0  0  0  0  0  0  0  0  0  0  0  0
    6.6620   10.8250   26.1270 H   0  0  0  0  0  0  0  0  0  0  0  0
    8.2110    9.2250   24.6910 H   0  0  0  0  0  0  0  0  0  0  0  0
   10.2730    7.9970   23.5970 H   0  0  0  0  0  0  0  0  0  0  0  0
    9.5730    8.3190   22.0030 H   0  0  0  0  0  0  0  0  0  0  0  0
   11.2010    8.8850   22.4360 H   0  0  0  0  0  0  0  0  0  0  0  0
   10.9320   11.0100   21.9750 H   0  0  0  0  0  0  0  0  0  0  0  0
  1  2  1  0
  2  3  1  0
  3  4  1  0
  4  5  2  0
  4  6  1  0
  6  7  2  0
  7  8  1  0
  8  9  2  0
  9 10  1  0
 10 11  2  0
 11 12  1  0
 12 13  2  0
 13 14  1  0
 14 15  1  0
 14 16  2  0
 16  6  1  0
 12  7  1  0
  1 17  1  0
  1 18  1  0
  1 19  1  0
  2 20  1  0
  2 21  1  0
  3 22  1  0
  8 23  1  0
 10 24  1  0
 11 25  1  0
 13 26  1  0
 15 27  1  0
 15 28  1  0
 15 29  1  0
 16 30  1  0
A    1
 C1 
A    2
 C2 
A    3
 N1 
A    4
 C3 
A    5
 O1 
A    6
 C4 
A    7
 C5 
A    8
 C6 
A    9
 N2 
A   10
 C7 
A   11
 C8 
A   12
 C9 
A   13
 C10
A   14
 C11
A   15
 C12
A   16
 C13
A   17
 H1 
A   18
 H2 
A   19
 H3 
A   20
 H4 
A   21
 H5 
A   22
 H6 
A   23
 H7 
A   24
 H8 
A   25
 H9 
A   26
 H10
A   27
 H11
A   28
 H12
A   29
 H13
A   30
 H14
M  END
>  <ref_pdb>  (8) 
x0310_0A

>  <ref_mols>  (8) 
x0554_0A,x0310_0A

>  <original SMILES>  (8) 
CCNC(=O)c1cc(C)cc2ccncc12

>  <rationale>  (8) 
info hbond:S87; hydroph_interaction:V124+Y89+Y90; 

>  <intxn_cluster>  (8) 
103

>  <intxn_cluster_rank>  (8) 
18

>  <N_interactions>  (8) 
4

>  <∆∆G>  (8) 
-10.993214

>  <$/mg>  (8) 
163.0

>  <comRMSD>  (8) 
0.874323

>  <N_rotatable_bonds>  (8) 
4

>  <hbond:SER:7>  (8) 
hbond:SER:7    0
hbond:SER:7    0
Name: 7, dtype: object

>  <halogenbond:SER:7>  (8) 
halogenbond:SER:7    0
halogenbond:SER:7    0
Name: 7, dtype: object

>  <hbond:GLY:8>  (8) 
hbond:GLY:8    0
hbond:GLY:8    0
Name: 7, dtype: object

>  <hydroph_interaction:ASN:19>  (8) 
hydroph_interaction:ASN:19    0
hydroph_interaction:ASN:19    0
Name: 7, dtype: object

>  <hbond:ASN:19>  (8) 
hbond:ASN:19    0
hbond:ASN:19    0
Name: 7, dtype: object

>  <halogenbond:ASN:19>  (8) 
halogenbond:ASN:19    0
halogenbond:ASN:19    0
Name: 7, dtype: object

>  <hbond:ARG:20>  (8) 
hbond:ARG:20    0
hbond:ARG:20    0
Name: 7, dtype: object

>  <hydroph_interaction:ARG:20>  (8) 
hydroph_interaction:ARG:20    0
hydroph_interaction:ARG:20    0
Name: 7, dtype: object

>  <saltbridge:ARG:20>  (8) 
saltbridge:ARG:20    0
saltbridge:ARG:20    0
Name: 7, dtype: object

>  <halogenbond:ARG:20>  (8) 
halogenbond:ARG:20    0
halogenbond:ARG:20    0
Name: 7, dtype: object

>  <pication:ARG:20>  (8) 
pication:ARG:20    0
pication:ARG:20    0
Name: 7, dtype: object

>  <hbond:HIS:21>  (8) 
hbond:HIS:21    0
hbond:HIS:21    0
Name: 7, dtype: object

>  <hydroph_interaction:HIS:21>  (8) 
hydroph_interaction:HIS:21    0
hydroph_interaction:HIS:21    0
Name: 7, dtype: object

>  <saltbridge:HIS:21>  (8) 
saltbridge:HIS:21    0
saltbridge:HIS:21    0
Name: 7, dtype: object

>  <pistack:HIS:21>  (8) 
pistack:HIS:21    0
pistack:HIS:21    0
Name: 7, dtype: object

>  <pication:HIS:21>  (8) 
pication:HIS:21    0
pication:HIS:21    0
Name: 7, dtype: object

>  <halogenbond:HIS:21>  (8) 
halogenbond:HIS:21    0
halogenbond:HIS:21    0
Name: 7, dtype: object

>  <hydroph_interaction:LEU:22>  (8) 
hydroph_interaction:LEU:22    0
hydroph_interaction:LEU:22    0
Name: 7, dtype: object

>  <hbond:LEU:22>  (8) 
hbond:LEU:22    0
hbond:LEU:22    0
Name: 7, dtype: object

>  <hydroph_interaction:TRP:28>  (8) 
hydroph_interaction:TRP:28    0
hydroph_interaction:TRP:28    0
Name: 7, dtype: object

>  <hbond:SER:36>  (8) 
hbond:SER:36    0
hbond:SER:36    0
Name: 7, dtype: object

>  <halogenbond:SER:36>  (8) 
halogenbond:SER:36    0
halogenbond:SER:36    0
Name: 7, dtype: object

>  <hbond:ARG:38>  (8) 
hbond:ARG:38    0
hbond:ARG:38    0
Name: 7, dtype: object

>  <halogenbond:ARG:38>  (8) 
halogenbond:ARG:38    0
halogenbond:ARG:38    0
Name: 7, dtype: object

>  <hbond:ASP:39>  (8) 
hbond:ASP:39    0
hbond:ASP:39    0
Name: 7, dtype: object

>  <saltbridge:ASP:39>  (8) 
saltbridge:ASP:39    0
saltbridge:ASP:39    0
Name: 7, dtype: object

>  <hydroph_interaction:ASP:39>  (8) 
hydroph_interaction:ASP:39    0
hydroph_interaction:ASP:39    0
Name: 7, dtype: object

>  <halogenbond:ASP:39>  (8) 
halogenbond:ASP:39    0
halogenbond:ASP:39    0
Name: 7, dtype: object

>  <hydroph_interaction:LEU:40>  (8) 
hydroph_interaction:LEU:40    0
hydroph_interaction:LEU:40    0
Name: 7, dtype: object

>  <hydroph_interaction:TYR:63>  (8) 
hydroph_interaction:TYR:63    0
hydroph_interaction:TYR:63    0
Name: 7, dtype: object

>  <pistack:TYR:63>  (8) 
pistack:TYR:63    0
pistack:TYR:63    0
Name: 7, dtype: object

>  <hbond:TYR:63>  (8) 
hbond:TYR:63    0
hbond:TYR:63    0
Name: 7, dtype: object

>  <hbond:TYR:64>  (8) 
hbond:TYR:64    0
hbond:TYR:64    0
Name: 7, dtype: object

>  <halogenbond:TYR:64>  (8) 
halogenbond:TYR:64    0
halogenbond:TYR:64    0
Name: 7, dtype: object

>  <hydroph_interaction:TYR:64>  (8) 
hydroph_interaction:TYR:64    0
hydroph_interaction:TYR:64    0
Name: 7, dtype: object

>  <hbond:CYS:65>  (8) 
hbond:CYS:65    0
hbond:CYS:65    0
Name: 7, dtype: object

>  <halogenbond:CYS:65>  (8) 
halogenbond:CYS:65    0
halogenbond:CYS:65    0
Name: 7, dtype: object

>  <hbond:SER:66>  (8) 
hbond:SER:66    0
hbond:SER:66    0
Name: 7, dtype: object

>  <hbond:SER:67>  (8) 
hbond:SER:67    0
hbond:SER:67    0
Name: 7, dtype: object

>  <halogenbond:SER:67>  (8) 
halogenbond:SER:67    0
halogenbond:SER:67    0
Name: 7, dtype: object

>  <hydroph_interaction:ARG:68>  (8) 
hydroph_interaction:ARG:68    0
hydroph_interaction:ARG:68    0
Name: 7, dtype: object

>  <hbond:ARG:68>  (8) 
hbond:ARG:68    0
hbond:ARG:68    0
Name: 7, dtype: object

>  <saltbridge:ARG:68>  (8) 
saltbridge:ARG:68    0
saltbridge:ARG:68    0
Name: 7, dtype: object

>  <pication:ARG:68>  (8) 
pication:ARG:68    0
pication:ARG:68    0
Name: 7, dtype: object

>  <hydroph_interaction:TYR:72>  (8) 
hydroph_interaction:TYR:72    0
hydroph_interaction:TYR:72    0
Name: 7, dtype: object

>  <hydroph_interaction:VAL:74>  (8) 
hydroph_interaction:VAL:74    0
hydroph_interaction:VAL:74    0
Name: 7, dtype: object

>  <hydroph_interaction:PHE:76>  (8) 
hydroph_interaction:PHE:76    0
hydroph_interaction:PHE:76    0
Name: 7, dtype: object

>  <hbond:SER:77>  (8) 
hbond:SER:77    0
hbond:SER:77    0
Name: 7, dtype: object

>  <hbond:SER:80>  (8) 
hbond:SER:80    0
hbond:SER:80    0
Name: 7, dtype: object

>  <hbond:LEU:81>  (8) 
hbond:LEU:81    0
hbond:LEU:81    0
Name: 7, dtype: object

>  <halogenbond:LEU:81>  (8) 
halogenbond:LEU:81    0
halogenbond:LEU:81    0
Name: 7, dtype: object

>  <hydroph_interaction:LEU:81>  (8) 
hydroph_interaction:LEU:81    0
hydroph_interaction:LEU:81    0
Name: 7, dtype: object

>  <hydroph_interaction:ILE:82>  (8) 
hydroph_interaction:ILE:82    0
hydroph_interaction:ILE:82    0
Name: 7, dtype: object

>  <hbond:ILE:82>  (8) 
hbond:ILE:82    0
hbond:ILE:82    0
Name: 7, dtype: object

>  <hydroph_interaction:PHE:83>  (8) 
hydroph_interaction:PHE:83    0
hydroph_interaction:PHE:83    0
Name: 7, dtype: object

>  <hbond:PHE:83>  (8) 
hbond:PHE:83    0
hbond:PHE:83    0
Name: 7, dtype: object

>  <halogenbond:PHE:83>  (8) 
halogenbond:PHE:83    0
halogenbond:PHE:83    0
Name: 7, dtype: object

>  <pistack:PHE:83>  (8) 
pistack:PHE:83    0
pistack:PHE:83    0
Name: 7, dtype: object

>  <hydroph_interaction:VAL:84>  (8) 
hydroph_interaction:VAL:84    0
hydroph_interaction:VAL:84    0
Name: 7, dtype: object

>  <hbond:VAL:84>  (8) 
hbond:VAL:84    0
hbond:VAL:84    0
Name: 7, dtype: object

>  <halogenbond:VAL:84>  (8) 
halogenbond:VAL:84    0
halogenbond:VAL:84    0
Name: 7, dtype: object

>  <hydroph_interaction:GLU:85>  (8) 
hydroph_interaction:GLU:85    0
hydroph_interaction:GLU:85    0
Name: 7, dtype: object

>  <hbond:GLU:85>  (8) 
hbond:GLU:85    0
hbond:GLU:85    0
Name: 7, dtype: object

>  <saltbridge:GLU:85>  (8) 
saltbridge:GLU:85    0
saltbridge:GLU:85    0
Name: 7, dtype: object

>  <halogenbond:GLU:85>  (8) 
halogenbond:GLU:85    0
halogenbond:GLU:85    0
Name: 7, dtype: object

>  <hbond:ALA:86>  (8) 
hbond:ALA:86    0
hbond:ALA:86    0
Name: 7, dtype: object

>  <halogenbond:ALA:86>  (8) 
halogenbond:ALA:86    0
halogenbond:ALA:86    0
Name: 7, dtype: object

>  <hydroph_interaction:ALA:86>  (8) 
hydroph_interaction:ALA:86    0
hydroph_interaction:ALA:86    0
Name: 7, dtype: object

>  <hbond:SER:87>  (8) 
hbond:SER:87    1
hbond:SER:87    1
Name: 7, dtype: object

>  <halogenbond:SER:87>  (8) 
halogenbond:SER:87    0
halogenbond:SER:87    0
Name: 7, dtype: object

>  <hbond:GLU:88>  (8) 
hbond:GLU:88    0
hbond:GLU:88    0
Name: 7, dtype: object

>  <hydroph_interaction:GLU:88>  (8) 
hydroph_interaction:GLU:88    0
hydroph_interaction:GLU:88    0
Name: 7, dtype: object

>  <halogenbond:GLU:88>  (8) 
halogenbond:GLU:88    0
halogenbond:GLU:88    0
Name: 7, dtype: object

>  <saltbridge:GLU:88>  (8) 
saltbridge:GLU:88    0
saltbridge:GLU:88    0
Name: 7, dtype: object

>  <hydroph_interaction:TYR:89>  (8) 
hydroph_interaction:TYR:89    1
hydroph_interaction:TYR:89    1
Name: 7, dtype: object

>  <pistack:TYR:89>  (8) 
pistack:TYR:89    0
pistack:TYR:89    0
Name: 7, dtype: object

>  <hbond:TYR:89>  (8) 
hbond:TYR:89    0
hbond:TYR:89    0
Name: 7, dtype: object

>  <halogenbond:TYR:89>  (8) 
halogenbond:TYR:89    0
halogenbond:TYR:89    0
Name: 7, dtype: object

>  <hbond:TYR:90>  (8) 
hbond:TYR:90    0
hbond:TYR:90    0
Name: 7, dtype: object

>  <hydroph_interaction:TYR:90>  (8) 
hydroph_interaction:TYR:90    1
hydroph_interaction:TYR:90    1
Name: 7, dtype: object

>  <pistack:TYR:90>  (8) 
pistack:TYR:90    0
pistack:TYR:90    0
Name: 7, dtype: object

>  <halogenbond:TYR:90>  (8) 
halogenbond:TYR:90    0
halogenbond:TYR:90    0
Name: 7, dtype: object

>  <pication:TYR:90>  (8) 
pication:TYR:90    0
pication:TYR:90    0
Name: 7, dtype: object

>  <hydroph_interaction:PRO:91>  (8) 
hydroph_interaction:PRO:91    0
hydroph_interaction:PRO:91    0
Name: 7, dtype: object

>  <halogenbond:PRO:91>  (8) 
halogenbond:PRO:91    0
halogenbond:PRO:91    0
Name: 7, dtype: object

>  <hbond:PRO:91>  (8) 
hbond:PRO:91    0
hbond:PRO:91    0
Name: 7, dtype: object

>  <hydroph_interaction:ALA:92>  (8) 
hydroph_interaction:ALA:92    0
hydroph_interaction:ALA:92    0
Name: 7, dtype: object

>  <hbond:ARG:93>  (8) 
hbond:ARG:93    0
hbond:ARG:93    0
Name: 7, dtype: object

>  <pication:ARG:93>  (8) 
pication:ARG:93    0
pication:ARG:93    0
Name: 7, dtype: object

>  <saltbridge:ARG:93>  (8) 
saltbridge:ARG:93    0
saltbridge:ARG:93    0
Name: 7, dtype: object

>  <hydroph_interaction:ARG:93>  (8) 
hydroph_interaction:ARG:93    0
hydroph_interaction:ARG:93    0
Name: 7, dtype: object

>  <halogenbond:ARG:93>  (8) 
halogenbond:ARG:93    0
halogenbond:ARG:93    0
Name: 7, dtype: object

>  <hydroph_interaction:TYR:94>  (8) 
hydroph_interaction:TYR:94    0
hydroph_interaction:TYR:94    0
Name: 7, dtype: object

>  <hbond:TYR:94>  (8) 
hbond:TYR:94    0
hbond:TYR:94    0
Name: 7, dtype: object

>  <halogenbond:GLN:95>  (8) 
halogenbond:GLN:95    0
halogenbond:GLN:95    0
Name: 7, dtype: object

>  <hbond:GLN:95>  (8) 
hbond:GLN:95    0
hbond:GLN:95    0
Name: 7, dtype: object

>  <hydroph_interaction:GLN:95>  (8) 
hydroph_interaction:GLN:95    0
hydroph_interaction:GLN:95    0
Name: 7, dtype: object

>  <hbond:SER:96>  (8) 
hbond:SER:96    0
hbond:SER:96    0
Name: 7, dtype: object

>  <hydroph_interaction:LEU:98>  (8) 
hydroph_interaction:LEU:98    0
hydroph_interaction:LEU:98    0
Name: 7, dtype: object

>  <hbond:LEU:98>  (8) 
hbond:LEU:98    0
hbond:LEU:98    0
Name: 7, dtype: object

>  <hbond:MET:99>  (8) 
hbond:MET:99    0
hbond:MET:99    0
Name: 7, dtype: object

>  <hydroph_interaction:MET:99>  (8) 
hydroph_interaction:MET:99    0
hydroph_interaction:MET:99    0
Name: 7, dtype: object

>  <halogenbond:MET:99>  (8) 
halogenbond:MET:99    0
halogenbond:MET:99    0
Name: 7, dtype: object

>  <hydroph_interaction:LEU:100>  (8) 
hydroph_interaction:LEU:100    0
hydroph_interaction:LEU:100    0
Name: 7, dtype: object

>  <hbond:LEU:100>  (8) 
hbond:LEU:100    0
hbond:LEU:100    0
Name: 7, dtype: object

>  <hbond:ALA:101>  (8) 
hbond:ALA:101    0
hbond:ALA:101    0
Name: 7, dtype: object

>  <hydroph_interaction:ALA:101>  (8) 
hydroph_interaction:ALA:101    0
hydroph_interaction:ALA:101    0
Name: 7, dtype: object

>  <hydroph_interaction:VAL:102>  (8) 
hydroph_interaction:VAL:102    0
hydroph_interaction:VAL:102    0
Name: 7, dtype: object

>  <hbond:VAL:102>  (8) 
hbond:VAL:102    0
hbond:VAL:102    0
Name: 7, dtype: object

>  <hbond:GLY:103>  (8) 
hbond:GLY:103    0
hbond:GLY:103    0
Name: 7, dtype: object

>  <halogenbond:GLY:103>  (8) 
halogenbond:GLY:103    0
halogenbond:GLY:103    0
Name: 7, dtype: object

>  <hydroph_interaction:HIS:104>  (8) 
hydroph_interaction:HIS:104    0
hydroph_interaction:HIS:104    0
Name: 7, dtype: object

>  <hbond:HIS:104>  (8) 
hbond:HIS:104    0
hbond:HIS:104    0
Name: 7, dtype: object

>  <saltbridge:HIS:104>  (8) 
saltbridge:HIS:104    0
saltbridge:HIS:104    0
Name: 7, dtype: object

>  <pication:HIS:104>  (8) 
pication:HIS:104    0
pication:HIS:104    0
Name: 7, dtype: object

>  <pistack:HIS:104>  (8) 
pistack:HIS:104    0
pistack:HIS:104    0
Name: 7, dtype: object

>  <halogenbond:HIS:104>  (8) 
halogenbond:HIS:104    0
halogenbond:HIS:104    0
Name: 7, dtype: object

>  <hbond:SER:105>  (8) 
hbond:SER:105    0
hbond:SER:105    0
Name: 7, dtype: object

>  <halogenbond:SER:105>  (8) 
halogenbond:SER:105    0
halogenbond:SER:105    0
Name: 7, dtype: object

>  <hbond:GLU:106>  (8) 
hbond:GLU:106    0
hbond:GLU:106    0
Name: 7, dtype: object

>  <hydroph_interaction:GLU:106>  (8) 
hydroph_interaction:GLU:106    0
hydroph_interaction:GLU:106    0
Name: 7, dtype: object

>  <saltbridge:GLU:106>  (8) 
saltbridge:GLU:106    0
saltbridge:GLU:106    0
Name: 7, dtype: object

>  <halogenbond:GLU:106>  (8) 
halogenbond:GLU:106    0
halogenbond:GLU:106    0
Name: 7, dtype: object

>  <hydroph_interaction:PRO:107>  (8) 
hydroph_interaction:PRO:107    0
hydroph_interaction:PRO:107    0
Name: 7, dtype: object

>  <hbond:PRO:107>  (8) 
hbond:PRO:107    0
hbond:PRO:107    0
Name: 7, dtype: object

>  <halogenbond:PRO:107>  (8) 
halogenbond:PRO:107    0
halogenbond:PRO:107    0
Name: 7, dtype: object

>  <hbond:GLY:108>  (8) 
hbond:GLY:108    0
hbond:GLY:108    0
Name: 7, dtype: object

>  <halogenbond:GLY:108>  (8) 
halogenbond:GLY:108    0
halogenbond:GLY:108    0
Name: 7, dtype: object

>  <hbond:ASP:109>  (8) 
hbond:ASP:109    0
hbond:ASP:109    0
Name: 7, dtype: object

>  <hydroph_interaction:ASP:109>  (8) 
hydroph_interaction:ASP:109    0
hydroph_interaction:ASP:109    0
Name: 7, dtype: object

>  <saltbridge:ASP:109>  (8) 
saltbridge:ASP:109    0
saltbridge:ASP:109    0
Name: 7, dtype: object

>  <hbond:CYS:110>  (8) 
hbond:CYS:110    0
hbond:CYS:110    0
Name: 7, dtype: object

>  <halogenbond:CYS:110>  (8) 
halogenbond:CYS:110    0
halogenbond:CYS:110    0
Name: 7, dtype: object

>  <hbond:GLY:111>  (8) 
hbond:GLY:111    0
hbond:GLY:111    0
Name: 7, dtype: object

>  <hbond:GLY:112>  (8) 
hbond:GLY:112    0
hbond:GLY:112    0
Name: 7, dtype: object

>  <hbond:ILE:113>  (8) 
hbond:ILE:113    0
hbond:ILE:113    0
Name: 7, dtype: object

>  <hydroph_interaction:LEU:114>  (8) 
hydroph_interaction:LEU:114    0
hydroph_interaction:LEU:114    0
Name: 7, dtype: object

>  <hbond:LEU:114>  (8) 
hbond:LEU:114    0
hbond:LEU:114    0
Name: 7, dtype: object

>  <hydroph_interaction:ILE:123>  (8) 
hydroph_interaction:ILE:123    0
hydroph_interaction:ILE:123    0
Name: 7, dtype: object

>  <hbond:ILE:123>  (8) 
hbond:ILE:123    0
hbond:ILE:123    0
Name: 7, dtype: object

>  <hydroph_interaction:VAL:124>  (8) 
hydroph_interaction:VAL:124    1
hydroph_interaction:VAL:124    1
Name: 7, dtype: object

>  <hbond:VAL:124>  (8) 
hbond:VAL:124    0
hbond:VAL:124    0
Name: 7, dtype: object

>  <halogenbond:VAL:124>  (8) 
halogenbond:VAL:124    0
halogenbond:VAL:124    0
Name: 7, dtype: object

>  <hbond:SER:125>  (8) 
hbond:SER:125    0
hbond:SER:125    0
Name: 7, dtype: object

>  <halogenbond:SER:125>  (8) 
halogenbond:SER:125    0
halogenbond:SER:125    0
Name: 7, dtype: object

>  <hydroph_interaction:THR:126>  (8) 
hydroph_interaction:THR:126    0
hydroph_interaction:THR:126    0
Name: 7, dtype: object

>  <hbond:THR:126>  (8) 
hbond:THR:126    0
hbond:THR:126    0
Name: 7, dtype: object

>  <halogenbond:THR:126>  (8) 
halogenbond:THR:126    0
halogenbond:THR:126    0
Name: 7, dtype: object

>  <hbond:GLY:127>  (8) 
hbond:GLY:127    0
hbond:GLY:127    0
Name: 7, dtype: object

>  <halogenbond:GLY:127>  (8) 
halogenbond:GLY:127    0
halogenbond:GLY:127    0
Name: 7, dtype: object

>  <hydroph_interaction:GLY:127>  (8) 
hydroph_interaction:GLY:127    0
hydroph_interaction:GLY:127    0
Name: 7, dtype: object

>  <hbond:GLY:128>  (8) 
hbond:GLY:128    0
hbond:GLY:128    0
Name: 7, dtype: object

>  <halogenbond:GLY:128>  (8) 
halogenbond:GLY:128    0
halogenbond:GLY:128    0
Name: 7, dtype: object

>  <hydroph_interaction:GLY:128>  (8) 
hydroph_interaction:GLY:128    0
hydroph_interaction:GLY:128    0
Name: 7, dtype: object

>  <hbond:ASN:129>  (8) 
hbond:ASN:129    0
hbond:ASN:129    0
Name: 7, dtype: object

>  <hydroph_interaction:ASN:129>  (8) 
hydroph_interaction:ASN:129    0
hydroph_interaction:ASN:129    0
Name: 7, dtype: object

>  <halogenbond:ASN:129>  (8) 
halogenbond:ASN:129    0
halogenbond:ASN:129    0
Name: 7, dtype: object

>  <hbond:GLY:130>  (8) 
hbond:GLY:130    0
hbond:GLY:130    0
Name: 7, dtype: object

>  <hydroph_interaction:LEU:131>  (8) 
hydroph_interaction:LEU:131    0
hydroph_interaction:LEU:131    0
Name: 7, dtype: object

>  <hbond:LEU:131>  (8) 
hbond:LEU:131    0
hbond:LEU:131    0
Name: 7, dtype: object

>  <halogenbond:LEU:131>  (8) 
halogenbond:LEU:131    0
halogenbond:LEU:131    0
Name: 7, dtype: object

>  <hydroph_interaction:VAL:132>  (8) 
hydroph_interaction:VAL:132    0
hydroph_interaction:VAL:132    0
Name: 7, dtype: object

>  <hbond:VAL:132>  (8) 
hbond:VAL:132    0
hbond:VAL:132    0
Name: 7, dtype: object

>  <hbond:GLY:133>  (8) 
hbond:GLY:133    0
hbond:GLY:133    0
Name: 7, dtype: object

>  <halogenbond:GLY:133>  (8) 
halogenbond:GLY:133    0
halogenbond:GLY:133    0
Name: 7, dtype: object

>  <hydroph_interaction:PHE:134>  (8) 
hydroph_interaction:PHE:134    0
hydroph_interaction:PHE:134    0
Name: 7, dtype: object

>  <hbond:PHE:134>  (8) 
hbond:PHE:134    0
hbond:PHE:134    0
Name: 7, dtype: object

>  <pistack:PHE:134>  (8) 
pistack:PHE:134    0
pistack:PHE:134    0
Name: 7, dtype: object

>  <pication:PHE:134>  (8) 
pication:PHE:134    0
pication:PHE:134    0
Name: 7, dtype: object

>  <hydroph_interaction:ALA:135>  (8) 
hydroph_interaction:ALA:135    0
hydroph_interaction:ALA:135    0
Name: 7, dtype: object

>  <hbond:ALA:135>  (8) 
hbond:ALA:135    0
hbond:ALA:135    0
Name: 7, dtype: object

$$$$
PV_003353253158
     RDKit          3D

 31 33  0  0  0  0  0  0  0  0999 V2000
   13.2910   16.1790   20.5170 C   0  0  0  0  0  0  0  0  0  0  0  0
   12.3210   15.4260   21.0070 C   0  0  0  0  0  0  0  0  0  0  0  0
   10.8680   15.4870   20.6400 C   0  0  0  0  0  0  0  0  0  0  0  0
    9.8380   14.5550   21.2780 C   0  0  0  0  0  0  0  0  0  0  0  0
   10.4430   13.6270   22.2500 C   0  0  0  0  0  0  0  0  0  0  0  0
    9.7410   12.6050   22.9860 C   0  0  0  0  0  0  0  0  0  0  0  0
   10.1210   11.3170   22.6910 C   0  0  0  0  0  0  0  0  0  0  0  0
    9.4090   10.4710   23.4130 N   0  0  0  0  0  0  0  0  0  0  0  0
    9.5880    9.0650   23.3010 C   0  0  0  0  0  0  0  0  0  0  0  0
    8.5370   11.1350   24.2210 C   0  0  0  0  0  0  0  0  0  0  0  0
    7.6090   10.6800   25.1300 C   0  0  0  0  0  0  0  0  0  0  0  0
    6.8540   11.6060   25.8130 C   0  0  0  0  0  0  0  0  0  0  0  0
    7.0820   12.9580   25.5390 C   0  0  0  0  0  0  0  0  0  0  0  0
    7.9870   13.4450   24.6500 N   0  0  0  0  0  0  0  0  0  0  0  0
    8.7160   12.5040   23.9860 C   0  0  0  0  0  0  0  0  0  0  0  0
   11.8050   13.6500   22.5240 C   0  0  0  0  0  0  0  0  0  0  0  0
   12.7100   14.5040   21.9430 C   0  0  0  0  0  0  0  0  0  0  0  0
   13.1150   17.2460   20.5530 H   0  0  0  0  0  0  0  0  0  0  0  0
   13.7030   15.8480   19.5750 H   0  0  0  0  0  0  0  0  0  0  0  0
   14.1200   16.0330   21.2080 H   0  0  0  0  0  0  0  0  0  0  0  0
   10.5940   16.2340   19.8950 H   0  0  0  0  0  0  0  0  0  0  0  0
    8.7820   14.5830   21.0220 H   0  0  0  0  0  0  0  0  0  0  0  0
   10.8550   10.9430   22.0040 H   0  0  0  0  0  0  0  0  0  0  0  0
    9.0530    8.6190   24.1300 H   0  0  0  0  0  0  0  0  0  0  0  0
    9.1860    8.7260   22.3470 H   0  0  0  0  0  0  0  0  0  0  0  0
   10.6450    8.8220   23.3550 H   0  0  0  0  0  0  0  0  0  0  0  0
    7.4780    9.6320   25.3010 H   0  0  0  0  0  0  0  0  0  0  0  0
    6.1090   11.2990   26.5400 H   0  0  0  0  0  0  0  0  0  0  0  0
    6.5100   13.7220   26.0560 H   0  0  0  0  0  0  0  0  0  0  0  0
   12.1950   12.9420   23.2510 H   0  0  0  0  0  0  0  0  0  0  0  0
   13.7510   14.4320   22.2350 H   0  0  0  0  0  0  0  0  0  0  0  0
  1  2  1  0
  2  3  2  0
  3  4  1  0
  4  5  2  0
  5  6  1  0
  6  7  2  0
  7  8  1  0
  8  9  1  0
  8 10  1  0
 10 11  2  0
 11 12  1  0
 12 13  2  0
 13 14  1  0
 14 15  2  0
  5 16  1  0
 16 17  2  0
 17  2  1  0
 15  6  1  0
 15 10  1  0
  1 18  1  0
  1 19  1  0
  1 20  1  0
  3 21  1  0
  4 22  1  0
  7 23  1  0
  9 24  1  0
  9 25  1  0
  9 26  1  0
 11 27  1  0
 12 28  1  0
 13 29  1  0
 16 30  1  0
 17 31  1  0
A    1
 C1 
A    2
 C2 
A    3
 C3 
A    4
 C4 
A    5
 C5 
A    6
 C6 
A    7
 C7 
A    8
 N1 
A    9
 C8 
A   10
 C9 
A   11
 C10
A   12
 C11
A   13
 C12
A   14
 N2 
A   15
 C13
A   16
 C14
A   17
 C15
A   18
 H1 
A   19
 H2 
A   20
 H3 
A   21
 H4 
A   22
 H5 
A   23
 H6 
A   24
 H7 
A   25
 H8 
A   26
 H9 
A   27
 H10
A   28
 H11
A   29
 H12
A   30
 H13
A   31
 H14
M  END
>  <ref_pdb>  (9) 
x0310_0A

>  <ref_mols>  (9) 
x0451_0A,x0812_0A

>  <original SMILES>  (9) 
Cc1ccc(-c2cn(C)c3cccnc23)cc1

>  <rationale>  (9) 
info hydroph_interaction:Y89+Y90+H21; 

>  <intxn_cluster>  (9) 
208

>  <intxn_cluster_rank>  (9) 
22

>  <N_interactions>  (9) 
3

>  <∆∆G>  (9) 
-11.596188

>  <$/mg>  (9) 
163.0

>  <comRMSD>  (9) 
0.91431

>  <N_rotatable_bonds>  (9) 
3

>  <hbond:SER:7>  (9) 
hbond:SER:7    0
hbond:SER:7    0
Name: 8, dtype: object

>  <halogenbond:SER:7>  (9) 
halogenbond:SER:7    0
halogenbond:SER:7    0
Name: 8, dtype: object

>  <hbond:GLY:8>  (9) 
hbond:GLY:8    0
hbond:GLY:8    0
Name: 8, dtype: object

>  <hydroph_interaction:ASN:19>  (9) 
hydroph_interaction:ASN:19    0
hydroph_interaction:ASN:19    0
Name: 8, dtype: object

>  <hbond:ASN:19>  (9) 
hbond:ASN:19    0
hbond:ASN:19    0
Name: 8, dtype: object

>  <halogenbond:ASN:19>  (9) 
halogenbond:ASN:19    0
halogenbond:ASN:19    0
Name: 8, dtype: object

>  <hbond:ARG:20>  (9) 
hbond:ARG:20    0
hbond:ARG:20    0
Name: 8, dtype: object

>  <hydroph_interaction:ARG:20>  (9) 
hydroph_interaction:ARG:20    0
hydroph_interaction:ARG:20    0
Name: 8, dtype: object

>  <saltbridge:ARG:20>  (9) 
saltbridge:ARG:20    0
saltbridge:ARG:20    0
Name: 8, dtype: object

>  <halogenbond:ARG:20>  (9) 
halogenbond:ARG:20    0
halogenbond:ARG:20    0
Name: 8, dtype: object

>  <pication:ARG:20>  (9) 
pication:ARG:20    0
pication:ARG:20    0
Name: 8, dtype: object

>  <hbond:HIS:21>  (9) 
hbond:HIS:21    0
hbond:HIS:21    0
Name: 8, dtype: object

>  <hydroph_interaction:HIS:21>  (9) 
hydroph_interaction:HIS:21    1
hydroph_interaction:HIS:21    1
Name: 8, dtype: object

>  <saltbridge:HIS:21>  (9) 
saltbridge:HIS:21    0
saltbridge:HIS:21    0
Name: 8, dtype: object

>  <pistack:HIS:21>  (9) 
pistack:HIS:21    0
pistack:HIS:21    0
Name: 8, dtype: object

>  <pication:HIS:21>  (9) 
pication:HIS:21    0
pication:HIS:21    0
Name: 8, dtype: object

>  <halogenbond:HIS:21>  (9) 
halogenbond:HIS:21    0
halogenbond:HIS:21    0
Name: 8, dtype: object

>  <hydroph_interaction:LEU:22>  (9) 
hydroph_interaction:LEU:22    0
hydroph_interaction:LEU:22    0
Name: 8, dtype: object

>  <hbond:LEU:22>  (9) 
hbond:LEU:22    0
hbond:LEU:22    0
Name: 8, dtype: object

>  <hydroph_interaction:TRP:28>  (9) 
hydroph_interaction:TRP:28    0
hydroph_interaction:TRP:28    0
Name: 8, dtype: object

>  <hbond:SER:36>  (9) 
hbond:SER:36    0
hbond:SER:36    0
Name: 8, dtype: object

>  <halogenbond:SER:36>  (9) 
halogenbond:SER:36    0
halogenbond:SER:36    0
Name: 8, dtype: object

>  <hbond:ARG:38>  (9) 
hbond:ARG:38    0
hbond:ARG:38    0
Name: 8, dtype: object

>  <halogenbond:ARG:38>  (9) 
halogenbond:ARG:38    0
halogenbond:ARG:38    0
Name: 8, dtype: object

>  <hbond:ASP:39>  (9) 
hbond:ASP:39    0
hbond:ASP:39    0
Name: 8, dtype: object

>  <saltbridge:ASP:39>  (9) 
saltbridge:ASP:39    0
saltbridge:ASP:39    0
Name: 8, dtype: object

>  <hydroph_interaction:ASP:39>  (9) 
hydroph_interaction:ASP:39    0
hydroph_interaction:ASP:39    0
Name: 8, dtype: object

>  <halogenbond:ASP:39>  (9) 
halogenbond:ASP:39    0
halogenbond:ASP:39    0
Name: 8, dtype: object

>  <hydroph_interaction:LEU:40>  (9) 
hydroph_interaction:LEU:40    0
hydroph_interaction:LEU:40    0
Name: 8, dtype: object

>  <hydroph_interaction:TYR:63>  (9) 
hydroph_interaction:TYR:63    0
hydroph_interaction:TYR:63    0
Name: 8, dtype: object

>  <pistack:TYR:63>  (9) 
pistack:TYR:63    0
pistack:TYR:63    0
Name: 8, dtype: object

>  <hbond:TYR:63>  (9) 
hbond:TYR:63    0
hbond:TYR:63    0
Name: 8, dtype: object

>  <hbond:TYR:64>  (9) 
hbond:TYR:64    0
hbond:TYR:64    0
Name: 8, dtype: object

>  <halogenbond:TYR:64>  (9) 
halogenbond:TYR:64    0
halogenbond:TYR:64    0
Name: 8, dtype: object

>  <hydroph_interaction:TYR:64>  (9) 
hydroph_interaction:TYR:64    0
hydroph_interaction:TYR:64    0
Name: 8, dtype: object

>  <hbond:CYS:65>  (9) 
hbond:CYS:65    0
hbond:CYS:65    0
Name: 8, dtype: object

>  <halogenbond:CYS:65>  (9) 
halogenbond:CYS:65    0
halogenbond:CYS:65    0
Name: 8, dtype: object

>  <hbond:SER:66>  (9) 
hbond:SER:66    0
hbond:SER:66    0
Name: 8, dtype: object

>  <hbond:SER:67>  (9) 
hbond:SER:67    0
hbond:SER:67    0
Name: 8, dtype: object

>  <halogenbond:SER:67>  (9) 
halogenbond:SER:67    0
halogenbond:SER:67    0
Name: 8, dtype: object

>  <hydroph_interaction:ARG:68>  (9) 
hydroph_interaction:ARG:68    0
hydroph_interaction:ARG:68    0
Name: 8, dtype: object

>  <hbond:ARG:68>  (9) 
hbond:ARG:68    0
hbond:ARG:68    0
Name: 8, dtype: object

>  <saltbridge:ARG:68>  (9) 
saltbridge:ARG:68    0
saltbridge:ARG:68    0
Name: 8, dtype: object

>  <pication:ARG:68>  (9) 
pication:ARG:68    0
pication:ARG:68    0
Name: 8, dtype: object

>  <hydroph_interaction:TYR:72>  (9) 
hydroph_interaction:TYR:72    0
hydroph_interaction:TYR:72    0
Name: 8, dtype: object

>  <hydroph_interaction:VAL:74>  (9) 
hydroph_interaction:VAL:74    0
hydroph_interaction:VAL:74    0
Name: 8, dtype: object

>  <hydroph_interaction:PHE:76>  (9) 
hydroph_interaction:PHE:76    0
hydroph_interaction:PHE:76    0
Name: 8, dtype: object

>  <hbond:SER:77>  (9) 
hbond:SER:77    0
hbond:SER:77    0
Name: 8, dtype: object

>  <hbond:SER:80>  (9) 
hbond:SER:80    0
hbond:SER:80    0
Name: 8, dtype: object

>  <hbond:LEU:81>  (9) 
hbond:LEU:81    0
hbond:LEU:81    0
Name: 8, dtype: object

>  <halogenbond:LEU:81>  (9) 
halogenbond:LEU:81    0
halogenbond:LEU:81    0
Name: 8, dtype: object

>  <hydroph_interaction:LEU:81>  (9) 
hydroph_interaction:LEU:81    0
hydroph_interaction:LEU:81    0
Name: 8, dtype: object

>  <hydroph_interaction:ILE:82>  (9) 
hydroph_interaction:ILE:82    0
hydroph_interaction:ILE:82    0
Name: 8, dtype: object

>  <hbond:ILE:82>  (9) 
hbond:ILE:82    0
hbond:ILE:82    0
Name: 8, dtype: object

>  <hydroph_interaction:PHE:83>  (9) 
hydroph_interaction:PHE:83    0
hydroph_interaction:PHE:83    0
Name: 8, dtype: object

>  <hbond:PHE:83>  (9) 
hbond:PHE:83    0
hbond:PHE:83    0
Name: 8, dtype: object

>  <halogenbond:PHE:83>  (9) 
halogenbond:PHE:83    0
halogenbond:PHE:83    0
Name: 8, dtype: object

>  <pistack:PHE:83>  (9) 
pistack:PHE:83    0
pistack:PHE:83    0
Name: 8, dtype: object

>  <hydroph_interaction:VAL:84>  (9) 
hydroph_interaction:VAL:84    0
hydroph_interaction:VAL:84    0
Name: 8, dtype: object

>  <hbond:VAL:84>  (9) 
hbond:VAL:84    0
hbond:VAL:84    0
Name: 8, dtype: object

>  <halogenbond:VAL:84>  (9) 
halogenbond:VAL:84    0
halogenbond:VAL:84    0
Name: 8, dtype: object

>  <hydroph_interaction:GLU:85>  (9) 
hydroph_interaction:GLU:85    0
hydroph_interaction:GLU:85    0
Name: 8, dtype: object

>  <hbond:GLU:85>  (9) 
hbond:GLU:85    0
hbond:GLU:85    0
Name: 8, dtype: object

>  <saltbridge:GLU:85>  (9) 
saltbridge:GLU:85    0
saltbridge:GLU:85    0
Name: 8, dtype: object

>  <halogenbond:GLU:85>  (9) 
halogenbond:GLU:85    0
halogenbond:GLU:85    0
Name: 8, dtype: object

>  <hbond:ALA:86>  (9) 
hbond:ALA:86    0
hbond:ALA:86    0
Name: 8, dtype: object

>  <halogenbond:ALA:86>  (9) 
halogenbond:ALA:86    0
halogenbond:ALA:86    0
Name: 8, dtype: object

>  <hydroph_interaction:ALA:86>  (9) 
hydroph_interaction:ALA:86    0
hydroph_interaction:ALA:86    0
Name: 8, dtype: object

>  <hbond:SER:87>  (9) 
hbond:SER:87    0
hbond:SER:87    0
Name: 8, dtype: object

>  <halogenbond:SER:87>  (9) 
halogenbond:SER:87    0
halogenbond:SER:87    0
Name: 8, dtype: object

>  <hbond:GLU:88>  (9) 
hbond:GLU:88    0
hbond:GLU:88    0
Name: 8, dtype: object

>  <hydroph_interaction:GLU:88>  (9) 
hydroph_interaction:GLU:88    0
hydroph_interaction:GLU:88    0
Name: 8, dtype: object

>  <halogenbond:GLU:88>  (9) 
halogenbond:GLU:88    0
halogenbond:GLU:88    0
Name: 8, dtype: object

>  <saltbridge:GLU:88>  (9) 
saltbridge:GLU:88    0
saltbridge:GLU:88    0
Name: 8, dtype: object

>  <hydroph_interaction:TYR:89>  (9) 
hydroph_interaction:TYR:89    1
hydroph_interaction:TYR:89    1
Name: 8, dtype: object

>  <pistack:TYR:89>  (9) 
pistack:TYR:89    0
pistack:TYR:89    0
Name: 8, dtype: object

>  <hbond:TYR:89>  (9) 
hbond:TYR:89    0
hbond:TYR:89    0
Name: 8, dtype: object

>  <halogenbond:TYR:89>  (9) 
halogenbond:TYR:89    0
halogenbond:TYR:89    0
Name: 8, dtype: object

>  <hbond:TYR:90>  (9) 
hbond:TYR:90    0
hbond:TYR:90    0
Name: 8, dtype: object

>  <hydroph_interaction:TYR:90>  (9) 
hydroph_interaction:TYR:90    1
hydroph_interaction:TYR:90    1
Name: 8, dtype: object

>  <pistack:TYR:90>  (9) 
pistack:TYR:90    0
pistack:TYR:90    0
Name: 8, dtype: object

>  <halogenbond:TYR:90>  (9) 
halogenbond:TYR:90    0
halogenbond:TYR:90    0
Name: 8, dtype: object

>  <pication:TYR:90>  (9) 
pication:TYR:90    0
pication:TYR:90    0
Name: 8, dtype: object

>  <hydroph_interaction:PRO:91>  (9) 
hydroph_interaction:PRO:91    0
hydroph_interaction:PRO:91    0
Name: 8, dtype: object

>  <halogenbond:PRO:91>  (9) 
halogenbond:PRO:91    0
halogenbond:PRO:91    0
Name: 8, dtype: object

>  <hbond:PRO:91>  (9) 
hbond:PRO:91    0
hbond:PRO:91    0
Name: 8, dtype: object

>  <hydroph_interaction:ALA:92>  (9) 
hydroph_interaction:ALA:92    0
hydroph_interaction:ALA:92    0
Name: 8, dtype: object

>  <hbond:ARG:93>  (9) 
hbond:ARG:93    0
hbond:ARG:93    0
Name: 8, dtype: object

>  <pication:ARG:93>  (9) 
pication:ARG:93    0
pication:ARG:93    0
Name: 8, dtype: object

>  <saltbridge:ARG:93>  (9) 
saltbridge:ARG:93    0
saltbridge:ARG:93    0
Name: 8, dtype: object

>  <hydroph_interaction:ARG:93>  (9) 
hydroph_interaction:ARG:93    0
hydroph_interaction:ARG:93    0
Name: 8, dtype: object

>  <halogenbond:ARG:93>  (9) 
halogenbond:ARG:93    0
halogenbond:ARG:93    0
Name: 8, dtype: object

>  <hydroph_interaction:TYR:94>  (9) 
hydroph_interaction:TYR:94    0
hydroph_interaction:TYR:94    0
Name: 8, dtype: object

>  <hbond:TYR:94>  (9) 
hbond:TYR:94    0
hbond:TYR:94    0
Name: 8, dtype: object

>  <halogenbond:GLN:95>  (9) 
halogenbond:GLN:95    0
halogenbond:GLN:95    0
Name: 8, dtype: object

>  <hbond:GLN:95>  (9) 
hbond:GLN:95    0
hbond:GLN:95    0
Name: 8, dtype: object

>  <hydroph_interaction:GLN:95>  (9) 
hydroph_interaction:GLN:95    0
hydroph_interaction:GLN:95    0
Name: 8, dtype: object

>  <hbond:SER:96>  (9) 
hbond:SER:96    0
hbond:SER:96    0
Name: 8, dtype: object

>  <hydroph_interaction:LEU:98>  (9) 
hydroph_interaction:LEU:98    0
hydroph_interaction:LEU:98    0
Name: 8, dtype: object

>  <hbond:LEU:98>  (9) 
hbond:LEU:98    0
hbond:LEU:98    0
Name: 8, dtype: object

>  <hbond:MET:99>  (9) 
hbond:MET:99    0
hbond:MET:99    0
Name: 8, dtype: object

>  <hydroph_interaction:MET:99>  (9) 
hydroph_interaction:MET:99    0
hydroph_interaction:MET:99    0
Name: 8, dtype: object

>  <halogenbond:MET:99>  (9) 
halogenbond:MET:99    0
halogenbond:MET:99    0
Name: 8, dtype: object

>  <hydroph_interaction:LEU:100>  (9) 
hydroph_interaction:LEU:100    0
hydroph_interaction:LEU:100    0
Name: 8, dtype: object

>  <hbond:LEU:100>  (9) 
hbond:LEU:100    0
hbond:LEU:100    0
Name: 8, dtype: object

>  <hbond:ALA:101>  (9) 
hbond:ALA:101    0
hbond:ALA:101    0
Name: 8, dtype: object

>  <hydroph_interaction:ALA:101>  (9) 
hydroph_interaction:ALA:101    0
hydroph_interaction:ALA:101    0
Name: 8, dtype: object

>  <hydroph_interaction:VAL:102>  (9) 
hydroph_interaction:VAL:102    0
hydroph_interaction:VAL:102    0
Name: 8, dtype: object

>  <hbond:VAL:102>  (9) 
hbond:VAL:102    0
hbond:VAL:102    0
Name: 8, dtype: object

>  <hbond:GLY:103>  (9) 
hbond:GLY:103    0
hbond:GLY:103    0
Name: 8, dtype: object

>  <halogenbond:GLY:103>  (9) 
halogenbond:GLY:103    0
halogenbond:GLY:103    0
Name: 8, dtype: object

>  <hydroph_interaction:HIS:104>  (9) 
hydroph_interaction:HIS:104    0
hydroph_interaction:HIS:104    0
Name: 8, dtype: object

>  <hbond:HIS:104>  (9) 
hbond:HIS:104    0
hbond:HIS:104    0
Name: 8, dtype: object

>  <saltbridge:HIS:104>  (9) 
saltbridge:HIS:104    0
saltbridge:HIS:104    0
Name: 8, dtype: object

>  <pication:HIS:104>  (9) 
pication:HIS:104    0
pication:HIS:104    0
Name: 8, dtype: object

>  <pistack:HIS:104>  (9) 
pistack:HIS:104    0
pistack:HIS:104    0
Name: 8, dtype: object

>  <halogenbond:HIS:104>  (9) 
halogenbond:HIS:104    0
halogenbond:HIS:104    0
Name: 8, dtype: object

>  <hbond:SER:105>  (9) 
hbond:SER:105    0
hbond:SER:105    0
Name: 8, dtype: object

>  <halogenbond:SER:105>  (9) 
halogenbond:SER:105    0
halogenbond:SER:105    0
Name: 8, dtype: object

>  <hbond:GLU:106>  (9) 
hbond:GLU:106    0
hbond:GLU:106    0
Name: 8, dtype: object

>  <hydroph_interaction:GLU:106>  (9) 
hydroph_interaction:GLU:106    0
hydroph_interaction:GLU:106    0
Name: 8, dtype: object

>  <saltbridge:GLU:106>  (9) 
saltbridge:GLU:106    0
saltbridge:GLU:106    0
Name: 8, dtype: object

>  <halogenbond:GLU:106>  (9) 
halogenbond:GLU:106    0
halogenbond:GLU:106    0
Name: 8, dtype: object

>  <hydroph_interaction:PRO:107>  (9) 
hydroph_interaction:PRO:107    0
hydroph_interaction:PRO:107    0
Name: 8, dtype: object

>  <hbond:PRO:107>  (9) 
hbond:PRO:107    0
hbond:PRO:107    0
Name: 8, dtype: object

>  <halogenbond:PRO:107>  (9) 
halogenbond:PRO:107    0
halogenbond:PRO:107    0
Name: 8, dtype: object

>  <hbond:GLY:108>  (9) 
hbond:GLY:108    0
hbond:GLY:108    0
Name: 8, dtype: object

>  <halogenbond:GLY:108>  (9) 
halogenbond:GLY:108    0
halogenbond:GLY:108    0
Name: 8, dtype: object

>  <hbond:ASP:109>  (9) 
hbond:ASP:109    0
hbond:ASP:109    0
Name: 8, dtype: object

>  <hydroph_interaction:ASP:109>  (9) 
hydroph_interaction:ASP:109    0
hydroph_interaction:ASP:109    0
Name: 8, dtype: object

>  <saltbridge:ASP:109>  (9) 
saltbridge:ASP:109    0
saltbridge:ASP:109    0
Name: 8, dtype: object

>  <hbond:CYS:110>  (9) 
hbond:CYS:110    0
hbond:CYS:110    0
Name: 8, dtype: object

>  <halogenbond:CYS:110>  (9) 
halogenbond:CYS:110    0
halogenbond:CYS:110    0
Name: 8, dtype: object

>  <hbond:GLY:111>  (9) 
hbond:GLY:111    0
hbond:GLY:111    0
Name: 8, dtype: object

>  <hbond:GLY:112>  (9) 
hbond:GLY:112    0
hbond:GLY:112    0
Name: 8, dtype: object

>  <hbond:ILE:113>  (9) 
hbond:ILE:113    0
hbond:ILE:113    0
Name: 8, dtype: object

>  <hydroph_interaction:LEU:114>  (9) 
hydroph_interaction:LEU:114    0
hydroph_interaction:LEU:114    0
Name: 8, dtype: object

>  <hbond:LEU:114>  (9) 
hbond:LEU:114    0
hbond:LEU:114    0
Name: 8, dtype: object

>  <hydroph_interaction:ILE:123>  (9) 
hydroph_interaction:ILE:123    0
hydroph_interaction:ILE:123    0
Name: 8, dtype: object

>  <hbond:ILE:123>  (9) 
hbond:ILE:123    0
hbond:ILE:123    0
Name: 8, dtype: object

>  <hydroph_interaction:VAL:124>  (9) 
hydroph_interaction:VAL:124    0
hydroph_interaction:VAL:124    0
Name: 8, dtype: object

>  <hbond:VAL:124>  (9) 
hbond:VAL:124    0
hbond:VAL:124    0
Name: 8, dtype: object

>  <halogenbond:VAL:124>  (9) 
halogenbond:VAL:124    0
halogenbond:VAL:124    0
Name: 8, dtype: object

>  <hbond:SER:125>  (9) 
hbond:SER:125    0
hbond:SER:125    0
Name: 8, dtype: object

>  <halogenbond:SER:125>  (9) 
halogenbond:SER:125    0
halogenbond:SER:125    0
Name: 8, dtype: object

>  <hydroph_interaction:THR:126>  (9) 
hydroph_interaction:THR:126    0
hydroph_interaction:THR:126    0
Name: 8, dtype: object

>  <hbond:THR:126>  (9) 
hbond:THR:126    0
hbond:THR:126    0
Name: 8, dtype: object

>  <halogenbond:THR:126>  (9) 
halogenbond:THR:126    0
halogenbond:THR:126    0
Name: 8, dtype: object

>  <hbond:GLY:127>  (9) 
hbond:GLY:127    0
hbond:GLY:127    0
Name: 8, dtype: object

>  <halogenbond:GLY:127>  (9) 
halogenbond:GLY:127    0
halogenbond:GLY:127    0
Name: 8, dtype: object

>  <hydroph_interaction:GLY:127>  (9) 
hydroph_interaction:GLY:127    0
hydroph_interaction:GLY:127    0
Name: 8, dtype: object

>  <hbond:GLY:128>  (9) 
hbond:GLY:128    0
hbond:GLY:128    0
Name: 8, dtype: object

>  <halogenbond:GLY:128>  (9) 
halogenbond:GLY:128    0
halogenbond:GLY:128    0
Name: 8, dtype: object

>  <hydroph_interaction:GLY:128>  (9) 
hydroph_interaction:GLY:128    0
hydroph_interaction:GLY:128    0
Name: 8, dtype: object

>  <hbond:ASN:129>  (9) 
hbond:ASN:129    0
hbond:ASN:129    0
Name: 8, dtype: object

>  <hydroph_interaction:ASN:129>  (9) 
hydroph_interaction:ASN:129    0
hydroph_interaction:ASN:129    0
Name: 8, dtype: object

>  <halogenbond:ASN:129>  (9) 
halogenbond:ASN:129    0
halogenbond:ASN:129    0
Name: 8, dtype: object

>  <hbond:GLY:130>  (9) 
hbond:GLY:130    0
hbond:GLY:130    0
Name: 8, dtype: object

>  <hydroph_interaction:LEU:131>  (9) 
hydroph_interaction:LEU:131    0
hydroph_interaction:LEU:131    0
Name: 8, dtype: object

>  <hbond:LEU:131>  (9) 
hbond:LEU:131    0
hbond:LEU:131    0
Name: 8, dtype: object

>  <halogenbond:LEU:131>  (9) 
halogenbond:LEU:131    0
halogenbond:LEU:131    0
Name: 8, dtype: object

>  <hydroph_interaction:VAL:132>  (9) 
hydroph_interaction:VAL:132    0
hydroph_interaction:VAL:132    0
Name: 8, dtype: object

>  <hbond:VAL:132>  (9) 
hbond:VAL:132    0
hbond:VAL:132    0
Name: 8, dtype: object

>  <hbond:GLY:133>  (9) 
hbond:GLY:133    0
hbond:GLY:133    0
Name: 8, dtype: object

>  <halogenbond:GLY:133>  (9) 
halogenbond:GLY:133    0
halogenbond:GLY:133    0
Name: 8, dtype: object

>  <hydroph_interaction:PHE:134>  (9) 
hydroph_interaction:PHE:134    0
hydroph_interaction:PHE:134    0
Name: 8, dtype: object

>  <hbond:PHE:134>  (9) 
hbond:PHE:134    0
hbond:PHE:134    0
Name: 8, dtype: object

>  <pistack:PHE:134>  (9) 
pistack:PHE:134    0
pistack:PHE:134    0
Name: 8, dtype: object

>  <pication:PHE:134>  (9) 
pication:PHE:134    0
pication:PHE:134    0
Name: 8, dtype: object

>  <hydroph_interaction:ALA:135>  (9) 
hydroph_interaction:ALA:135    0
hydroph_interaction:ALA:135    0
Name: 8, dtype: object

>  <hbond:ALA:135>  (9) 
hbond:ALA:135    0
hbond:ALA:135    0
Name: 8, dtype: object

$$$$
PV_002873190497
     RDKit          3D

 30 32  0  0  0  0  0  0  0  0999 V2000
   13.3490   16.1720   20.5250 C   0  0  0  0  0  0  0  0  0  0  0  0
   12.3310   15.2870   21.1290 C   0  0  0  0  0  0  0  0  0  0  0  0
   10.8760   15.4200   20.7730 C   0  0  0  0  0  0  0  0  0  0  0  0
    9.9440   14.5680   21.3530 C   0  0  0  0  0  0  0  0  0  0  0  0
   10.5030   13.5930   22.2850 C   0  0  0  0  0  0  0  0  0  0  0  0
    9.8050   12.6280   22.9790 C   0  0  0  0  0  0  0  0  0  0  0  0
   10.1410   11.3390   22.7350 C   0  0  0  0  0  0  0  0  0  0  0  0
    9.4630   10.4440   23.4050 N   0  0  0  0  0  0  0  0  0  0  0  0
    9.6480    9.1210   23.2940 C   0  0  0  0  0  0  0  0  0  0  0  0
    8.5770   11.1380   24.1980 C   0  0  0  0  0  0  0  0  0  0  0  0
    7.5500   10.6470   25.1740 C   0  0  0  0  0  0  0  0  0  0  0  0
    6.7890   11.5900   25.8390 C   0  0  0  0  0  0  0  0  0  0  0  0
    6.9800   12.9470   25.6020 C   0  0  0  0  0  0  0  0  0  0  0  0
    7.9410   13.4180   24.6860 C   0  0  0  0  0  0  0  0  0  0  0  0
    8.7590   12.5220   23.9620 C   0  0  0  0  0  0  0  0  0  0  0  0
   11.8450   13.5450   22.5500 N   0  0  0  0  0  0  0  0  0  0  0  0
   12.7550   14.3760   21.9890 N   0  0  0  0  0  0  0  0  0  0  0  0
   13.5720   15.8370   19.5160 H   0  0  0  0  0  0  0  0  0  0  0  0
   14.2660   16.1020   21.1040 H   0  0  0  0  0  0  0  0  0  0  0  0
   13.0420   17.2190   20.5130 H   0  0  0  0  0  0  0  0  0  0  0  0
   10.6330   16.2060   20.0530 H   0  0  0  0  0  0  0  0  0  0  0  0
    8.8830   14.6330   21.1180 H   0  0  0  0  0  0  0  0  0  0  0  0
   10.9260   11.1640   22.0160 H   0  0  0  0  0  0  0  0  0  0  0  0
   10.7190    8.9120   23.3610 H   0  0  0  0  0  0  0  0  0  0  0  0
    9.2530    8.7840   22.3370 H   0  0  0  0  0  0  0  0  0  0  0  0
    9.1190    8.6360   24.1060 H   0  0  0  0  0  0  0  0  0  0  0  0
    7.4080    9.6030   25.3510 H   0  0  0  0  0  0  0  0  0  0  0  0
    6.0340   11.2630   26.5520 H   0  0  0  0  0  0  0  0  0  0  0  0
    6.3680   13.6680   26.1380 H   0  0  0  0  0  0  0  0  0  0  0  0
    8.0450   14.4890   24.5400 H   0  0  0  0  0  0  0  0  0  0  0  0
  1  2  1  0
  2  3  2  0
  3  4  1  0
  4  5  2  0
  5  6  1  0
  6  7  2  0
  7  8  1  0
  8  9  1  0
  8 10  1  0
 10 11  2  0
 11 12  1  0
 12 13  2  0
 13 14  1  0
 14 15  2  0
  5 16  1  0
 16 17  2  0
 17  2  1  0
 15  6  1  0
 15 10  1  0
  1 18  1  0
  1 19  1  0
  1 20  1  0
  3 21  1  0
  4 22  1  0
  7 23  1  0
  9 24  1  0
  9 25  1  0
  9 26  1  0
 11 27  1  0
 12 28  1  0
 13 29  1  0
 14 30  1  0
A    1
 C1 
A    2
 C2 
A    3
 C3 
A    4
 C4 
A    5
 C5 
A    6
 C6 
A    7
 C7 
A    8
 N1 
A    9
 C8 
A   10
 C9 
A   11
 C10
A   12
 C11
A   13
 C12
A   14
 C13
A   15
 C14
A   16
 N2 
A   17
 N3 
A   18
 H1 
A   19
 H2 
A   20
 H3 
A   21
 H4 
A   22
 H5 
A   23
 H6 
A   24
 H7 
A   25
 H8 
A   26
 H9 
A   27
 H10
A   28
 H11
A   29
 H12
A   30
 H13
M  END
>  <ref_pdb>  (10) 
x0310_0A

>  <ref_mols>  (10) 
x0451_0A,x0812_0A

>  <original SMILES>  (10) 
Cc1ccc(-c2cn(C)c3ccccc23)nn1

>  <rationale>  (10) 
info hydroph_interaction:Y89+Y90+H21; 

>  <intxn_cluster>  (10) 
208

>  <intxn_cluster_rank>  (10) 
26

>  <N_interactions>  (10) 
3

>  <∆∆G>  (10) 
-10.622993

>  <$/mg>  (10) 
163.0

>  <comRMSD>  (10) 
0.816457

>  <N_rotatable_bonds>  (10) 
3

>  <hbond:SER:7>  (10) 
hbond:SER:7    0
hbond:SER:7    0
Name: 9, dtype: object

>  <halogenbond:SER:7>  (10) 
halogenbond:SER:7    0
halogenbond:SER:7    0
Name: 9, dtype: object

>  <hbond:GLY:8>  (10) 
hbond:GLY:8    0
hbond:GLY:8    0
Name: 9, dtype: object

>  <hydroph_interaction:ASN:19>  (10) 
hydroph_interaction:ASN:19    0
hydroph_interaction:ASN:19    0
Name: 9, dtype: object

>  <hbond:ASN:19>  (10) 
hbond:ASN:19    0
hbond:ASN:19    0
Name: 9, dtype: object

>  <halogenbond:ASN:19>  (10) 
halogenbond:ASN:19    0
halogenbond:ASN:19    0
Name: 9, dtype: object

>  <hbond:ARG:20>  (10) 
hbond:ARG:20    0
hbond:ARG:20    0
Name: 9, dtype: object

>  <hydroph_interaction:ARG:20>  (10) 
hydroph_interaction:ARG:20    0
hydroph_interaction:ARG:20    0
Name: 9, dtype: object

>  <saltbridge:ARG:20>  (10) 
saltbridge:ARG:20    0
saltbridge:ARG:20    0
Name: 9, dtype: object

>  <halogenbond:ARG:20>  (10) 
halogenbond:ARG:20    0
halogenbond:ARG:20    0
Name: 9, dtype: object

>  <pication:ARG:20>  (10) 
pication:ARG:20    0
pication:ARG:20    0
Name: 9, dtype: object

>  <hbond:HIS:21>  (10) 
hbond:HIS:21    0
hbond:HIS:21    0
Name: 9, dtype: object

>  <hydroph_interaction:HIS:21>  (10) 
hydroph_interaction:HIS:21    1
hydroph_interaction:HIS:21    1
Name: 9, dtype: object

>  <saltbridge:HIS:21>  (10) 
saltbridge:HIS:21    0
saltbridge:HIS:21    0
Name: 9, dtype: object

>  <pistack:HIS:21>  (10) 
pistack:HIS:21    0
pistack:HIS:21    0
Name: 9, dtype: object

>  <pication:HIS:21>  (10) 
pication:HIS:21    0
pication:HIS:21    0
Name: 9, dtype: object

>  <halogenbond:HIS:21>  (10) 
halogenbond:HIS:21    0
halogenbond:HIS:21    0
Name: 9, dtype: object

>  <hydroph_interaction:LEU:22>  (10) 
hydroph_interaction:LEU:22    0
hydroph_interaction:LEU:22    0
Name: 9, dtype: object

>  <hbond:LEU:22>  (10) 
hbond:LEU:22    0
hbond:LEU:22    0
Name: 9, dtype: object

>  <hydroph_interaction:TRP:28>  (10) 
hydroph_interaction:TRP:28    0
hydroph_interaction:TRP:28    0
Name: 9, dtype: object

>  <hbond:SER:36>  (10) 
hbond:SER:36    0
hbond:SER:36    0
Name: 9, dtype: object

>  <halogenbond:SER:36>  (10) 
halogenbond:SER:36    0
halogenbond:SER:36    0
Name: 9, dtype: object

>  <hbond:ARG:38>  (10) 
hbond:ARG:38    0
hbond:ARG:38    0
Name: 9, dtype: object

>  <halogenbond:ARG:38>  (10) 
halogenbond:ARG:38    0
halogenbond:ARG:38    0
Name: 9, dtype: object

>  <hbond:ASP:39>  (10) 
hbond:ASP:39    0
hbond:ASP:39    0
Name: 9, dtype: object

>  <saltbridge:ASP:39>  (10) 
saltbridge:ASP:39    0
saltbridge:ASP:39    0
Name: 9, dtype: object

>  <hydroph_interaction:ASP:39>  (10) 
hydroph_interaction:ASP:39    0
hydroph_interaction:ASP:39    0
Name: 9, dtype: object

>  <halogenbond:ASP:39>  (10) 
halogenbond:ASP:39    0
halogenbond:ASP:39    0
Name: 9, dtype: object

>  <hydroph_interaction:LEU:40>  (10) 
hydroph_interaction:LEU:40    0
hydroph_interaction:LEU:40    0
Name: 9, dtype: object

>  <hydroph_interaction:TYR:63>  (10) 
hydroph_interaction:TYR:63    0
hydroph_interaction:TYR:63    0
Name: 9, dtype: object

>  <pistack:TYR:63>  (10) 
pistack:TYR:63    0
pistack:TYR:63    0
Name: 9, dtype: object

>  <hbond:TYR:63>  (10) 
hbond:TYR:63    0
hbond:TYR:63    0
Name: 9, dtype: object

>  <hbond:TYR:64>  (10) 
hbond:TYR:64    0
hbond:TYR:64    0
Name: 9, dtype: object

>  <halogenbond:TYR:64>  (10) 
halogenbond:TYR:64    0
halogenbond:TYR:64    0
Name: 9, dtype: object

>  <hydroph_interaction:TYR:64>  (10) 
hydroph_interaction:TYR:64    0
hydroph_interaction:TYR:64    0
Name: 9, dtype: object

>  <hbond:CYS:65>  (10) 
hbond:CYS:65    0
hbond:CYS:65    0
Name: 9, dtype: object

>  <halogenbond:CYS:65>  (10) 
halogenbond:CYS:65    0
halogenbond:CYS:65    0
Name: 9, dtype: object

>  <hbond:SER:66>  (10) 
hbond:SER:66    0
hbond:SER:66    0
Name: 9, dtype: object

>  <hbond:SER:67>  (10) 
hbond:SER:67    0
hbond:SER:67    0
Name: 9, dtype: object

>  <halogenbond:SER:67>  (10) 
halogenbond:SER:67    0
halogenbond:SER:67    0
Name: 9, dtype: object

>  <hydroph_interaction:ARG:68>  (10) 
hydroph_interaction:ARG:68    0
hydroph_interaction:ARG:68    0
Name: 9, dtype: object

>  <hbond:ARG:68>  (10) 
hbond:ARG:68    0
hbond:ARG:68    0
Name: 9, dtype: object

>  <saltbridge:ARG:68>  (10) 
saltbridge:ARG:68    0
saltbridge:ARG:68    0
Name: 9, dtype: object

>  <pication:ARG:68>  (10) 
pication:ARG:68    0
pication:ARG:68    0
Name: 9, dtype: object

>  <hydroph_interaction:TYR:72>  (10) 
hydroph_interaction:TYR:72    0
hydroph_interaction:TYR:72    0
Name: 9, dtype: object

>  <hydroph_interaction:VAL:74>  (10) 
hydroph_interaction:VAL:74    0
hydroph_interaction:VAL:74    0
Name: 9, dtype: object

>  <hydroph_interaction:PHE:76>  (10) 
hydroph_interaction:PHE:76    0
hydroph_interaction:PHE:76    0
Name: 9, dtype: object

>  <hbond:SER:77>  (10) 
hbond:SER:77    0
hbond:SER:77    0
Name: 9, dtype: object

>  <hbond:SER:80>  (10) 
hbond:SER:80    0
hbond:SER:80    0
Name: 9, dtype: object

>  <hbond:LEU:81>  (10) 
hbond:LEU:81    0
hbond:LEU:81    0
Name: 9, dtype: object

>  <halogenbond:LEU:81>  (10) 
halogenbond:LEU:81    0
halogenbond:LEU:81    0
Name: 9, dtype: object

>  <hydroph_interaction:LEU:81>  (10) 
hydroph_interaction:LEU:81    0
hydroph_interaction:LEU:81    0
Name: 9, dtype: object

>  <hydroph_interaction:ILE:82>  (10) 
hydroph_interaction:ILE:82    0
hydroph_interaction:ILE:82    0
Name: 9, dtype: object

>  <hbond:ILE:82>  (10) 
hbond:ILE:82    0
hbond:ILE:82    0
Name: 9, dtype: object

>  <hydroph_interaction:PHE:83>  (10) 
hydroph_interaction:PHE:83    0
hydroph_interaction:PHE:83    0
Name: 9, dtype: object

>  <hbond:PHE:83>  (10) 
hbond:PHE:83    0
hbond:PHE:83    0
Name: 9, dtype: object

>  <halogenbond:PHE:83>  (10) 
halogenbond:PHE:83    0
halogenbond:PHE:83    0
Name: 9, dtype: object

>  <pistack:PHE:83>  (10) 
pistack:PHE:83    0
pistack:PHE:83    0
Name: 9, dtype: object

>  <hydroph_interaction:VAL:84>  (10) 
hydroph_interaction:VAL:84    0
hydroph_interaction:VAL:84    0
Name: 9, dtype: object

>  <hbond:VAL:84>  (10) 
hbond:VAL:84    0
hbond:VAL:84    0
Name: 9, dtype: object

>  <halogenbond:VAL:84>  (10) 
halogenbond:VAL:84    0
halogenbond:VAL:84    0
Name: 9, dtype: object

>  <hydroph_interaction:GLU:85>  (10) 
hydroph_interaction:GLU:85    0
hydroph_interaction:GLU:85    0
Name: 9, dtype: object

>  <hbond:GLU:85>  (10) 
hbond:GLU:85    0
hbond:GLU:85    0
Name: 9, dtype: object

>  <saltbridge:GLU:85>  (10) 
saltbridge:GLU:85    0
saltbridge:GLU:85    0
Name: 9, dtype: object

>  <halogenbond:GLU:85>  (10) 
halogenbond:GLU:85    0
halogenbond:GLU:85    0
Name: 9, dtype: object

>  <hbond:ALA:86>  (10) 
hbond:ALA:86    0
hbond:ALA:86    0
Name: 9, dtype: object

>  <halogenbond:ALA:86>  (10) 
halogenbond:ALA:86    0
halogenbond:ALA:86    0
Name: 9, dtype: object

>  <hydroph_interaction:ALA:86>  (10) 
hydroph_interaction:ALA:86    0
hydroph_interaction:ALA:86    0
Name: 9, dtype: object

>  <hbond:SER:87>  (10) 
hbond:SER:87    0
hbond:SER:87    0
Name: 9, dtype: object

>  <halogenbond:SER:87>  (10) 
halogenbond:SER:87    0
halogenbond:SER:87    0
Name: 9, dtype: object

>  <hbond:GLU:88>  (10) 
hbond:GLU:88    0
hbond:GLU:88    0
Name: 9, dtype: object

>  <hydroph_interaction:GLU:88>  (10) 
hydroph_interaction:GLU:88    0
hydroph_interaction:GLU:88    0
Name: 9, dtype: object

>  <halogenbond:GLU:88>  (10) 
halogenbond:GLU:88    0
halogenbond:GLU:88    0
Name: 9, dtype: object

>  <saltbridge:GLU:88>  (10) 
saltbridge:GLU:88    0
saltbridge:GLU:88    0
Name: 9, dtype: object

>  <hydroph_interaction:TYR:89>  (10) 
hydroph_interaction:TYR:89    1
hydroph_interaction:TYR:89    1
Name: 9, dtype: object

>  <pistack:TYR:89>  (10) 
pistack:TYR:89    0
pistack:TYR:89    0
Name: 9, dtype: object

>  <hbond:TYR:89>  (10) 
hbond:TYR:89    0
hbond:TYR:89    0
Name: 9, dtype: object

>  <halogenbond:TYR:89>  (10) 
halogenbond:TYR:89    0
halogenbond:TYR:89    0
Name: 9, dtype: object

>  <hbond:TYR:90>  (10) 
hbond:TYR:90    0
hbond:TYR:90    0
Name: 9, dtype: object

>  <hydroph_interaction:TYR:90>  (10) 
hydroph_interaction:TYR:90    1
hydroph_interaction:TYR:90    1
Name: 9, dtype: object

>  <pistack:TYR:90>  (10) 
pistack:TYR:90    0
pistack:TYR:90    0
Name: 9, dtype: object

>  <halogenbond:TYR:90>  (10) 
halogenbond:TYR:90    0
halogenbond:TYR:90    0
Name: 9, dtype: object

>  <pication:TYR:90>  (10) 
pication:TYR:90    0
pication:TYR:90    0
Name: 9, dtype: object

>  <hydroph_interaction:PRO:91>  (10) 
hydroph_interaction:PRO:91    0
hydroph_interaction:PRO:91    0
Name: 9, dtype: object

>  <halogenbond:PRO:91>  (10) 
halogenbond:PRO:91    0
halogenbond:PRO:91    0
Name: 9, dtype: object

>  <hbond:PRO:91>  (10) 
hbond:PRO:91    0
hbond:PRO:91    0
Name: 9, dtype: object

>  <hydroph_interaction:ALA:92>  (10) 
hydroph_interaction:ALA:92    0
hydroph_interaction:ALA:92    0
Name: 9, dtype: object

>  <hbond:ARG:93>  (10) 
hbond:ARG:93    0
hbond:ARG:93    0
Name: 9, dtype: object

>  <pication:ARG:93>  (10) 
pication:ARG:93    0
pication:ARG:93    0
Name: 9, dtype: object

>  <saltbridge:ARG:93>  (10) 
saltbridge:ARG:93    0
saltbridge:ARG:93    0
Name: 9, dtype: object

>  <hydroph_interaction:ARG:93>  (10) 
hydroph_interaction:ARG:93    0
hydroph_interaction:ARG:93    0
Name: 9, dtype: object

>  <halogenbond:ARG:93>  (10) 
halogenbond:ARG:93    0
halogenbond:ARG:93    0
Name: 9, dtype: object

>  <hydroph_interaction:TYR:94>  (10) 
hydroph_interaction:TYR:94    0
hydroph_interaction:TYR:94    0
Name: 9, dtype: object

>  <hbond:TYR:94>  (10) 
hbond:TYR:94    0
hbond:TYR:94    0
Name: 9, dtype: object

>  <halogenbond:GLN:95>  (10) 
halogenbond:GLN:95    0
halogenbond:GLN:95    0
Name: 9, dtype: object

>  <hbond:GLN:95>  (10) 
hbond:GLN:95    0
hbond:GLN:95    0
Name: 9, dtype: object

>  <hydroph_interaction:GLN:95>  (10) 
hydroph_interaction:GLN:95    0
hydroph_interaction:GLN:95    0
Name: 9, dtype: object

>  <hbond:SER:96>  (10) 
hbond:SER:96    0
hbond:SER:96    0
Name: 9, dtype: object

>  <hydroph_interaction:LEU:98>  (10) 
hydroph_interaction:LEU:98    0
hydroph_interaction:LEU:98    0
Name: 9, dtype: object

>  <hbond:LEU:98>  (10) 
hbond:LEU:98    0
hbond:LEU:98    0
Name: 9, dtype: object

>  <hbond:MET:99>  (10) 
hbond:MET:99    0
hbond:MET:99    0
Name: 9, dtype: object

>  <hydroph_interaction:MET:99>  (10) 
hydroph_interaction:MET:99    0
hydroph_interaction:MET:99    0
Name: 9, dtype: object

>  <halogenbond:MET:99>  (10) 
halogenbond:MET:99    0
halogenbond:MET:99    0
Name: 9, dtype: object

>  <hydroph_interaction:LEU:100>  (10) 
hydroph_interaction:LEU:100    0
hydroph_interaction:LEU:100    0
Name: 9, dtype: object

>  <hbond:LEU:100>  (10) 
hbond:LEU:100    0
hbond:LEU:100    0
Name: 9, dtype: object

>  <hbond:ALA:101>  (10) 
hbond:ALA:101    0
hbond:ALA:101    0
Name: 9, dtype: object

>  <hydroph_interaction:ALA:101>  (10) 
hydroph_interaction:ALA:101    0
hydroph_interaction:ALA:101    0
Name: 9, dtype: object

>  <hydroph_interaction:VAL:102>  (10) 
hydroph_interaction:VAL:102    0
hydroph_interaction:VAL:102    0
Name: 9, dtype: object

>  <hbond:VAL:102>  (10) 
hbond:VAL:102    0
hbond:VAL:102    0
Name: 9, dtype: object

>  <hbond:GLY:103>  (10) 
hbond:GLY:103    0
hbond:GLY:103    0
Name: 9, dtype: object

>  <halogenbond:GLY:103>  (10) 
halogenbond:GLY:103    0
halogenbond:GLY:103    0
Name: 9, dtype: object

>  <hydroph_interaction:HIS:104>  (10) 
hydroph_interaction:HIS:104    0
hydroph_interaction:HIS:104    0
Name: 9, dtype: object

>  <hbond:HIS:104>  (10) 
hbond:HIS:104    0
hbond:HIS:104    0
Name: 9, dtype: object

>  <saltbridge:HIS:104>  (10) 
saltbridge:HIS:104    0
saltbridge:HIS:104    0
Name: 9, dtype: object

>  <pication:HIS:104>  (10) 
pication:HIS:104    0
pication:HIS:104    0
Name: 9, dtype: object

>  <pistack:HIS:104>  (10) 
pistack:HIS:104    0
pistack:HIS:104    0
Name: 9, dtype: object

>  <halogenbond:HIS:104>  (10) 
halogenbond:HIS:104    0
halogenbond:HIS:104    0
Name: 9, dtype: object

>  <hbond:SER:105>  (10) 
hbond:SER:105    0
hbond:SER:105    0
Name: 9, dtype: object

>  <halogenbond:SER:105>  (10) 
halogenbond:SER:105    0
halogenbond:SER:105    0
Name: 9, dtype: object

>  <hbond:GLU:106>  (10) 
hbond:GLU:106    0
hbond:GLU:106    0
Name: 9, dtype: object

>  <hydroph_interaction:GLU:106>  (10) 
hydroph_interaction:GLU:106    0
hydroph_interaction:GLU:106    0
Name: 9, dtype: object

>  <saltbridge:GLU:106>  (10) 
saltbridge:GLU:106    0
saltbridge:GLU:106    0
Name: 9, dtype: object

>  <halogenbond:GLU:106>  (10) 
halogenbond:GLU:106    0
halogenbond:GLU:106    0
Name: 9, dtype: object

>  <hydroph_interaction:PRO:107>  (10) 
hydroph_interaction:PRO:107    0
hydroph_interaction:PRO:107    0
Name: 9, dtype: object

>  <hbond:PRO:107>  (10) 
hbond:PRO:107    0
hbond:PRO:107    0
Name: 9, dtype: object

>  <halogenbond:PRO:107>  (10) 
halogenbond:PRO:107    0
halogenbond:PRO:107    0
Name: 9, dtype: object

>  <hbond:GLY:108>  (10) 
hbond:GLY:108    0
hbond:GLY:108    0
Name: 9, dtype: object

>  <halogenbond:GLY:108>  (10) 
halogenbond:GLY:108    0
halogenbond:GLY:108    0
Name: 9, dtype: object

>  <hbond:ASP:109>  (10) 
hbond:ASP:109    0
hbond:ASP:109    0
Name: 9, dtype: object

>  <hydroph_interaction:ASP:109>  (10) 
hydroph_interaction:ASP:109    0
hydroph_interaction:ASP:109    0
Name: 9, dtype: object

>  <saltbridge:ASP:109>  (10) 
saltbridge:ASP:109    0
saltbridge:ASP:109    0
Name: 9, dtype: object

>  <hbond:CYS:110>  (10) 
hbond:CYS:110    0
hbond:CYS:110    0
Name: 9, dtype: object

>  <halogenbond:CYS:110>  (10) 
halogenbond:CYS:110    0
halogenbond:CYS:110    0
Name: 9, dtype: object

>  <hbond:GLY:111>  (10) 
hbond:GLY:111    0
hbond:GLY:111    0
Name: 9, dtype: object

>  <hbond:GLY:112>  (10) 
hbond:GLY:112    0
hbond:GLY:112    0
Name: 9, dtype: object

>  <hbond:ILE:113>  (10) 
hbond:ILE:113    0
hbond:ILE:113    0
Name: 9, dtype: object

>  <hydroph_interaction:LEU:114>  (10) 
hydroph_interaction:LEU:114    0
hydroph_interaction:LEU:114    0
Name: 9, dtype: object

>  <hbond:LEU:114>  (10) 
hbond:LEU:114    0
hbond:LEU:114    0
Name: 9, dtype: object

>  <hydroph_interaction:ILE:123>  (10) 
hydroph_interaction:ILE:123    0
hydroph_interaction:ILE:123    0
Name: 9, dtype: object

>  <hbond:ILE:123>  (10) 
hbond:ILE:123    0
hbond:ILE:123    0
Name: 9, dtype: object

>  <hydroph_interaction:VAL:124>  (10) 
hydroph_interaction:VAL:124    0
hydroph_interaction:VAL:124    0
Name: 9, dtype: object

>  <hbond:VAL:124>  (10) 
hbond:VAL:124    0
hbond:VAL:124    0
Name: 9, dtype: object

>  <halogenbond:VAL:124>  (10) 
halogenbond:VAL:124    0
halogenbond:VAL:124    0
Name: 9, dtype: object

>  <hbond:SER:125>  (10) 
hbond:SER:125    0
hbond:SER:125    0
Name: 9, dtype: object

>  <halogenbond:SER:125>  (10) 
halogenbond:SER:125    0
halogenbond:SER:125    0
Name: 9, dtype: object

>  <hydroph_interaction:THR:126>  (10) 
hydroph_interaction:THR:126    0
hydroph_interaction:THR:126    0
Name: 9, dtype: object

>  <hbond:THR:126>  (10) 
hbond:THR:126    0
hbond:THR:126    0
Name: 9, dtype: object

>  <halogenbond:THR:126>  (10) 
halogenbond:THR:126    0
halogenbond:THR:126    0
Name: 9, dtype: object

>  <hbond:GLY:127>  (10) 
hbond:GLY:127    0
hbond:GLY:127    0
Name: 9, dtype: object

>  <halogenbond:GLY:127>  (10) 
halogenbond:GLY:127    0
halogenbond:GLY:127    0
Name: 9, dtype: object

>  <hydroph_interaction:GLY:127>  (10) 
hydroph_interaction:GLY:127    0
hydroph_interaction:GLY:127    0
Name: 9, dtype: object

>  <hbond:GLY:128>  (10) 
hbond:GLY:128    0
hbond:GLY:128    0
Name: 9, dtype: object

>  <halogenbond:GLY:128>  (10) 
halogenbond:GLY:128    0
halogenbond:GLY:128    0
Name: 9, dtype: object

>  <hydroph_interaction:GLY:128>  (10) 
hydroph_interaction:GLY:128    0
hydroph_interaction:GLY:128    0
Name: 9, dtype: object

>  <hbond:ASN:129>  (10) 
hbond:ASN:129    0
hbond:ASN:129    0
Name: 9, dtype: object

>  <hydroph_interaction:ASN:129>  (10) 
hydroph_interaction:ASN:129    0
hydroph_interaction:ASN:129    0
Name: 9, dtype: object

>  <halogenbond:ASN:129>  (10) 
halogenbond:ASN:129    0
halogenbond:ASN:129    0
Name: 9, dtype: object

>  <hbond:GLY:130>  (10) 
hbond:GLY:130    0
hbond:GLY:130    0
Name: 9, dtype: object

>  <hydroph_interaction:LEU:131>  (10) 
hydroph_interaction:LEU:131    0
hydroph_interaction:LEU:131    0
Name: 9, dtype: object

>  <hbond:LEU:131>  (10) 
hbond:LEU:131    0
hbond:LEU:131    0
Name: 9, dtype: object

>  <halogenbond:LEU:131>  (10) 
halogenbond:LEU:131    0
halogenbond:LEU:131    0
Name: 9, dtype: object

>  <hydroph_interaction:VAL:132>  (10) 
hydroph_interaction:VAL:132    0
hydroph_interaction:VAL:132    0
Name: 9, dtype: object

>  <hbond:VAL:132>  (10) 
hbond:VAL:132    0
hbond:VAL:132    0
Name: 9, dtype: object

>  <hbond:GLY:133>  (10) 
hbond:GLY:133    0
hbond:GLY:133    0
Name: 9, dtype: object

>  <halogenbond:GLY:133>  (10) 
halogenbond:GLY:133    0
halogenbond:GLY:133    0
Name: 9, dtype: object

>  <hydroph_interaction:PHE:134>  (10) 
hydroph_interaction:PHE:134    0
hydroph_interaction:PHE:134    0
Name: 9, dtype: object

>  <hbond:PHE:134>  (10) 
hbond:PHE:134    0
hbond:PHE:134    0
Name: 9, dtype: object

>  <pistack:PHE:134>  (10) 
pistack:PHE:134    0
pistack:PHE:134    0
Name: 9, dtype: object

>  <pication:PHE:134>  (10) 
pication:PHE:134    0
pication:PHE:134    0
Name: 9, dtype: object

>  <hydroph_interaction:ALA:135>  (10) 
hydroph_interaction:ALA:135    0
hydroph_interaction:ALA:135    0
Name: 9, dtype: object

>  <hbond:ALA:135>  (10) 
hbond:ALA:135    0
hbond:ALA:135    0
Name: 9, dtype: object

$$$$
PV_002842397385
     RDKit          3D

 31 32  0  0  0  0  0  0  0  0999 V2000
   12.0660   15.2880   21.9000 C   0  0  0  0  0  0  0  0  0  0  0  0
   11.4580   14.2590   22.8080 C   0  0  0  0  0  0  0  0  0  0  0  0
   11.9790   14.1640   24.1760 C   0  0  0  0  0  0  0  0  0  0  0  0
   10.4810   13.4740   22.3400 C   0  0  0  0  0  0  0  0  0  0  0  0
    9.8300   12.4560   23.0320 C   0  0  0  0  0  0  0  0  0  0  0  0
   10.1780   11.1750   22.7220 C   0  0  0  0  0  0  0  0  0  0  0  0
    9.5430   10.0390   23.3840 C   0  0  0  0  0  0  0  0  0  0  0  0
   10.1030    8.7630   22.8480 C   0  0  0  0  0  0  0  0  0  0  0  0
    8.5650   10.2240   24.3580 C   0  0  0  0  0  0  0  0  0  0  0  0
    8.2370   11.5540   24.6540 C   0  0  0  0  0  0  0  0  0  0  0  0
    8.8570   12.6400   24.0010 C   0  0  0  0  0  0  0  0  0  0  0  0
    8.2460   13.9220   24.5710 C   0  0  0  0  0  0  0  0  0  0  0  0
    7.0320   13.5020   25.3830 C   0  0  0  0  0  0  0  0  0  0  0  0
    7.2600   12.0440   25.6210 C   0  0  0  0  0  0  0  0  0  0  0  0
    6.7290   11.3720   26.4900 O   0  0  0  0  0  0  0  0  0  0  0  0
   11.3480   15.5650   21.1210 H   0  0  0  0  0  0  0  0  0  0  0  0
   12.9600   14.8910   21.4160 H   0  0  0  0  0  0  0  0  0  0  0  0
   12.3550   16.1790   22.4720 H   0  0  0  0  0  0  0  0  0  0  0  0
   12.7700   13.4320   24.3360 H   0  0  0  0  0  0  0  0  0  0  0  0
   11.2530   13.9860   24.9740 H   0  0  0  0  0  0  0  0  0  0  0  0
   12.4170   15.1400   24.4230 H   0  0  0  0  0  0  0  0  0  0  0  0
   10.1390   13.6050   21.3180 H   0  0  0  0  0  0  0  0  0  0  0  0
   10.9250   11.0040   21.9760 H   0  0  0  0  0  0  0  0  0  0  0  0
   11.0820    8.9500   22.4130 H   0  0  0  0  0  0  0  0  0  0  0  0
    9.4310    8.3640   22.0840 H   0  0  0  0  0  0  0  0  0  0  0  0
   10.2200    8.0450   23.6280 H   0  0  0  0  0  0  0  0  0  0  0  0
    8.0770    9.4040   24.8630 H   0  0  0  0  0  0  0  0  0  0  0  0
    7.9540   14.6090   23.7710 H   0  0  0  0  0  0  0  0  0  0  0  0
    8.9770   14.4160   25.2300 H   0  0  0  0  0  0  0  0  0  0  0  0
    6.9830   14.0370   26.3350 H   0  0  0  0  0  0  0  0  0  0  0  0
    6.1020   13.6460   24.8180 H   0  0  0  0  0  0  0  0  0  0  0  0
  1  2  1  0
  2  3  1  0
  2  4  2  3
  4  5  1  0
  5  6  2  0
  6  7  1  0
  7  8  1  0
  7  9  2  0
  9 10  1  0
 10 11  2  0
 11 12  1  0
 12 13  1  0
 13 14  1  0
 14 15  2  0
 11  5  1  0
 14 10  1  0
  1 16  1  0
  1 17  1  0
  1 18  1  0
  3 19  1  0
  3 20  1  0
  3 21  1  0
  4 22  1  0
  6 23  1  0
  8 24  1  0
  8 25  1  0
  8 26  1  0
  9 27  1  0
 12 28  1  0
 12 29  1  0
 13 30  1  0
 13 31  1  0
A    1
 C1 
A    2
 C2 
A    3
 C3 
A    4
 C4 
A    5
 C5 
A    6
 C6 
A    7
 C7 
A    8
 C8 
A    9
 C9 
A   10
 C10
A   11
 C11
A   12
 C12
A   13
 C13
A   14
 C14
A   15
 O1 
A   16
 H1 
A   17
 H2 
A   18
 H3 
A   19
 H4 
A   20
 H5 
A   21
 H6 
A   22
 H7 
A   23
 H8 
A   24
 H9 
A   25
 H10
A   26
 H11
A   27
 H12
A   28
 H13
A   29
 H14
A   30
 H15
A   31
 H16
M  END
>  <ref_pdb>  (11) 
x0310_0A

>  <ref_mols>  (11) 
x0554_0A,x0739_0A

>  <original SMILES>  (11) 
CC(C)=Cc1cc(C)cc2c1CCC2=O

>  <rationale>  (11) 
info hydroph_interaction:P107+V124; 

>  <intxn_cluster>  (11) 
103

>  <intxn_cluster_rank>  (11) 
29

>  <N_interactions>  (11) 
3

>  <∆∆G>  (11) 
-11.748821

>  <$/mg>  (11) 
163.0

>  <comRMSD>  (11) 
0.719567

>  <N_rotatable_bonds>  (11) 
4

>  <hbond:SER:7>  (11) 
hbond:SER:7    0
hbond:SER:7    0
Name: 10, dtype: object

>  <halogenbond:SER:7>  (11) 
halogenbond:SER:7    0
halogenbond:SER:7    0
Name: 10, dtype: object

>  <hbond:GLY:8>  (11) 
hbond:GLY:8    0
hbond:GLY:8    0
Name: 10, dtype: object

>  <hydroph_interaction:ASN:19>  (11) 
hydroph_interaction:ASN:19    0
hydroph_interaction:ASN:19    0
Name: 10, dtype: object

>  <hbond:ASN:19>  (11) 
hbond:ASN:19    0
hbond:ASN:19    0
Name: 10, dtype: object

>  <halogenbond:ASN:19>  (11) 
halogenbond:ASN:19    0
halogenbond:ASN:19    0
Name: 10, dtype: object

>  <hbond:ARG:20>  (11) 
hbond:ARG:20    0
hbond:ARG:20    0
Name: 10, dtype: object

>  <hydroph_interaction:ARG:20>  (11) 
hydroph_interaction:ARG:20    0
hydroph_interaction:ARG:20    0
Name: 10, dtype: object

>  <saltbridge:ARG:20>  (11) 
saltbridge:ARG:20    0
saltbridge:ARG:20    0
Name: 10, dtype: object

>  <halogenbond:ARG:20>  (11) 
halogenbond:ARG:20    0
halogenbond:ARG:20    0
Name: 10, dtype: object

>  <pication:ARG:20>  (11) 
pication:ARG:20    0
pication:ARG:20    0
Name: 10, dtype: object

>  <hbond:HIS:21>  (11) 
hbond:HIS:21    0
hbond:HIS:21    0
Name: 10, dtype: object

>  <hydroph_interaction:HIS:21>  (11) 
hydroph_interaction:HIS:21    0
hydroph_interaction:HIS:21    0
Name: 10, dtype: object

>  <saltbridge:HIS:21>  (11) 
saltbridge:HIS:21    0
saltbridge:HIS:21    0
Name: 10, dtype: object

>  <pistack:HIS:21>  (11) 
pistack:HIS:21    0
pistack:HIS:21    0
Name: 10, dtype: object

>  <pication:HIS:21>  (11) 
pication:HIS:21    0
pication:HIS:21    0
Name: 10, dtype: object

>  <halogenbond:HIS:21>  (11) 
halogenbond:HIS:21    0
halogenbond:HIS:21    0
Name: 10, dtype: object

>  <hydroph_interaction:LEU:22>  (11) 
hydroph_interaction:LEU:22    0
hydroph_interaction:LEU:22    0
Name: 10, dtype: object

>  <hbond:LEU:22>  (11) 
hbond:LEU:22    0
hbond:LEU:22    0
Name: 10, dtype: object

>  <hydroph_interaction:TRP:28>  (11) 
hydroph_interaction:TRP:28    0
hydroph_interaction:TRP:28    0
Name: 10, dtype: object

>  <hbond:SER:36>  (11) 
hbond:SER:36    0
hbond:SER:36    0
Name: 10, dtype: object

>  <halogenbond:SER:36>  (11) 
halogenbond:SER:36    0
halogenbond:SER:36    0
Name: 10, dtype: object

>  <hbond:ARG:38>  (11) 
hbond:ARG:38    0
hbond:ARG:38    0
Name: 10, dtype: object

>  <halogenbond:ARG:38>  (11) 
halogenbond:ARG:38    0
halogenbond:ARG:38    0
Name: 10, dtype: object

>  <hbond:ASP:39>  (11) 
hbond:ASP:39    0
hbond:ASP:39    0
Name: 10, dtype: object

>  <saltbridge:ASP:39>  (11) 
saltbridge:ASP:39    0
saltbridge:ASP:39    0
Name: 10, dtype: object

>  <hydroph_interaction:ASP:39>  (11) 
hydroph_interaction:ASP:39    0
hydroph_interaction:ASP:39    0
Name: 10, dtype: object

>  <halogenbond:ASP:39>  (11) 
halogenbond:ASP:39    0
halogenbond:ASP:39    0
Name: 10, dtype: object

>  <hydroph_interaction:LEU:40>  (11) 
hydroph_interaction:LEU:40    0
hydroph_interaction:LEU:40    0
Name: 10, dtype: object

>  <hydroph_interaction:TYR:63>  (11) 
hydroph_interaction:TYR:63    0
hydroph_interaction:TYR:63    0
Name: 10, dtype: object

>  <pistack:TYR:63>  (11) 
pistack:TYR:63    0
pistack:TYR:63    0
Name: 10, dtype: object

>  <hbond:TYR:63>  (11) 
hbond:TYR:63    0
hbond:TYR:63    0
Name: 10, dtype: object

>  <hbond:TYR:64>  (11) 
hbond:TYR:64    0
hbond:TYR:64    0
Name: 10, dtype: object

>  <halogenbond:TYR:64>  (11) 
halogenbond:TYR:64    0
halogenbond:TYR:64    0
Name: 10, dtype: object

>  <hydroph_interaction:TYR:64>  (11) 
hydroph_interaction:TYR:64    0
hydroph_interaction:TYR:64    0
Name: 10, dtype: object

>  <hbond:CYS:65>  (11) 
hbond:CYS:65    0
hbond:CYS:65    0
Name: 10, dtype: object

>  <halogenbond:CYS:65>  (11) 
halogenbond:CYS:65    0
halogenbond:CYS:65    0
Name: 10, dtype: object

>  <hbond:SER:66>  (11) 
hbond:SER:66    0
hbond:SER:66    0
Name: 10, dtype: object

>  <hbond:SER:67>  (11) 
hbond:SER:67    0
hbond:SER:67    0
Name: 10, dtype: object

>  <halogenbond:SER:67>  (11) 
halogenbond:SER:67    0
halogenbond:SER:67    0
Name: 10, dtype: object

>  <hydroph_interaction:ARG:68>  (11) 
hydroph_interaction:ARG:68    0
hydroph_interaction:ARG:68    0
Name: 10, dtype: object

>  <hbond:ARG:68>  (11) 
hbond:ARG:68    0
hbond:ARG:68    0
Name: 10, dtype: object

>  <saltbridge:ARG:68>  (11) 
saltbridge:ARG:68    0
saltbridge:ARG:68    0
Name: 10, dtype: object

>  <pication:ARG:68>  (11) 
pication:ARG:68    0
pication:ARG:68    0
Name: 10, dtype: object

>  <hydroph_interaction:TYR:72>  (11) 
hydroph_interaction:TYR:72    0
hydroph_interaction:TYR:72    0
Name: 10, dtype: object

>  <hydroph_interaction:VAL:74>  (11) 
hydroph_interaction:VAL:74    0
hydroph_interaction:VAL:74    0
Name: 10, dtype: object

>  <hydroph_interaction:PHE:76>  (11) 
hydroph_interaction:PHE:76    0
hydroph_interaction:PHE:76    0
Name: 10, dtype: object

>  <hbond:SER:77>  (11) 
hbond:SER:77    0
hbond:SER:77    0
Name: 10, dtype: object

>  <hbond:SER:80>  (11) 
hbond:SER:80    0
hbond:SER:80    0
Name: 10, dtype: object

>  <hbond:LEU:81>  (11) 
hbond:LEU:81    0
hbond:LEU:81    0
Name: 10, dtype: object

>  <halogenbond:LEU:81>  (11) 
halogenbond:LEU:81    0
halogenbond:LEU:81    0
Name: 10, dtype: object

>  <hydroph_interaction:LEU:81>  (11) 
hydroph_interaction:LEU:81    0
hydroph_interaction:LEU:81    0
Name: 10, dtype: object

>  <hydroph_interaction:ILE:82>  (11) 
hydroph_interaction:ILE:82    0
hydroph_interaction:ILE:82    0
Name: 10, dtype: object

>  <hbond:ILE:82>  (11) 
hbond:ILE:82    0
hbond:ILE:82    0
Name: 10, dtype: object

>  <hydroph_interaction:PHE:83>  (11) 
hydroph_interaction:PHE:83    0
hydroph_interaction:PHE:83    0
Name: 10, dtype: object

>  <hbond:PHE:83>  (11) 
hbond:PHE:83    0
hbond:PHE:83    0
Name: 10, dtype: object

>  <halogenbond:PHE:83>  (11) 
halogenbond:PHE:83    0
halogenbond:PHE:83    0
Name: 10, dtype: object

>  <pistack:PHE:83>  (11) 
pistack:PHE:83    0
pistack:PHE:83    0
Name: 10, dtype: object

>  <hydroph_interaction:VAL:84>  (11) 
hydroph_interaction:VAL:84    0
hydroph_interaction:VAL:84    0
Name: 10, dtype: object

>  <hbond:VAL:84>  (11) 
hbond:VAL:84    0
hbond:VAL:84    0
Name: 10, dtype: object

>  <halogenbond:VAL:84>  (11) 
halogenbond:VAL:84    0
halogenbond:VAL:84    0
Name: 10, dtype: object

>  <hydroph_interaction:GLU:85>  (11) 
hydroph_interaction:GLU:85    0
hydroph_interaction:GLU:85    0
Name: 10, dtype: object

>  <hbond:GLU:85>  (11) 
hbond:GLU:85    0
hbond:GLU:85    0
Name: 10, dtype: object

>  <saltbridge:GLU:85>  (11) 
saltbridge:GLU:85    0
saltbridge:GLU:85    0
Name: 10, dtype: object

>  <halogenbond:GLU:85>  (11) 
halogenbond:GLU:85    0
halogenbond:GLU:85    0
Name: 10, dtype: object

>  <hbond:ALA:86>  (11) 
hbond:ALA:86    0
hbond:ALA:86    0
Name: 10, dtype: object

>  <halogenbond:ALA:86>  (11) 
halogenbond:ALA:86    0
halogenbond:ALA:86    0
Name: 10, dtype: object

>  <hydroph_interaction:ALA:86>  (11) 
hydroph_interaction:ALA:86    0
hydroph_interaction:ALA:86    0
Name: 10, dtype: object

>  <hbond:SER:87>  (11) 
hbond:SER:87    0
hbond:SER:87    0
Name: 10, dtype: object

>  <halogenbond:SER:87>  (11) 
halogenbond:SER:87    0
halogenbond:SER:87    0
Name: 10, dtype: object

>  <hbond:GLU:88>  (11) 
hbond:GLU:88    0
hbond:GLU:88    0
Name: 10, dtype: object

>  <hydroph_interaction:GLU:88>  (11) 
hydroph_interaction:GLU:88    0
hydroph_interaction:GLU:88    0
Name: 10, dtype: object

>  <halogenbond:GLU:88>  (11) 
halogenbond:GLU:88    0
halogenbond:GLU:88    0
Name: 10, dtype: object

>  <saltbridge:GLU:88>  (11) 
saltbridge:GLU:88    0
saltbridge:GLU:88    0
Name: 10, dtype: object

>  <hydroph_interaction:TYR:89>  (11) 
hydroph_interaction:TYR:89    0
hydroph_interaction:TYR:89    0
Name: 10, dtype: object

>  <pistack:TYR:89>  (11) 
pistack:TYR:89    0
pistack:TYR:89    0
Name: 10, dtype: object

>  <hbond:TYR:89>  (11) 
hbond:TYR:89    0
hbond:TYR:89    0
Name: 10, dtype: object

>  <halogenbond:TYR:89>  (11) 
halogenbond:TYR:89    0
halogenbond:TYR:89    0
Name: 10, dtype: object

>  <hbond:TYR:90>  (11) 
hbond:TYR:90    0
hbond:TYR:90    0
Name: 10, dtype: object

>  <hydroph_interaction:TYR:90>  (11) 
hydroph_interaction:TYR:90    0
hydroph_interaction:TYR:90    0
Name: 10, dtype: object

>  <pistack:TYR:90>  (11) 
pistack:TYR:90    0
pistack:TYR:90    0
Name: 10, dtype: object

>  <halogenbond:TYR:90>  (11) 
halogenbond:TYR:90    0
halogenbond:TYR:90    0
Name: 10, dtype: object

>  <pication:TYR:90>  (11) 
pication:TYR:90    0
pication:TYR:90    0
Name: 10, dtype: object

>  <hydroph_interaction:PRO:91>  (11) 
hydroph_interaction:PRO:91    0
hydroph_interaction:PRO:91    0
Name: 10, dtype: object

>  <halogenbond:PRO:91>  (11) 
halogenbond:PRO:91    0
halogenbond:PRO:91    0
Name: 10, dtype: object

>  <hbond:PRO:91>  (11) 
hbond:PRO:91    0
hbond:PRO:91    0
Name: 10, dtype: object

>  <hydroph_interaction:ALA:92>  (11) 
hydroph_interaction:ALA:92    0
hydroph_interaction:ALA:92    0
Name: 10, dtype: object

>  <hbond:ARG:93>  (11) 
hbond:ARG:93    0
hbond:ARG:93    0
Name: 10, dtype: object

>  <pication:ARG:93>  (11) 
pication:ARG:93    0
pication:ARG:93    0
Name: 10, dtype: object

>  <saltbridge:ARG:93>  (11) 
saltbridge:ARG:93    0
saltbridge:ARG:93    0
Name: 10, dtype: object

>  <hydroph_interaction:ARG:93>  (11) 
hydroph_interaction:ARG:93    0
hydroph_interaction:ARG:93    0
Name: 10, dtype: object

>  <halogenbond:ARG:93>  (11) 
halogenbond:ARG:93    0
halogenbond:ARG:93    0
Name: 10, dtype: object

>  <hydroph_interaction:TYR:94>  (11) 
hydroph_interaction:TYR:94    0
hydroph_interaction:TYR:94    0
Name: 10, dtype: object

>  <hbond:TYR:94>  (11) 
hbond:TYR:94    0
hbond:TYR:94    0
Name: 10, dtype: object

>  <halogenbond:GLN:95>  (11) 
halogenbond:GLN:95    0
halogenbond:GLN:95    0
Name: 10, dtype: object

>  <hbond:GLN:95>  (11) 
hbond:GLN:95    0
hbond:GLN:95    0
Name: 10, dtype: object

>  <hydroph_interaction:GLN:95>  (11) 
hydroph_interaction:GLN:95    0
hydroph_interaction:GLN:95    0
Name: 10, dtype: object

>  <hbond:SER:96>  (11) 
hbond:SER:96    0
hbond:SER:96    0
Name: 10, dtype: object

>  <hydroph_interaction:LEU:98>  (11) 
hydroph_interaction:LEU:98    0
hydroph_interaction:LEU:98    0
Name: 10, dtype: object

>  <hbond:LEU:98>  (11) 
hbond:LEU:98    0
hbond:LEU:98    0
Name: 10, dtype: object

>  <hbond:MET:99>  (11) 
hbond:MET:99    0
hbond:MET:99    0
Name: 10, dtype: object

>  <hydroph_interaction:MET:99>  (11) 
hydroph_interaction:MET:99    0
hydroph_interaction:MET:99    0
Name: 10, dtype: object

>  <halogenbond:MET:99>  (11) 
halogenbond:MET:99    0
halogenbond:MET:99    0
Name: 10, dtype: object

>  <hydroph_interaction:LEU:100>  (11) 
hydroph_interaction:LEU:100    0
hydroph_interaction:LEU:100    0
Name: 10, dtype: object

>  <hbond:LEU:100>  (11) 
hbond:LEU:100    0
hbond:LEU:100    0
Name: 10, dtype: object

>  <hbond:ALA:101>  (11) 
hbond:ALA:101    0
hbond:ALA:101    0
Name: 10, dtype: object

>  <hydroph_interaction:ALA:101>  (11) 
hydroph_interaction:ALA:101    0
hydroph_interaction:ALA:101    0
Name: 10, dtype: object

>  <hydroph_interaction:VAL:102>  (11) 
hydroph_interaction:VAL:102    0
hydroph_interaction:VAL:102    0
Name: 10, dtype: object

>  <hbond:VAL:102>  (11) 
hbond:VAL:102    0
hbond:VAL:102    0
Name: 10, dtype: object

>  <hbond:GLY:103>  (11) 
hbond:GLY:103    0
hbond:GLY:103    0
Name: 10, dtype: object

>  <halogenbond:GLY:103>  (11) 
halogenbond:GLY:103    0
halogenbond:GLY:103    0
Name: 10, dtype: object

>  <hydroph_interaction:HIS:104>  (11) 
hydroph_interaction:HIS:104    0
hydroph_interaction:HIS:104    0
Name: 10, dtype: object

>  <hbond:HIS:104>  (11) 
hbond:HIS:104    0
hbond:HIS:104    0
Name: 10, dtype: object

>  <saltbridge:HIS:104>  (11) 
saltbridge:HIS:104    0
saltbridge:HIS:104    0
Name: 10, dtype: object

>  <pication:HIS:104>  (11) 
pication:HIS:104    0
pication:HIS:104    0
Name: 10, dtype: object

>  <pistack:HIS:104>  (11) 
pistack:HIS:104    0
pistack:HIS:104    0
Name: 10, dtype: object

>  <halogenbond:HIS:104>  (11) 
halogenbond:HIS:104    0
halogenbond:HIS:104    0
Name: 10, dtype: object

>  <hbond:SER:105>  (11) 
hbond:SER:105    0
hbond:SER:105    0
Name: 10, dtype: object

>  <halogenbond:SER:105>  (11) 
halogenbond:SER:105    0
halogenbond:SER:105    0
Name: 10, dtype: object

>  <hbond:GLU:106>  (11) 
hbond:GLU:106    0
hbond:GLU:106    0
Name: 10, dtype: object

>  <hydroph_interaction:GLU:106>  (11) 
hydroph_interaction:GLU:106    0
hydroph_interaction:GLU:106    0
Name: 10, dtype: object

>  <saltbridge:GLU:106>  (11) 
saltbridge:GLU:106    0
saltbridge:GLU:106    0
Name: 10, dtype: object

>  <halogenbond:GLU:106>  (11) 
halogenbond:GLU:106    0
halogenbond:GLU:106    0
Name: 10, dtype: object

>  <hydroph_interaction:PRO:107>  (11) 
hydroph_interaction:PRO:107    2
hydroph_interaction:PRO:107    2
Name: 10, dtype: object

>  <hbond:PRO:107>  (11) 
hbond:PRO:107    0
hbond:PRO:107    0
Name: 10, dtype: object

>  <halogenbond:PRO:107>  (11) 
halogenbond:PRO:107    0
halogenbond:PRO:107    0
Name: 10, dtype: object

>  <hbond:GLY:108>  (11) 
hbond:GLY:108    0
hbond:GLY:108    0
Name: 10, dtype: object

>  <halogenbond:GLY:108>  (11) 
halogenbond:GLY:108    0
halogenbond:GLY:108    0
Name: 10, dtype: object

>  <hbond:ASP:109>  (11) 
hbond:ASP:109    0
hbond:ASP:109    0
Name: 10, dtype: object

>  <hydroph_interaction:ASP:109>  (11) 
hydroph_interaction:ASP:109    0
hydroph_interaction:ASP:109    0
Name: 10, dtype: object

>  <saltbridge:ASP:109>  (11) 
saltbridge:ASP:109    0
saltbridge:ASP:109    0
Name: 10, dtype: object

>  <hbond:CYS:110>  (11) 
hbond:CYS:110    0
hbond:CYS:110    0
Name: 10, dtype: object

>  <halogenbond:CYS:110>  (11) 
halogenbond:CYS:110    0
halogenbond:CYS:110    0
Name: 10, dtype: object

>  <hbond:GLY:111>  (11) 
hbond:GLY:111    0
hbond:GLY:111    0
Name: 10, dtype: object

>  <hbond:GLY:112>  (11) 
hbond:GLY:112    0
hbond:GLY:112    0
Name: 10, dtype: object

>  <hbond:ILE:113>  (11) 
hbond:ILE:113    0
hbond:ILE:113    0
Name: 10, dtype: object

>  <hydroph_interaction:LEU:114>  (11) 
hydroph_interaction:LEU:114    0
hydroph_interaction:LEU:114    0
Name: 10, dtype: object

>  <hbond:LEU:114>  (11) 
hbond:LEU:114    0
hbond:LEU:114    0
Name: 10, dtype: object

>  <hydroph_interaction:ILE:123>  (11) 
hydroph_interaction:ILE:123    0
hydroph_interaction:ILE:123    0
Name: 10, dtype: object

>  <hbond:ILE:123>  (11) 
hbond:ILE:123    0
hbond:ILE:123    0
Name: 10, dtype: object

>  <hydroph_interaction:VAL:124>  (11) 
hydroph_interaction:VAL:124    1
hydroph_interaction:VAL:124    1
Name: 10, dtype: object

>  <hbond:VAL:124>  (11) 
hbond:VAL:124    0
hbond:VAL:124    0
Name: 10, dtype: object

>  <halogenbond:VAL:124>  (11) 
halogenbond:VAL:124    0
halogenbond:VAL:124    0
Name: 10, dtype: object

>  <hbond:SER:125>  (11) 
hbond:SER:125    0
hbond:SER:125    0
Name: 10, dtype: object

>  <halogenbond:SER:125>  (11) 
halogenbond:SER:125    0
halogenbond:SER:125    0
Name: 10, dtype: object

>  <hydroph_interaction:THR:126>  (11) 
hydroph_interaction:THR:126    0
hydroph_interaction:THR:126    0
Name: 10, dtype: object

>  <hbond:THR:126>  (11) 
hbond:THR:126    0
hbond:THR:126    0
Name: 10, dtype: object

>  <halogenbond:THR:126>  (11) 
halogenbond:THR:126    0
halogenbond:THR:126    0
Name: 10, dtype: object

>  <hbond:GLY:127>  (11) 
hbond:GLY:127    0
hbond:GLY:127    0
Name: 10, dtype: object

>  <halogenbond:GLY:127>  (11) 
halogenbond:GLY:127    0
halogenbond:GLY:127    0
Name: 10, dtype: object

>  <hydroph_interaction:GLY:127>  (11) 
hydroph_interaction:GLY:127    0
hydroph_interaction:GLY:127    0
Name: 10, dtype: object

>  <hbond:GLY:128>  (11) 
hbond:GLY:128    0
hbond:GLY:128    0
Name: 10, dtype: object

>  <halogenbond:GLY:128>  (11) 
halogenbond:GLY:128    0
halogenbond:GLY:128    0
Name: 10, dtype: object

>  <hydroph_interaction:GLY:128>  (11) 
hydroph_interaction:GLY:128    0
hydroph_interaction:GLY:128    0
Name: 10, dtype: object

>  <hbond:ASN:129>  (11) 
hbond:ASN:129    0
hbond:ASN:129    0
Name: 10, dtype: object

>  <hydroph_interaction:ASN:129>  (11) 
hydroph_interaction:ASN:129    0
hydroph_interaction:ASN:129    0
Name: 10, dtype: object

>  <halogenbond:ASN:129>  (11) 
halogenbond:ASN:129    0
halogenbond:ASN:129    0
Name: 10, dtype: object

>  <hbond:GLY:130>  (11) 
hbond:GLY:130    0
hbond:GLY:130    0
Name: 10, dtype: object

>  <hydroph_interaction:LEU:131>  (11) 
hydroph_interaction:LEU:131    0
hydroph_interaction:LEU:131    0
Name: 10, dtype: object

>  <hbond:LEU:131>  (11) 
hbond:LEU:131    0
hbond:LEU:131    0
Name: 10, dtype: object

>  <halogenbond:LEU:131>  (11) 
halogenbond:LEU:131    0
halogenbond:LEU:131    0
Name: 10, dtype: object

>  <hydroph_interaction:VAL:132>  (11) 
hydroph_interaction:VAL:132    0
hydroph_interaction:VAL:132    0
Name: 10, dtype: object

>  <hbond:VAL:132>  (11) 
hbond:VAL:132    0
hbond:VAL:132    0
Name: 10, dtype: object

>  <hbond:GLY:133>  (11) 
hbond:GLY:133    0
hbond:GLY:133    0
Name: 10, dtype: object

>  <halogenbond:GLY:133>  (11) 
halogenbond:GLY:133    0
halogenbond:GLY:133    0
Name: 10, dtype: object

>  <hydroph_interaction:PHE:134>  (11) 
hydroph_interaction:PHE:134    0
hydroph_interaction:PHE:134    0
Name: 10, dtype: object

>  <hbond:PHE:134>  (11) 
hbond:PHE:134    0
hbond:PHE:134    0
Name: 10, dtype: object

>  <pistack:PHE:134>  (11) 
pistack:PHE:134    0
pistack:PHE:134    0
Name: 10, dtype: object

>  <pication:PHE:134>  (11) 
pication:PHE:134    0
pication:PHE:134    0
Name: 10, dtype: object

>  <hydroph_interaction:ALA:135>  (11) 
hydroph_interaction:ALA:135    0
hydroph_interaction:ALA:135    0
Name: 10, dtype: object

>  <hbond:ALA:135>  (11) 
hbond:ALA:135    0
hbond:ALA:135    0
Name: 10, dtype: object

$$$$
PV_002966485530
     RDKit          3D

 29 30  0  0  0  0  0  0  0  0999 V2000
   12.0520   15.2670   21.8680 C   0  0  0  0  0  0  0  0  0  0  0  0
   11.4560   14.2600   22.8070 C   0  0  0  0  0  0  0  0  0  0  0  0
   12.0160   14.1700   24.1690 C   0  0  0  0  0  0  0  0  0  0  0  0
   10.4560   13.4890   22.3730 C   0  0  0  0  0  0  0  0  0  0  0  0
    9.8040   12.4980   23.0590 C   0  0  0  0  0  0  0  0  0  0  0  0
   10.1620   11.1170   22.7420 C   0  0  0  0  0  0  0  0  0  0  0  0
    9.5990   10.0430   23.3290 C   0  0  0  0  0  0  0  0  0  0  0  0
   10.1180    8.7520   22.8410 C   0  0  0  0  0  0  0  0  0  0  0  0
    8.6100   10.2120   24.3070 C   0  0  0  0  0  0  0  0  0  0  0  0
    8.2440   11.5260   24.6380 C   0  0  0  0  0  0  0  0  0  0  0  0
    8.8280   12.6710   24.0270 C   0  0  0  0  0  0  0  0  0  0  0  0
    8.3350   13.8660   24.4830 O   0  0  0  0  0  0  0  0  0  0  0  0
    7.1370   13.5070   25.2180 C   0  0  0  0  0  0  0  0  0  0  0  0
    7.2900   12.0540   25.5740 C   0  0  0  0  0  0  0  0  0  0  0  0
    6.7380   11.4380   26.4660 O   0  0  0  0  0  0  0  0  0  0  0  0
   12.3320   16.1740   22.4130 H   0  0  0  0  0  0  0  0  0  0  0  0
   12.9380   14.8550   21.3830 H   0  0  0  0  0  0  0  0  0  0  0  0
   11.3160   15.5300   21.1070 H   0  0  0  0  0  0  0  0  0  0  0  0
   12.7750   13.4070   24.3270 H   0  0  0  0  0  0  0  0  0  0  0  0
   11.3090   14.0510   24.9810 H   0  0  0  0  0  0  0  0  0  0  0  0
   12.5390   15.1110   24.3750 H   0  0  0  0  0  0  0  0  0  0  0  0
   10.0960   13.6260   21.3520 H   0  0  0  0  0  0  0  0  0  0  0  0
   10.9270   11.0280   21.9830 H   0  0  0  0  0  0  0  0  0  0  0  0
   11.1060    8.9150   22.4200 H   0  0  0  0  0  0  0  0  0  0  0  0
   10.2050    8.0490   23.6470 H   0  0  0  0  0  0  0  0  0  0  0  0
    9.4770    8.3440   22.0550 H   0  0  0  0  0  0  0  0  0  0  0  0
    8.1370    9.3740   24.7960 H   0  0  0  0  0  0  0  0  0  0  0  0
    6.2680   13.6520   24.5690 H   0  0  0  0  0  0  0  0  0  0  0  0
    7.0760   14.1200   26.1210 H   0  0  0  0  0  0  0  0  0  0  0  0
  1  2  1  0
  2  3  1  0
  2  4  2  3
  4  5  1  0
  5  6  2  0
  6  7  1  0
  7  8  1  0
  7  9  2  0
  9 10  1  0
 10 11  2  0
 11 12  1  0
 12 13  1  0
 13 14  1  0
 14 15  2  0
 11  5  1  0
 14 10  1  0
  1 16  1  0
  1 17  1  0
  1 18  1  0
  3 19  1  0
  3 20  1  0
  3 21  1  0
  4 22  1  0
  6 23  1  0
  8 24  1  0
  8 25  1  0
  8 26  1  0
  9 27  1  0
 13 28  1  0
 13 29  1  0
A    1
 C1 
A    2
 C2 
A    3
 C3 
A    4
 C4 
A    5
 C5 
A    6
 C6 
A    7
 C7 
A    8
 C8 
A    9
 C9 
A   10
 C10
A   11
 C11
A   12
 O1 
A   13
 C12
A   14
 C13
A   15
 O2 
A   16
 H1 
A   17
 H2 
A   18
 H3 
A   19
 H4 
A   20
 H5 
A   21
 H6 
A   22
 H7 
A   23
 H8 
A   24
 H9 
A   25
 H10
A   26
 H11
A   27
 H12
A   28
 H13
A   29
 H14
M  END
>  <ref_pdb>  (12) 
x0310_0A

>  <ref_mols>  (12) 
x0554_0A,x0739_0A

>  <original SMILES>  (12) 
CC(C)=Cc1cc(C)cc2c1OCC2=O

>  <rationale>  (12) 
info hydroph_interaction:P107+V124; 

>  <intxn_cluster>  (12) 
103

>  <intxn_cluster_rank>  (12) 
37

>  <N_interactions>  (12) 
3

>  <∆∆G>  (12) 
-11.497826

>  <$/mg>  (12) 
163.0

>  <comRMSD>  (12) 
0.77818

>  <N_rotatable_bonds>  (12) 
4

>  <hbond:SER:7>  (12) 
hbond:SER:7    0
hbond:SER:7    0
Name: 11, dtype: object

>  <halogenbond:SER:7>  (12) 
halogenbond:SER:7    0
halogenbond:SER:7    0
Name: 11, dtype: object

>  <hbond:GLY:8>  (12) 
hbond:GLY:8    0
hbond:GLY:8    0
Name: 11, dtype: object

>  <hydroph_interaction:ASN:19>  (12) 
hydroph_interaction:ASN:19    0
hydroph_interaction:ASN:19    0
Name: 11, dtype: object

>  <hbond:ASN:19>  (12) 
hbond:ASN:19    0
hbond:ASN:19    0
Name: 11, dtype: object

>  <halogenbond:ASN:19>  (12) 
halogenbond:ASN:19    0
halogenbond:ASN:19    0
Name: 11, dtype: object

>  <hbond:ARG:20>  (12) 
hbond:ARG:20    0
hbond:ARG:20    0
Name: 11, dtype: object

>  <hydroph_interaction:ARG:20>  (12) 
hydroph_interaction:ARG:20    0
hydroph_interaction:ARG:20    0
Name: 11, dtype: object

>  <saltbridge:ARG:20>  (12) 
saltbridge:ARG:20    0
saltbridge:ARG:20    0
Name: 11, dtype: object

>  <halogenbond:ARG:20>  (12) 
halogenbond:ARG:20    0
halogenbond:ARG:20    0
Name: 11, dtype: object

>  <pication:ARG:20>  (12) 
pication:ARG:20    0
pication:ARG:20    0
Name: 11, dtype: object

>  <hbond:HIS:21>  (12) 
hbond:HIS:21    0
hbond:HIS:21    0
Name: 11, dtype: object

>  <hydroph_interaction:HIS:21>  (12) 
hydroph_interaction:HIS:21    0
hydroph_interaction:HIS:21    0
Name: 11, dtype: object

>  <saltbridge:HIS:21>  (12) 
saltbridge:HIS:21    0
saltbridge:HIS:21    0
Name: 11, dtype: object

>  <pistack:HIS:21>  (12) 
pistack:HIS:21    0
pistack:HIS:21    0
Name: 11, dtype: object

>  <pication:HIS:21>  (12) 
pication:HIS:21    0
pication:HIS:21    0
Name: 11, dtype: object

>  <halogenbond:HIS:21>  (12) 
halogenbond:HIS:21    0
halogenbond:HIS:21    0
Name: 11, dtype: object

>  <hydroph_interaction:LEU:22>  (12) 
hydroph_interaction:LEU:22    0
hydroph_interaction:LEU:22    0
Name: 11, dtype: object

>  <hbond:LEU:22>  (12) 
hbond:LEU:22    0
hbond:LEU:22    0
Name: 11, dtype: object

>  <hydroph_interaction:TRP:28>  (12) 
hydroph_interaction:TRP:28    0
hydroph_interaction:TRP:28    0
Name: 11, dtype: object

>  <hbond:SER:36>  (12) 
hbond:SER:36    0
hbond:SER:36    0
Name: 11, dtype: object

>  <halogenbond:SER:36>  (12) 
halogenbond:SER:36    0
halogenbond:SER:36    0
Name: 11, dtype: object

>  <hbond:ARG:38>  (12) 
hbond:ARG:38    0
hbond:ARG:38    0
Name: 11, dtype: object

>  <halogenbond:ARG:38>  (12) 
halogenbond:ARG:38    0
halogenbond:ARG:38    0
Name: 11, dtype: object

>  <hbond:ASP:39>  (12) 
hbond:ASP:39    0
hbond:ASP:39    0
Name: 11, dtype: object

>  <saltbridge:ASP:39>  (12) 
saltbridge:ASP:39    0
saltbridge:ASP:39    0
Name: 11, dtype: object

>  <hydroph_interaction:ASP:39>  (12) 
hydroph_interaction:ASP:39    0
hydroph_interaction:ASP:39    0
Name: 11, dtype: object

>  <halogenbond:ASP:39>  (12) 
halogenbond:ASP:39    0
halogenbond:ASP:39    0
Name: 11, dtype: object

>  <hydroph_interaction:LEU:40>  (12) 
hydroph_interaction:LEU:40    0
hydroph_interaction:LEU:40    0
Name: 11, dtype: object

>  <hydroph_interaction:TYR:63>  (12) 
hydroph_interaction:TYR:63    0
hydroph_interaction:TYR:63    0
Name: 11, dtype: object

>  <pistack:TYR:63>  (12) 
pistack:TYR:63    0
pistack:TYR:63    0
Name: 11, dtype: object

>  <hbond:TYR:63>  (12) 
hbond:TYR:63    0
hbond:TYR:63    0
Name: 11, dtype: object

>  <hbond:TYR:64>  (12) 
hbond:TYR:64    0
hbond:TYR:64    0
Name: 11, dtype: object

>  <halogenbond:TYR:64>  (12) 
halogenbond:TYR:64    0
halogenbond:TYR:64    0
Name: 11, dtype: object

>  <hydroph_interaction:TYR:64>  (12) 
hydroph_interaction:TYR:64    0
hydroph_interaction:TYR:64    0
Name: 11, dtype: object

>  <hbond:CYS:65>  (12) 
hbond:CYS:65    0
hbond:CYS:65    0
Name: 11, dtype: object

>  <halogenbond:CYS:65>  (12) 
halogenbond:CYS:65    0
halogenbond:CYS:65    0
Name: 11, dtype: object

>  <hbond:SER:66>  (12) 
hbond:SER:66    0
hbond:SER:66    0
Name: 11, dtype: object

>  <hbond:SER:67>  (12) 
hbond:SER:67    0
hbond:SER:67    0
Name: 11, dtype: object

>  <halogenbond:SER:67>  (12) 
halogenbond:SER:67    0
halogenbond:SER:67    0
Name: 11, dtype: object

>  <hydroph_interaction:ARG:68>  (12) 
hydroph_interaction:ARG:68    0
hydroph_interaction:ARG:68    0
Name: 11, dtype: object

>  <hbond:ARG:68>  (12) 
hbond:ARG:68    0
hbond:ARG:68    0
Name: 11, dtype: object

>  <saltbridge:ARG:68>  (12) 
saltbridge:ARG:68    0
saltbridge:ARG:68    0
Name: 11, dtype: object

>  <pication:ARG:68>  (12) 
pication:ARG:68    0
pication:ARG:68    0
Name: 11, dtype: object

>  <hydroph_interaction:TYR:72>  (12) 
hydroph_interaction:TYR:72    0
hydroph_interaction:TYR:72    0
Name: 11, dtype: object

>  <hydroph_interaction:VAL:74>  (12) 
hydroph_interaction:VAL:74    0
hydroph_interaction:VAL:74    0
Name: 11, dtype: object

>  <hydroph_interaction:PHE:76>  (12) 
hydroph_interaction:PHE:76    0
hydroph_interaction:PHE:76    0
Name: 11, dtype: object

>  <hbond:SER:77>  (12) 
hbond:SER:77    0
hbond:SER:77    0
Name: 11, dtype: object

>  <hbond:SER:80>  (12) 
hbond:SER:80    0
hbond:SER:80    0
Name: 11, dtype: object

>  <hbond:LEU:81>  (12) 
hbond:LEU:81    0
hbond:LEU:81    0
Name: 11, dtype: object

>  <halogenbond:LEU:81>  (12) 
halogenbond:LEU:81    0
halogenbond:LEU:81    0
Name: 11, dtype: object

>  <hydroph_interaction:LEU:81>  (12) 
hydroph_interaction:LEU:81    0
hydroph_interaction:LEU:81    0
Name: 11, dtype: object

>  <hydroph_interaction:ILE:82>  (12) 
hydroph_interaction:ILE:82    0
hydroph_interaction:ILE:82    0
Name: 11, dtype: object

>  <hbond:ILE:82>  (12) 
hbond:ILE:82    0
hbond:ILE:82    0
Name: 11, dtype: object

>  <hydroph_interaction:PHE:83>  (12) 
hydroph_interaction:PHE:83    0
hydroph_interaction:PHE:83    0
Name: 11, dtype: object

>  <hbond:PHE:83>  (12) 
hbond:PHE:83    0
hbond:PHE:83    0
Name: 11, dtype: object

>  <halogenbond:PHE:83>  (12) 
halogenbond:PHE:83    0
halogenbond:PHE:83    0
Name: 11, dtype: object

>  <pistack:PHE:83>  (12) 
pistack:PHE:83    0
pistack:PHE:83    0
Name: 11, dtype: object

>  <hydroph_interaction:VAL:84>  (12) 
hydroph_interaction:VAL:84    0
hydroph_interaction:VAL:84    0
Name: 11, dtype: object

>  <hbond:VAL:84>  (12) 
hbond:VAL:84    0
hbond:VAL:84    0
Name: 11, dtype: object

>  <halogenbond:VAL:84>  (12) 
halogenbond:VAL:84    0
halogenbond:VAL:84    0
Name: 11, dtype: object

>  <hydroph_interaction:GLU:85>  (12) 
hydroph_interaction:GLU:85    0
hydroph_interaction:GLU:85    0
Name: 11, dtype: object

>  <hbond:GLU:85>  (12) 
hbond:GLU:85    0
hbond:GLU:85    0
Name: 11, dtype: object

>  <saltbridge:GLU:85>  (12) 
saltbridge:GLU:85    0
saltbridge:GLU:85    0
Name: 11, dtype: object

>  <halogenbond:GLU:85>  (12) 
halogenbond:GLU:85    0
halogenbond:GLU:85    0
Name: 11, dtype: object

>  <hbond:ALA:86>  (12) 
hbond:ALA:86    0
hbond:ALA:86    0
Name: 11, dtype: object

>  <halogenbond:ALA:86>  (12) 
halogenbond:ALA:86    0
halogenbond:ALA:86    0
Name: 11, dtype: object

>  <hydroph_interaction:ALA:86>  (12) 
hydroph_interaction:ALA:86    0
hydroph_interaction:ALA:86    0
Name: 11, dtype: object

>  <hbond:SER:87>  (12) 
hbond:SER:87    0
hbond:SER:87    0
Name: 11, dtype: object

>  <halogenbond:SER:87>  (12) 
halogenbond:SER:87    0
halogenbond:SER:87    0
Name: 11, dtype: object

>  <hbond:GLU:88>  (12) 
hbond:GLU:88    0
hbond:GLU:88    0
Name: 11, dtype: object

>  <hydroph_interaction:GLU:88>  (12) 
hydroph_interaction:GLU:88    0
hydroph_interaction:GLU:88    0
Name: 11, dtype: object

>  <halogenbond:GLU:88>  (12) 
halogenbond:GLU:88    0
halogenbond:GLU:88    0
Name: 11, dtype: object

>  <saltbridge:GLU:88>  (12) 
saltbridge:GLU:88    0
saltbridge:GLU:88    0
Name: 11, dtype: object

>  <hydroph_interaction:TYR:89>  (12) 
hydroph_interaction:TYR:89    0
hydroph_interaction:TYR:89    0
Name: 11, dtype: object

>  <pistack:TYR:89>  (12) 
pistack:TYR:89    0
pistack:TYR:89    0
Name: 11, dtype: object

>  <hbond:TYR:89>  (12) 
hbond:TYR:89    0
hbond:TYR:89    0
Name: 11, dtype: object

>  <halogenbond:TYR:89>  (12) 
halogenbond:TYR:89    0
halogenbond:TYR:89    0
Name: 11, dtype: object

>  <hbond:TYR:90>  (12) 
hbond:TYR:90    0
hbond:TYR:90    0
Name: 11, dtype: object

>  <hydroph_interaction:TYR:90>  (12) 
hydroph_interaction:TYR:90    0
hydroph_interaction:TYR:90    0
Name: 11, dtype: object

>  <pistack:TYR:90>  (12) 
pistack:TYR:90    0
pistack:TYR:90    0
Name: 11, dtype: object

>  <halogenbond:TYR:90>  (12) 
halogenbond:TYR:90    0
halogenbond:TYR:90    0
Name: 11, dtype: object

>  <pication:TYR:90>  (12) 
pication:TYR:90    0
pication:TYR:90    0
Name: 11, dtype: object

>  <hydroph_interaction:PRO:91>  (12) 
hydroph_interaction:PRO:91    0
hydroph_interaction:PRO:91    0
Name: 11, dtype: object

>  <halogenbond:PRO:91>  (12) 
halogenbond:PRO:91    0
halogenbond:PRO:91    0
Name: 11, dtype: object

>  <hbond:PRO:91>  (12) 
hbond:PRO:91    0
hbond:PRO:91    0
Name: 11, dtype: object

>  <hydroph_interaction:ALA:92>  (12) 
hydroph_interaction:ALA:92    0
hydroph_interaction:ALA:92    0
Name: 11, dtype: object

>  <hbond:ARG:93>  (12) 
hbond:ARG:93    0
hbond:ARG:93    0
Name: 11, dtype: object

>  <pication:ARG:93>  (12) 
pication:ARG:93    0
pication:ARG:93    0
Name: 11, dtype: object

>  <saltbridge:ARG:93>  (12) 
saltbridge:ARG:93    0
saltbridge:ARG:93    0
Name: 11, dtype: object

>  <hydroph_interaction:ARG:93>  (12) 
hydroph_interaction:ARG:93    0
hydroph_interaction:ARG:93    0
Name: 11, dtype: object

>  <halogenbond:ARG:93>  (12) 
halogenbond:ARG:93    0
halogenbond:ARG:93    0
Name: 11, dtype: object

>  <hydroph_interaction:TYR:94>  (12) 
hydroph_interaction:TYR:94    0
hydroph_interaction:TYR:94    0
Name: 11, dtype: object

>  <hbond:TYR:94>  (12) 
hbond:TYR:94    0
hbond:TYR:94    0
Name: 11, dtype: object

>  <halogenbond:GLN:95>  (12) 
halogenbond:GLN:95    0
halogenbond:GLN:95    0
Name: 11, dtype: object

>  <hbond:GLN:95>  (12) 
hbond:GLN:95    0
hbond:GLN:95    0
Name: 11, dtype: object

>  <hydroph_interaction:GLN:95>  (12) 
hydroph_interaction:GLN:95    0
hydroph_interaction:GLN:95    0
Name: 11, dtype: object

>  <hbond:SER:96>  (12) 
hbond:SER:96    0
hbond:SER:96    0
Name: 11, dtype: object

>  <hydroph_interaction:LEU:98>  (12) 
hydroph_interaction:LEU:98    0
hydroph_interaction:LEU:98    0
Name: 11, dtype: object

>  <hbond:LEU:98>  (12) 
hbond:LEU:98    0
hbond:LEU:98    0
Name: 11, dtype: object

>  <hbond:MET:99>  (12) 
hbond:MET:99    0
hbond:MET:99    0
Name: 11, dtype: object

>  <hydroph_interaction:MET:99>  (12) 
hydroph_interaction:MET:99    0
hydroph_interaction:MET:99    0
Name: 11, dtype: object

>  <halogenbond:MET:99>  (12) 
halogenbond:MET:99    0
halogenbond:MET:99    0
Name: 11, dtype: object

>  <hydroph_interaction:LEU:100>  (12) 
hydroph_interaction:LEU:100    0
hydroph_interaction:LEU:100    0
Name: 11, dtype: object

>  <hbond:LEU:100>  (12) 
hbond:LEU:100    0
hbond:LEU:100    0
Name: 11, dtype: object

>  <hbond:ALA:101>  (12) 
hbond:ALA:101    0
hbond:ALA:101    0
Name: 11, dtype: object

>  <hydroph_interaction:ALA:101>  (12) 
hydroph_interaction:ALA:101    0
hydroph_interaction:ALA:101    0
Name: 11, dtype: object

>  <hydroph_interaction:VAL:102>  (12) 
hydroph_interaction:VAL:102    0
hydroph_interaction:VAL:102    0
Name: 11, dtype: object

>  <hbond:VAL:102>  (12) 
hbond:VAL:102    0
hbond:VAL:102    0
Name: 11, dtype: object

>  <hbond:GLY:103>  (12) 
hbond:GLY:103    0
hbond:GLY:103    0
Name: 11, dtype: object

>  <halogenbond:GLY:103>  (12) 
halogenbond:GLY:103    0
halogenbond:GLY:103    0
Name: 11, dtype: object

>  <hydroph_interaction:HIS:104>  (12) 
hydroph_interaction:HIS:104    0
hydroph_interaction:HIS:104    0
Name: 11, dtype: object

>  <hbond:HIS:104>  (12) 
hbond:HIS:104    0
hbond:HIS:104    0
Name: 11, dtype: object

>  <saltbridge:HIS:104>  (12) 
saltbridge:HIS:104    0
saltbridge:HIS:104    0
Name: 11, dtype: object

>  <pication:HIS:104>  (12) 
pication:HIS:104    0
pication:HIS:104    0
Name: 11, dtype: object

>  <pistack:HIS:104>  (12) 
pistack:HIS:104    0
pistack:HIS:104    0
Name: 11, dtype: object

>  <halogenbond:HIS:104>  (12) 
halogenbond:HIS:104    0
halogenbond:HIS:104    0
Name: 11, dtype: object

>  <hbond:SER:105>  (12) 
hbond:SER:105    0
hbond:SER:105    0
Name: 11, dtype: object

>  <halogenbond:SER:105>  (12) 
halogenbond:SER:105    0
halogenbond:SER:105    0
Name: 11, dtype: object

>  <hbond:GLU:106>  (12) 
hbond:GLU:106    0
hbond:GLU:106    0
Name: 11, dtype: object

>  <hydroph_interaction:GLU:106>  (12) 
hydroph_interaction:GLU:106    0
hydroph_interaction:GLU:106    0
Name: 11, dtype: object

>  <saltbridge:GLU:106>  (12) 
saltbridge:GLU:106    0
saltbridge:GLU:106    0
Name: 11, dtype: object

>  <halogenbond:GLU:106>  (12) 
halogenbond:GLU:106    0
halogenbond:GLU:106    0
Name: 11, dtype: object

>  <hydroph_interaction:PRO:107>  (12) 
hydroph_interaction:PRO:107    2
hydroph_interaction:PRO:107    2
Name: 11, dtype: object

>  <hbond:PRO:107>  (12) 
hbond:PRO:107    0
hbond:PRO:107    0
Name: 11, dtype: object

>  <halogenbond:PRO:107>  (12) 
halogenbond:PRO:107    0
halogenbond:PRO:107    0
Name: 11, dtype: object

>  <hbond:GLY:108>  (12) 
hbond:GLY:108    0
hbond:GLY:108    0
Name: 11, dtype: object

>  <halogenbond:GLY:108>  (12) 
halogenbond:GLY:108    0
halogenbond:GLY:108    0
Name: 11, dtype: object

>  <hbond:ASP:109>  (12) 
hbond:ASP:109    0
hbond:ASP:109    0
Name: 11, dtype: object

>  <hydroph_interaction:ASP:109>  (12) 
hydroph_interaction:ASP:109    0
hydroph_interaction:ASP:109    0
Name: 11, dtype: object

>  <saltbridge:ASP:109>  (12) 
saltbridge:ASP:109    0
saltbridge:ASP:109    0
Name: 11, dtype: object

>  <hbond:CYS:110>  (12) 
hbond:CYS:110    0
hbond:CYS:110    0
Name: 11, dtype: object

>  <halogenbond:CYS:110>  (12) 
halogenbond:CYS:110    0
halogenbond:CYS:110    0
Name: 11, dtype: object

>  <hbond:GLY:111>  (12) 
hbond:GLY:111    0
hbond:GLY:111    0
Name: 11, dtype: object

>  <hbond:GLY:112>  (12) 
hbond:GLY:112    0
hbond:GLY:112    0
Name: 11, dtype: object

>  <hbond:ILE:113>  (12) 
hbond:ILE:113    0
hbond:ILE:113    0
Name: 11, dtype: object

>  <hydroph_interaction:LEU:114>  (12) 
hydroph_interaction:LEU:114    0
hydroph_interaction:LEU:114    0
Name: 11, dtype: object

>  <hbond:LEU:114>  (12) 
hbond:LEU:114    0
hbond:LEU:114    0
Name: 11, dtype: object

>  <hydroph_interaction:ILE:123>  (12) 
hydroph_interaction:ILE:123    0
hydroph_interaction:ILE:123    0
Name: 11, dtype: object

>  <hbond:ILE:123>  (12) 
hbond:ILE:123    0
hbond:ILE:123    0
Name: 11, dtype: object

>  <hydroph_interaction:VAL:124>  (12) 
hydroph_interaction:VAL:124    1
hydroph_interaction:VAL:124    1
Name: 11, dtype: object

>  <hbond:VAL:124>  (12) 
hbond:VAL:124    0
hbond:VAL:124    0
Name: 11, dtype: object

>  <halogenbond:VAL:124>  (12) 
halogenbond:VAL:124    0
halogenbond:VAL:124    0
Name: 11, dtype: object

>  <hbond:SER:125>  (12) 
hbond:SER:125    0
hbond:SER:125    0
Name: 11, dtype: object

>  <halogenbond:SER:125>  (12) 
halogenbond:SER:125    0
halogenbond:SER:125    0
Name: 11, dtype: object

>  <hydroph_interaction:THR:126>  (12) 
hydroph_interaction:THR:126    0
hydroph_interaction:THR:126    0
Name: 11, dtype: object

>  <hbond:THR:126>  (12) 
hbond:THR:126    0
hbond:THR:126    0
Name: 11, dtype: object

>  <halogenbond:THR:126>  (12) 
halogenbond:THR:126    0
halogenbond:THR:126    0
Name: 11, dtype: object

>  <hbond:GLY:127>  (12) 
hbond:GLY:127    0
hbond:GLY:127    0
Name: 11, dtype: object

>  <halogenbond:GLY:127>  (12) 
halogenbond:GLY:127    0
halogenbond:GLY:127    0
Name: 11, dtype: object

>  <hydroph_interaction:GLY:127>  (12) 
hydroph_interaction:GLY:127    0
hydroph_interaction:GLY:127    0
Name: 11, dtype: object

>  <hbond:GLY:128>  (12) 
hbond:GLY:128    0
hbond:GLY:128    0
Name: 11, dtype: object

>  <halogenbond:GLY:128>  (12) 
halogenbond:GLY:128    0
halogenbond:GLY:128    0
Name: 11, dtype: object

>  <hydroph_interaction:GLY:128>  (12) 
hydroph_interaction:GLY:128    0
hydroph_interaction:GLY:128    0
Name: 11, dtype: object

>  <hbond:ASN:129>  (12) 
hbond:ASN:129    0
hbond:ASN:129    0
Name: 11, dtype: object

>  <hydroph_interaction:ASN:129>  (12) 
hydroph_interaction:ASN:129    0
hydroph_interaction:ASN:129    0
Name: 11, dtype: object

>  <halogenbond:ASN:129>  (12) 
halogenbond:ASN:129    0
halogenbond:ASN:129    0
Name: 11, dtype: object

>  <hbond:GLY:130>  (12) 
hbond:GLY:130    0
hbond:GLY:130    0
Name: 11, dtype: object

>  <hydroph_interaction:LEU:131>  (12) 
hydroph_interaction:LEU:131    0
hydroph_interaction:LEU:131    0
Name: 11, dtype: object

>  <hbond:LEU:131>  (12) 
hbond:LEU:131    0
hbond:LEU:131    0
Name: 11, dtype: object

>  <halogenbond:LEU:131>  (12) 
halogenbond:LEU:131    0
halogenbond:LEU:131    0
Name: 11, dtype: object

>  <hydroph_interaction:VAL:132>  (12) 
hydroph_interaction:VAL:132    0
hydroph_interaction:VAL:132    0
Name: 11, dtype: object

>  <hbond:VAL:132>  (12) 
hbond:VAL:132    0
hbond:VAL:132    0
Name: 11, dtype: object

>  <hbond:GLY:133>  (12) 
hbond:GLY:133    0
hbond:GLY:133    0
Name: 11, dtype: object

>  <halogenbond:GLY:133>  (12) 
halogenbond:GLY:133    0
halogenbond:GLY:133    0
Name: 11, dtype: object

>  <hydroph_interaction:PHE:134>  (12) 
hydroph_interaction:PHE:134    0
hydroph_interaction:PHE:134    0
Name: 11, dtype: object

>  <hbond:PHE:134>  (12) 
hbond:PHE:134    0
hbond:PHE:134    0
Name: 11, dtype: object

>  <pistack:PHE:134>  (12) 
pistack:PHE:134    0
pistack:PHE:134    0
Name: 11, dtype: object

>  <pication:PHE:134>  (12) 
pication:PHE:134    0
pication:PHE:134    0
Name: 11, dtype: object

>  <hydroph_interaction:ALA:135>  (12) 
hydroph_interaction:ALA:135    0
hydroph_interaction:ALA:135    0
Name: 11, dtype: object

>  <hbond:ALA:135>  (12) 
hbond:ALA:135    0
hbond:ALA:135    0
Name: 11, dtype: object

$$$$
PV_002879528785
     RDKit          3D

 25 26  0  0  0  0  0  0  0  0999 V2000
   12.3090   13.9200   22.9660 C   0  0  0  0  0  0  0  0  0  0  0  0
   11.0720   14.5840   22.3900 C   0  0  0  0  0  0  0  0  0  0  0  0
   11.1540   15.3270   21.4110 O   0  0  0  0  0  0  0  0  0  0  0  0
    9.9190   14.2690   23.0930 N   0  0  0  0  0  0  0  0  0  0  0  0
    9.5370   12.9830   23.4540 C   0  0  0  0  0  0  0  0  0  0  0  0
    8.4880   12.6640   24.4760 C   0  0  0  0  0  0  0  0  0  0  0  0
    7.7200   13.6130   25.2410 N   0  0  0  0  0  0  0  0  0  0  0  0
    6.8500   12.8280   26.0780 C   0  0  0  0  0  0  0  0  0  0  0  0
    7.0630   11.5350   25.8500 N   0  0  0  0  0  0  0  0  0  0  0  0
    8.0610   11.4210   24.8720 C   0  0  0  0  0  0  0  0  0  0  0  0
    8.6210   10.2890   24.3010 C   0  0  0  0  0  0  0  0  0  0  0  0
    9.6260   10.5690   23.3200 C   0  0  0  0  0  0  0  0  0  0  0  0
   10.2640    9.3730   22.6500 C   0  0  0  0  0  0  0  0  0  0  0  0
   10.0600   11.8350   22.9260 C   0  0  0  0  0  0  0  0  0  0  0  0
   12.9580   14.6620   23.4410 H   0  0  0  0  0  0  0  0  0  0  0  0
   12.0110   13.1820   23.7160 H   0  0  0  0  0  0  0  0  0  0  0  0
   12.8650   13.4220   22.1730 H   0  0  0  0  0  0  0  0  0  0  0  0
    9.1480   14.9260   23.0040 H   0  0  0  0  0  0  0  0  0  0  0  0
    7.7670   14.6190   25.2100 H   0  0  0  0  0  0  0  0  0  0  0  0
    6.1320   13.2610   26.7850 H   0  0  0  0  0  0  0  0  0  0  0  0
    8.3120    9.2950   24.5800 H   0  0  0  0  0  0  0  0  0  0  0  0
    9.5010    8.7460   22.1970 H   0  0  0  0  0  0  0  0  0  0  0  0
   10.8570    8.7860   23.3520 H   0  0  0  0  0  0  0  0  0  0  0  0
   10.9000    9.6940   21.8270 H   0  0  0  0  0  0  0  0  0  0  0  0
   10.8340   11.8840   22.1720 H   0  0  0  0  0  0  0  0  0  0  0  0
  1  2  1  0
  2  3  2  0
  2  4  1  0
  4  5  1  0
  5  6  2  0
  6  7  1  0
  7  8  1  0
  8  9  2  0
  9 10  1  0
 10 11  2  0
 11 12  1  0
 12 13  1  0
 12 14  2  0
 14  5  1  0
 10  6  1  0
  1 15  1  0
  1 16  1  0
  1 17  1  0
  4 18  1  0
  7 19  1  0
  8 20  1  0
 11 21  1  0
 13 22  1  0
 13 23  1  0
 13 24  1  0
 14 25  1  0
A    1
 C1 
A    2
 C2 
A    3
 O1 
A    4
 N1 
A    5
 C3 
A    6
 C4 
A    7
 N2 
A    8
 C5 
A    9
 N3 
A   10
 C6 
A   11
 C7 
A   12
 C8 
A   13
 C9 
A   14
 C10
A   15
 H1 
A   16
 H2 
A   17
 H3 
A   18
 H4 
A   19
 H5 
A   20
 H6 
A   21
 H7 
A   22
 H8 
A   23
 H9 
A   24
 H10
A   25
 H11
M  END
>  <ref_pdb>  (13) 
x0310_0A

>  <ref_mols>  (13) 
x0554_0A,x0528_0A

>  <original SMILES>  (13) 
CC(=O)Nc1cc(C)cc2nc[nH]c12

>  <rationale>  (13) 
info hbond:S87; hydroph_interaction:V124; 

>  <intxn_cluster>  (13) 
103

>  <intxn_cluster_rank>  (13) 
41

>  <N_interactions>  (13) 
4

>  <∆∆G>  (13) 
-10.029625

>  <$/mg>  (13) 
244.5

>  <comRMSD>  (13) 
0.705115

>  <N_rotatable_bonds>  (13) 
3

>  <hbond:SER:7>  (13) 
hbond:SER:7    0
hbond:SER:7    0
Name: 12, dtype: object

>  <halogenbond:SER:7>  (13) 
halogenbond:SER:7    0
halogenbond:SER:7    0
Name: 12, dtype: object

>  <hbond:GLY:8>  (13) 
hbond:GLY:8    0
hbond:GLY:8    0
Name: 12, dtype: object

>  <hydroph_interaction:ASN:19>  (13) 
hydroph_interaction:ASN:19    0
hydroph_interaction:ASN:19    0
Name: 12, dtype: object

>  <hbond:ASN:19>  (13) 
hbond:ASN:19    0
hbond:ASN:19    0
Name: 12, dtype: object

>  <halogenbond:ASN:19>  (13) 
halogenbond:ASN:19    0
halogenbond:ASN:19    0
Name: 12, dtype: object

>  <hbond:ARG:20>  (13) 
hbond:ARG:20    0
hbond:ARG:20    0
Name: 12, dtype: object

>  <hydroph_interaction:ARG:20>  (13) 
hydroph_interaction:ARG:20    0
hydroph_interaction:ARG:20    0
Name: 12, dtype: object

>  <saltbridge:ARG:20>  (13) 
saltbridge:ARG:20    0
saltbridge:ARG:20    0
Name: 12, dtype: object

>  <halogenbond:ARG:20>  (13) 
halogenbond:ARG:20    0
halogenbond:ARG:20    0
Name: 12, dtype: object

>  <pication:ARG:20>  (13) 
pication:ARG:20    0
pication:ARG:20    0
Name: 12, dtype: object

>  <hbond:HIS:21>  (13) 
hbond:HIS:21    0
hbond:HIS:21    0
Name: 12, dtype: object

>  <hydroph_interaction:HIS:21>  (13) 
hydroph_interaction:HIS:21    0
hydroph_interaction:HIS:21    0
Name: 12, dtype: object

>  <saltbridge:HIS:21>  (13) 
saltbridge:HIS:21    0
saltbridge:HIS:21    0
Name: 12, dtype: object

>  <pistack:HIS:21>  (13) 
pistack:HIS:21    0
pistack:HIS:21    0
Name: 12, dtype: object

>  <pication:HIS:21>  (13) 
pication:HIS:21    0
pication:HIS:21    0
Name: 12, dtype: object

>  <halogenbond:HIS:21>  (13) 
halogenbond:HIS:21    0
halogenbond:HIS:21    0
Name: 12, dtype: object

>  <hydroph_interaction:LEU:22>  (13) 
hydroph_interaction:LEU:22    0
hydroph_interaction:LEU:22    0
Name: 12, dtype: object

>  <hbond:LEU:22>  (13) 
hbond:LEU:22    0
hbond:LEU:22    0
Name: 12, dtype: object

>  <hydroph_interaction:TRP:28>  (13) 
hydroph_interaction:TRP:28    0
hydroph_interaction:TRP:28    0
Name: 12, dtype: object

>  <hbond:SER:36>  (13) 
hbond:SER:36    0
hbond:SER:36    0
Name: 12, dtype: object

>  <halogenbond:SER:36>  (13) 
halogenbond:SER:36    0
halogenbond:SER:36    0
Name: 12, dtype: object

>  <hbond:ARG:38>  (13) 
hbond:ARG:38    0
hbond:ARG:38    0
Name: 12, dtype: object

>  <halogenbond:ARG:38>  (13) 
halogenbond:ARG:38    0
halogenbond:ARG:38    0
Name: 12, dtype: object

>  <hbond:ASP:39>  (13) 
hbond:ASP:39    0
hbond:ASP:39    0
Name: 12, dtype: object

>  <saltbridge:ASP:39>  (13) 
saltbridge:ASP:39    0
saltbridge:ASP:39    0
Name: 12, dtype: object

>  <hydroph_interaction:ASP:39>  (13) 
hydroph_interaction:ASP:39    0
hydroph_interaction:ASP:39    0
Name: 12, dtype: object

>  <halogenbond:ASP:39>  (13) 
halogenbond:ASP:39    0
halogenbond:ASP:39    0
Name: 12, dtype: object

>  <hydroph_interaction:LEU:40>  (13) 
hydroph_interaction:LEU:40    0
hydroph_interaction:LEU:40    0
Name: 12, dtype: object

>  <hydroph_interaction:TYR:63>  (13) 
hydroph_interaction:TYR:63    0
hydroph_interaction:TYR:63    0
Name: 12, dtype: object

>  <pistack:TYR:63>  (13) 
pistack:TYR:63    0
pistack:TYR:63    0
Name: 12, dtype: object

>  <hbond:TYR:63>  (13) 
hbond:TYR:63    0
hbond:TYR:63    0
Name: 12, dtype: object

>  <hbond:TYR:64>  (13) 
hbond:TYR:64    0
hbond:TYR:64    0
Name: 12, dtype: object

>  <halogenbond:TYR:64>  (13) 
halogenbond:TYR:64    0
halogenbond:TYR:64    0
Name: 12, dtype: object

>  <hydroph_interaction:TYR:64>  (13) 
hydroph_interaction:TYR:64    0
hydroph_interaction:TYR:64    0
Name: 12, dtype: object

>  <hbond:CYS:65>  (13) 
hbond:CYS:65    0
hbond:CYS:65    0
Name: 12, dtype: object

>  <halogenbond:CYS:65>  (13) 
halogenbond:CYS:65    0
halogenbond:CYS:65    0
Name: 12, dtype: object

>  <hbond:SER:66>  (13) 
hbond:SER:66    0
hbond:SER:66    0
Name: 12, dtype: object

>  <hbond:SER:67>  (13) 
hbond:SER:67    0
hbond:SER:67    0
Name: 12, dtype: object

>  <halogenbond:SER:67>  (13) 
halogenbond:SER:67    0
halogenbond:SER:67    0
Name: 12, dtype: object

>  <hydroph_interaction:ARG:68>  (13) 
hydroph_interaction:ARG:68    0
hydroph_interaction:ARG:68    0
Name: 12, dtype: object

>  <hbond:ARG:68>  (13) 
hbond:ARG:68    0
hbond:ARG:68    0
Name: 12, dtype: object

>  <saltbridge:ARG:68>  (13) 
saltbridge:ARG:68    0
saltbridge:ARG:68    0
Name: 12, dtype: object

>  <pication:ARG:68>  (13) 
pication:ARG:68    0
pication:ARG:68    0
Name: 12, dtype: object

>  <hydroph_interaction:TYR:72>  (13) 
hydroph_interaction:TYR:72    0
hydroph_interaction:TYR:72    0
Name: 12, dtype: object

>  <hydroph_interaction:VAL:74>  (13) 
hydroph_interaction:VAL:74    0
hydroph_interaction:VAL:74    0
Name: 12, dtype: object

>  <hydroph_interaction:PHE:76>  (13) 
hydroph_interaction:PHE:76    0
hydroph_interaction:PHE:76    0
Name: 12, dtype: object

>  <hbond:SER:77>  (13) 
hbond:SER:77    0
hbond:SER:77    0
Name: 12, dtype: object

>  <hbond:SER:80>  (13) 
hbond:SER:80    0
hbond:SER:80    0
Name: 12, dtype: object

>  <hbond:LEU:81>  (13) 
hbond:LEU:81    0
hbond:LEU:81    0
Name: 12, dtype: object

>  <halogenbond:LEU:81>  (13) 
halogenbond:LEU:81    0
halogenbond:LEU:81    0
Name: 12, dtype: object

>  <hydroph_interaction:LEU:81>  (13) 
hydroph_interaction:LEU:81    0
hydroph_interaction:LEU:81    0
Name: 12, dtype: object

>  <hydroph_interaction:ILE:82>  (13) 
hydroph_interaction:ILE:82    0
hydroph_interaction:ILE:82    0
Name: 12, dtype: object

>  <hbond:ILE:82>  (13) 
hbond:ILE:82    0
hbond:ILE:82    0
Name: 12, dtype: object

>  <hydroph_interaction:PHE:83>  (13) 
hydroph_interaction:PHE:83    0
hydroph_interaction:PHE:83    0
Name: 12, dtype: object

>  <hbond:PHE:83>  (13) 
hbond:PHE:83    0
hbond:PHE:83    0
Name: 12, dtype: object

>  <halogenbond:PHE:83>  (13) 
halogenbond:PHE:83    0
halogenbond:PHE:83    0
Name: 12, dtype: object

>  <pistack:PHE:83>  (13) 
pistack:PHE:83    0
pistack:PHE:83    0
Name: 12, dtype: object

>  <hydroph_interaction:VAL:84>  (13) 
hydroph_interaction:VAL:84    0
hydroph_interaction:VAL:84    0
Name: 12, dtype: object

>  <hbond:VAL:84>  (13) 
hbond:VAL:84    0
hbond:VAL:84    0
Name: 12, dtype: object

>  <halogenbond:VAL:84>  (13) 
halogenbond:VAL:84    0
halogenbond:VAL:84    0
Name: 12, dtype: object

>  <hydroph_interaction:GLU:85>  (13) 
hydroph_interaction:GLU:85    0
hydroph_interaction:GLU:85    0
Name: 12, dtype: object

>  <hbond:GLU:85>  (13) 
hbond:GLU:85    0
hbond:GLU:85    0
Name: 12, dtype: object

>  <saltbridge:GLU:85>  (13) 
saltbridge:GLU:85    0
saltbridge:GLU:85    0
Name: 12, dtype: object

>  <halogenbond:GLU:85>  (13) 
halogenbond:GLU:85    0
halogenbond:GLU:85    0
Name: 12, dtype: object

>  <hbond:ALA:86>  (13) 
hbond:ALA:86    0
hbond:ALA:86    0
Name: 12, dtype: object

>  <halogenbond:ALA:86>  (13) 
halogenbond:ALA:86    0
halogenbond:ALA:86    0
Name: 12, dtype: object

>  <hydroph_interaction:ALA:86>  (13) 
hydroph_interaction:ALA:86    0
hydroph_interaction:ALA:86    0
Name: 12, dtype: object

>  <hbond:SER:87>  (13) 
hbond:SER:87    3
hbond:SER:87    3
Name: 12, dtype: object

>  <halogenbond:SER:87>  (13) 
halogenbond:SER:87    0
halogenbond:SER:87    0
Name: 12, dtype: object

>  <hbond:GLU:88>  (13) 
hbond:GLU:88    0
hbond:GLU:88    0
Name: 12, dtype: object

>  <hydroph_interaction:GLU:88>  (13) 
hydroph_interaction:GLU:88    0
hydroph_interaction:GLU:88    0
Name: 12, dtype: object

>  <halogenbond:GLU:88>  (13) 
halogenbond:GLU:88    0
halogenbond:GLU:88    0
Name: 12, dtype: object

>  <saltbridge:GLU:88>  (13) 
saltbridge:GLU:88    0
saltbridge:GLU:88    0
Name: 12, dtype: object

>  <hydroph_interaction:TYR:89>  (13) 
hydroph_interaction:TYR:89    0
hydroph_interaction:TYR:89    0
Name: 12, dtype: object

>  <pistack:TYR:89>  (13) 
pistack:TYR:89    0
pistack:TYR:89    0
Name: 12, dtype: object

>  <hbond:TYR:89>  (13) 
hbond:TYR:89    0
hbond:TYR:89    0
Name: 12, dtype: object

>  <halogenbond:TYR:89>  (13) 
halogenbond:TYR:89    0
halogenbond:TYR:89    0
Name: 12, dtype: object

>  <hbond:TYR:90>  (13) 
hbond:TYR:90    0
hbond:TYR:90    0
Name: 12, dtype: object

>  <hydroph_interaction:TYR:90>  (13) 
hydroph_interaction:TYR:90    0
hydroph_interaction:TYR:90    0
Name: 12, dtype: object

>  <pistack:TYR:90>  (13) 
pistack:TYR:90    0
pistack:TYR:90    0
Name: 12, dtype: object

>  <halogenbond:TYR:90>  (13) 
halogenbond:TYR:90    0
halogenbond:TYR:90    0
Name: 12, dtype: object

>  <pication:TYR:90>  (13) 
pication:TYR:90    0
pication:TYR:90    0
Name: 12, dtype: object

>  <hydroph_interaction:PRO:91>  (13) 
hydroph_interaction:PRO:91    0
hydroph_interaction:PRO:91    0
Name: 12, dtype: object

>  <halogenbond:PRO:91>  (13) 
halogenbond:PRO:91    0
halogenbond:PRO:91    0
Name: 12, dtype: object

>  <hbond:PRO:91>  (13) 
hbond:PRO:91    0
hbond:PRO:91    0
Name: 12, dtype: object

>  <hydroph_interaction:ALA:92>  (13) 
hydroph_interaction:ALA:92    0
hydroph_interaction:ALA:92    0
Name: 12, dtype: object

>  <hbond:ARG:93>  (13) 
hbond:ARG:93    0
hbond:ARG:93    0
Name: 12, dtype: object

>  <pication:ARG:93>  (13) 
pication:ARG:93    0
pication:ARG:93    0
Name: 12, dtype: object

>  <saltbridge:ARG:93>  (13) 
saltbridge:ARG:93    0
saltbridge:ARG:93    0
Name: 12, dtype: object

>  <hydroph_interaction:ARG:93>  (13) 
hydroph_interaction:ARG:93    0
hydroph_interaction:ARG:93    0
Name: 12, dtype: object

>  <halogenbond:ARG:93>  (13) 
halogenbond:ARG:93    0
halogenbond:ARG:93    0
Name: 12, dtype: object

>  <hydroph_interaction:TYR:94>  (13) 
hydroph_interaction:TYR:94    0
hydroph_interaction:TYR:94    0
Name: 12, dtype: object

>  <hbond:TYR:94>  (13) 
hbond:TYR:94    0
hbond:TYR:94    0
Name: 12, dtype: object

>  <halogenbond:GLN:95>  (13) 
halogenbond:GLN:95    0
halogenbond:GLN:95    0
Name: 12, dtype: object

>  <hbond:GLN:95>  (13) 
hbond:GLN:95    0
hbond:GLN:95    0
Name: 12, dtype: object

>  <hydroph_interaction:GLN:95>  (13) 
hydroph_interaction:GLN:95    0
hydroph_interaction:GLN:95    0
Name: 12, dtype: object

>  <hbond:SER:96>  (13) 
hbond:SER:96    0
hbond:SER:96    0
Name: 12, dtype: object

>  <hydroph_interaction:LEU:98>  (13) 
hydroph_interaction:LEU:98    0
hydroph_interaction:LEU:98    0
Name: 12, dtype: object

>  <hbond:LEU:98>  (13) 
hbond:LEU:98    0
hbond:LEU:98    0
Name: 12, dtype: object

>  <hbond:MET:99>  (13) 
hbond:MET:99    0
hbond:MET:99    0
Name: 12, dtype: object

>  <hydroph_interaction:MET:99>  (13) 
hydroph_interaction:MET:99    0
hydroph_interaction:MET:99    0
Name: 12, dtype: object

>  <halogenbond:MET:99>  (13) 
halogenbond:MET:99    0
halogenbond:MET:99    0
Name: 12, dtype: object

>  <hydroph_interaction:LEU:100>  (13) 
hydroph_interaction:LEU:100    0
hydroph_interaction:LEU:100    0
Name: 12, dtype: object

>  <hbond:LEU:100>  (13) 
hbond:LEU:100    0
hbond:LEU:100    0
Name: 12, dtype: object

>  <hbond:ALA:101>  (13) 
hbond:ALA:101    0
hbond:ALA:101    0
Name: 12, dtype: object

>  <hydroph_interaction:ALA:101>  (13) 
hydroph_interaction:ALA:101    0
hydroph_interaction:ALA:101    0
Name: 12, dtype: object

>  <hydroph_interaction:VAL:102>  (13) 
hydroph_interaction:VAL:102    0
hydroph_interaction:VAL:102    0
Name: 12, dtype: object

>  <hbond:VAL:102>  (13) 
hbond:VAL:102    0
hbond:VAL:102    0
Name: 12, dtype: object

>  <hbond:GLY:103>  (13) 
hbond:GLY:103    0
hbond:GLY:103    0
Name: 12, dtype: object

>  <halogenbond:GLY:103>  (13) 
halogenbond:GLY:103    0
halogenbond:GLY:103    0
Name: 12, dtype: object

>  <hydroph_interaction:HIS:104>  (13) 
hydroph_interaction:HIS:104    0
hydroph_interaction:HIS:104    0
Name: 12, dtype: object

>  <hbond:HIS:104>  (13) 
hbond:HIS:104    0
hbond:HIS:104    0
Name: 12, dtype: object

>  <saltbridge:HIS:104>  (13) 
saltbridge:HIS:104    0
saltbridge:HIS:104    0
Name: 12, dtype: object

>  <pication:HIS:104>  (13) 
pication:HIS:104    0
pication:HIS:104    0
Name: 12, dtype: object

>  <pistack:HIS:104>  (13) 
pistack:HIS:104    0
pistack:HIS:104    0
Name: 12, dtype: object

>  <halogenbond:HIS:104>  (13) 
halogenbond:HIS:104    0
halogenbond:HIS:104    0
Name: 12, dtype: object

>  <hbond:SER:105>  (13) 
hbond:SER:105    0
hbond:SER:105    0
Name: 12, dtype: object

>  <halogenbond:SER:105>  (13) 
halogenbond:SER:105    0
halogenbond:SER:105    0
Name: 12, dtype: object

>  <hbond:GLU:106>  (13) 
hbond:GLU:106    0
hbond:GLU:106    0
Name: 12, dtype: object

>  <hydroph_interaction:GLU:106>  (13) 
hydroph_interaction:GLU:106    0
hydroph_interaction:GLU:106    0
Name: 12, dtype: object

>  <saltbridge:GLU:106>  (13) 
saltbridge:GLU:106    0
saltbridge:GLU:106    0
Name: 12, dtype: object

>  <halogenbond:GLU:106>  (13) 
halogenbond:GLU:106    0
halogenbond:GLU:106    0
Name: 12, dtype: object

>  <hydroph_interaction:PRO:107>  (13) 
hydroph_interaction:PRO:107    0
hydroph_interaction:PRO:107    0
Name: 12, dtype: object

>  <hbond:PRO:107>  (13) 
hbond:PRO:107    0
hbond:PRO:107    0
Name: 12, dtype: object

>  <halogenbond:PRO:107>  (13) 
halogenbond:PRO:107    0
halogenbond:PRO:107    0
Name: 12, dtype: object

>  <hbond:GLY:108>  (13) 
hbond:GLY:108    0
hbond:GLY:108    0
Name: 12, dtype: object

>  <halogenbond:GLY:108>  (13) 
halogenbond:GLY:108    0
halogenbond:GLY:108    0
Name: 12, dtype: object

>  <hbond:ASP:109>  (13) 
hbond:ASP:109    0
hbond:ASP:109    0
Name: 12, dtype: object

>  <hydroph_interaction:ASP:109>  (13) 
hydroph_interaction:ASP:109    0
hydroph_interaction:ASP:109    0
Name: 12, dtype: object

>  <saltbridge:ASP:109>  (13) 
saltbridge:ASP:109    0
saltbridge:ASP:109    0
Name: 12, dtype: object

>  <hbond:CYS:110>  (13) 
hbond:CYS:110    0
hbond:CYS:110    0
Name: 12, dtype: object

>  <halogenbond:CYS:110>  (13) 
halogenbond:CYS:110    0
halogenbond:CYS:110    0
Name: 12, dtype: object

>  <hbond:GLY:111>  (13) 
hbond:GLY:111    0
hbond:GLY:111    0
Name: 12, dtype: object

>  <hbond:GLY:112>  (13) 
hbond:GLY:112    0
hbond:GLY:112    0
Name: 12, dtype: object

>  <hbond:ILE:113>  (13) 
hbond:ILE:113    0
hbond:ILE:113    0
Name: 12, dtype: object

>  <hydroph_interaction:LEU:114>  (13) 
hydroph_interaction:LEU:114    0
hydroph_interaction:LEU:114    0
Name: 12, dtype: object

>  <hbond:LEU:114>  (13) 
hbond:LEU:114    0
hbond:LEU:114    0
Name: 12, dtype: object

>  <hydroph_interaction:ILE:123>  (13) 
hydroph_interaction:ILE:123    0
hydroph_interaction:ILE:123    0
Name: 12, dtype: object

>  <hbond:ILE:123>  (13) 
hbond:ILE:123    0
hbond:ILE:123    0
Name: 12, dtype: object

>  <hydroph_interaction:VAL:124>  (13) 
hydroph_interaction:VAL:124    1
hydroph_interaction:VAL:124    1
Name: 12, dtype: object

>  <hbond:VAL:124>  (13) 
hbond:VAL:124    0
hbond:VAL:124    0
Name: 12, dtype: object

>  <halogenbond:VAL:124>  (13) 
halogenbond:VAL:124    0
halogenbond:VAL:124    0
Name: 12, dtype: object

>  <hbond:SER:125>  (13) 
hbond:SER:125    0
hbond:SER:125    0
Name: 12, dtype: object

>  <halogenbond:SER:125>  (13) 
halogenbond:SER:125    0
halogenbond:SER:125    0
Name: 12, dtype: object

>  <hydroph_interaction:THR:126>  (13) 
hydroph_interaction:THR:126    0
hydroph_interaction:THR:126    0
Name: 12, dtype: object

>  <hbond:THR:126>  (13) 
hbond:THR:126    0
hbond:THR:126    0
Name: 12, dtype: object

>  <halogenbond:THR:126>  (13) 
halogenbond:THR:126    0
halogenbond:THR:126    0
Name: 12, dtype: object

>  <hbond:GLY:127>  (13) 
hbond:GLY:127    0
hbond:GLY:127    0
Name: 12, dtype: object

>  <halogenbond:GLY:127>  (13) 
halogenbond:GLY:127    0
halogenbond:GLY:127    0
Name: 12, dtype: object

>  <hydroph_interaction:GLY:127>  (13) 
hydroph_interaction:GLY:127    0
hydroph_interaction:GLY:127    0
Name: 12, dtype: object

>  <hbond:GLY:128>  (13) 
hbond:GLY:128    0
hbond:GLY:128    0
Name: 12, dtype: object

>  <halogenbond:GLY:128>  (13) 
halogenbond:GLY:128    0
halogenbond:GLY:128    0
Name: 12, dtype: object

>  <hydroph_interaction:GLY:128>  (13) 
hydroph_interaction:GLY:128    0
hydroph_interaction:GLY:128    0
Name: 12, dtype: object

>  <hbond:ASN:129>  (13) 
hbond:ASN:129    0
hbond:ASN:129    0
Name: 12, dtype: object

>  <hydroph_interaction:ASN:129>  (13) 
hydroph_interaction:ASN:129    0
hydroph_interaction:ASN:129    0
Name: 12, dtype: object

>  <halogenbond:ASN:129>  (13) 
halogenbond:ASN:129    0
halogenbond:ASN:129    0
Name: 12, dtype: object

>  <hbond:GLY:130>  (13) 
hbond:GLY:130    0
hbond:GLY:130    0
Name: 12, dtype: object

>  <hydroph_interaction:LEU:131>  (13) 
hydroph_interaction:LEU:131    0
hydroph_interaction:LEU:131    0
Name: 12, dtype: object

>  <hbond:LEU:131>  (13) 
hbond:LEU:131    0
hbond:LEU:131    0
Name: 12, dtype: object

>  <halogenbond:LEU:131>  (13) 
halogenbond:LEU:131    0
halogenbond:LEU:131    0
Name: 12, dtype: object

>  <hydroph_interaction:VAL:132>  (13) 
hydroph_interaction:VAL:132    0
hydroph_interaction:VAL:132    0
Name: 12, dtype: object

>  <hbond:VAL:132>  (13) 
hbond:VAL:132    0
hbond:VAL:132    0
Name: 12, dtype: object

>  <hbond:GLY:133>  (13) 
hbond:GLY:133    0
hbond:GLY:133    0
Name: 12, dtype: object

>  <halogenbond:GLY:133>  (13) 
halogenbond:GLY:133    0
halogenbond:GLY:133    0
Name: 12, dtype: object

>  <hydroph_interaction:PHE:134>  (13) 
hydroph_interaction:PHE:134    0
hydroph_interaction:PHE:134    0
Name: 12, dtype: object

>  <hbond:PHE:134>  (13) 
hbond:PHE:134    0
hbond:PHE:134    0
Name: 12, dtype: object

>  <pistack:PHE:134>  (13) 
pistack:PHE:134    0
pistack:PHE:134    0
Name: 12, dtype: object

>  <pication:PHE:134>  (13) 
pication:PHE:134    0
pication:PHE:134    0
Name: 12, dtype: object

>  <hydroph_interaction:ALA:135>  (13) 
hydroph_interaction:ALA:135    0
hydroph_interaction:ALA:135    0
Name: 12, dtype: object

>  <hbond:ALA:135>  (13) 
hbond:ALA:135    0
hbond:ALA:135    0
Name: 12, dtype: object

$$$$
Z4342066885
     RDKit          3D

 30 31  0  0  0  0  0  0  0  0999 V2000
   12.0820   15.7680   21.6030 C   0  0  0  0  0  0  0  0  0  0  0  0
   11.2750   14.5200   21.8230 C   0  0  0  0  0  0  0  0  0  0  0  0
   10.8770   13.9400   23.1380 C   0  0  0  0  0  0  0  0  0  0  0  0
   11.2720   14.5920   24.2880 C   0  0  0  0  0  0  0  0  0  0  0  0
   10.1390   12.7270   23.3880 C   0  0  0  0  0  0  0  0  0  0  0  0
   10.5070   11.6070   22.7750 N   0  0  0  0  0  0  0  0  0  0  0  0
    9.6990   10.6620   23.2260 N   0  0  0  0  0  0  0  0  0  0  0  0
    9.8800    9.3340   22.7370 C   0  0  0  0  0  0  0  0  0  0  0  0
    8.7840   11.1030   24.1260 C   0  0  0  0  0  0  0  0  0  0  0  0
    7.7690   10.4910   24.8640 C   0  0  0  0  0  0  0  0  0  0  0  0
    6.9720   11.2230   25.7250 C   0  0  0  0  0  0  0  0  0  0  0  0
    5.9730   10.5590   26.4490 N   0  0  0  0  0  0  0  0  0  0  0  0
    7.1800   12.5870   25.8520 C   0  0  0  0  0  0  0  0  0  0  0  0
    8.2030   13.2050   25.1180 C   0  0  0  0  0  0  0  0  0  0  0  0
    9.0210   12.4820   24.2560 C   0  0  0  0  0  0  0  0  0  0  0  0
   12.8670   15.5580   20.8710 H   0  0  0  0  0  0  0  0  0  0  0  0
   11.4350   16.5420   21.1900 H   0  0  0  0  0  0  0  0  0  0  0  0
   12.5660   16.1340   22.5130 H   0  0  0  0  0  0  0  0  0  0  0  0
   10.9820   14.0210   20.9050 H   0  0  0  0  0  0  0  0  0  0  0  0
   12.0300   14.0090   24.8040 H   0  0  0  0  0  0  0  0  0  0  0  0
   11.7150   15.5720   24.0850 H   0  0  0  0  0  0  0  0  0  0  0  0
   10.4330   14.7760   24.9690 H   0  0  0  0  0  0  0  0  0  0  0  0
   10.5090    8.7890   23.4220 H   0  0  0  0  0  0  0  0  0  0  0  0
    8.9060    8.8620   22.6240 H   0  0  0  0  0  0  0  0  0  0  0  0
   10.3340    9.3800   21.7430 H   0  0  0  0  0  0  0  0  0  0  0  0
    7.6050    9.4290   24.7610 H   0  0  0  0  0  0  0  0  0  0  0  0
    5.8670   10.8950   27.4010 H   0  0  0  0  0  0  0  0  0  0  0  0
    6.0840    9.5390   26.4130 H   0  0  0  0  0  0  0  0  0  0  0  0
    6.5570   13.1750   26.5200 H   0  0  0  0  0  0  0  0  0  0  0  0
    8.3540   14.2760   25.2380 H   0  0  0  0  0  0  0  0  0  0  0  0
  1  2  1  0
  2  3  2  3
  3  4  1  0
  3  5  1  0
  5  6  2  0
  6  7  1  0
  7  8  1  0
  7  9  1  0
  9 10  2  0
 10 11  1  0
 11 12  1  0
 11 13  2  0
 13 14  1  0
 14 15  2  0
 15  5  1  0
 15  9  1  0
  1 16  1  0
  1 17  1  0
  1 18  1  0
  2 19  1  0
  4 20  1  0
  4 21  1  0
  4 22  1  0
  8 23  1  0
  8 24  1  0
  8 25  1  0
 10 26  1  0
 12 27  1  0
 12 28  1  0
 13 29  1  0
 14 30  1  0
A    1
 C1 
A    2
 C2 
A    3
 C3 
A    4
 C4 
A    5
 C5 
A    6
 N1 
A    7
 N2 
A    8
 C6 
A    9
 C7 
A   10
 C8 
A   11
 C9 
A   12
 N3 
A   13
 C10
A   14
 C11
A   15
 C12
A   16
 H1 
A   17
 H2 
A   18
 H3 
A   19
 H4 
A   20
 H5 
A   21
 H6 
A   22
 H7 
A   23
 H8 
A   24
 H9 
A   25
 H10
A   26
 H11
A   27
 H12
A   28
 H13
A   29
 H14
A   30
 H15
M  END
>  <ref_pdb>  (14) 
x0310_0A

>  <ref_mols>  (14) 
x0451_0A,x0528_0A

>  <original SMILES>  (14) 
CC=C(C)c1nn(C)c2cc(N)ccc12

>  <rationale>  (14) 
info hbond:S105; hydroph_interaction:P107+Y90; 

>  <intxn_cluster>  (14) 
103

>  <intxn_cluster_rank>  (14) 
43

>  <N_interactions>  (14) 
4

>  <∆∆G>  (14) 
-10.92139

>  <$/mg>  (14) 
163.0

>  <comRMSD>  (14) 
0.67556

>  <N_rotatable_bonds>  (14) 
5

>  <hbond:SER:7>  (14) 
hbond:SER:7    0
hbond:SER:7    0
Name: 13, dtype: object

>  <halogenbond:SER:7>  (14) 
halogenbond:SER:7    0
halogenbond:SER:7    0
Name: 13, dtype: object

>  <hbond:GLY:8>  (14) 
hbond:GLY:8    0
hbond:GLY:8    0
Name: 13, dtype: object

>  <hydroph_interaction:ASN:19>  (14) 
hydroph_interaction:ASN:19    0
hydroph_interaction:ASN:19    0
Name: 13, dtype: object

>  <hbond:ASN:19>  (14) 
hbond:ASN:19    0
hbond:ASN:19    0
Name: 13, dtype: object

>  <halogenbond:ASN:19>  (14) 
halogenbond:ASN:19    0
halogenbond:ASN:19    0
Name: 13, dtype: object

>  <hbond:ARG:20>  (14) 
hbond:ARG:20    0
hbond:ARG:20    0
Name: 13, dtype: object

>  <hydroph_interaction:ARG:20>  (14) 
hydroph_interaction:ARG:20    0
hydroph_interaction:ARG:20    0
Name: 13, dtype: object

>  <saltbridge:ARG:20>  (14) 
saltbridge:ARG:20    0
saltbridge:ARG:20    0
Name: 13, dtype: object

>  <halogenbond:ARG:20>  (14) 
halogenbond:ARG:20    0
halogenbond:ARG:20    0
Name: 13, dtype: object

>  <pication:ARG:20>  (14) 
pication:ARG:20    0
pication:ARG:20    0
Name: 13, dtype: object

>  <hbond:HIS:21>  (14) 
hbond:HIS:21    0
hbond:HIS:21    0
Name: 13, dtype: object

>  <hydroph_interaction:HIS:21>  (14) 
hydroph_interaction:HIS:21    0
hydroph_interaction:HIS:21    0
Name: 13, dtype: object

>  <saltbridge:HIS:21>  (14) 
saltbridge:HIS:21    0
saltbridge:HIS:21    0
Name: 13, dtype: object

>  <pistack:HIS:21>  (14) 
pistack:HIS:21    0
pistack:HIS:21    0
Name: 13, dtype: object

>  <pication:HIS:21>  (14) 
pication:HIS:21    0
pication:HIS:21    0
Name: 13, dtype: object

>  <halogenbond:HIS:21>  (14) 
halogenbond:HIS:21    0
halogenbond:HIS:21    0
Name: 13, dtype: object

>  <hydroph_interaction:LEU:22>  (14) 
hydroph_interaction:LEU:22    0
hydroph_interaction:LEU:22    0
Name: 13, dtype: object

>  <hbond:LEU:22>  (14) 
hbond:LEU:22    0
hbond:LEU:22    0
Name: 13, dtype: object

>  <hydroph_interaction:TRP:28>  (14) 
hydroph_interaction:TRP:28    0
hydroph_interaction:TRP:28    0
Name: 13, dtype: object

>  <hbond:SER:36>  (14) 
hbond:SER:36    0
hbond:SER:36    0
Name: 13, dtype: object

>  <halogenbond:SER:36>  (14) 
halogenbond:SER:36    0
halogenbond:SER:36    0
Name: 13, dtype: object

>  <hbond:ARG:38>  (14) 
hbond:ARG:38    0
hbond:ARG:38    0
Name: 13, dtype: object

>  <halogenbond:ARG:38>  (14) 
halogenbond:ARG:38    0
halogenbond:ARG:38    0
Name: 13, dtype: object

>  <hbond:ASP:39>  (14) 
hbond:ASP:39    0
hbond:ASP:39    0
Name: 13, dtype: object

>  <saltbridge:ASP:39>  (14) 
saltbridge:ASP:39    0
saltbridge:ASP:39    0
Name: 13, dtype: object

>  <hydroph_interaction:ASP:39>  (14) 
hydroph_interaction:ASP:39    0
hydroph_interaction:ASP:39    0
Name: 13, dtype: object

>  <halogenbond:ASP:39>  (14) 
halogenbond:ASP:39    0
halogenbond:ASP:39    0
Name: 13, dtype: object

>  <hydroph_interaction:LEU:40>  (14) 
hydroph_interaction:LEU:40    0
hydroph_interaction:LEU:40    0
Name: 13, dtype: object

>  <hydroph_interaction:TYR:63>  (14) 
hydroph_interaction:TYR:63    0
hydroph_interaction:TYR:63    0
Name: 13, dtype: object

>  <pistack:TYR:63>  (14) 
pistack:TYR:63    0
pistack:TYR:63    0
Name: 13, dtype: object

>  <hbond:TYR:63>  (14) 
hbond:TYR:63    0
hbond:TYR:63    0
Name: 13, dtype: object

>  <hbond:TYR:64>  (14) 
hbond:TYR:64    0
hbond:TYR:64    0
Name: 13, dtype: object

>  <halogenbond:TYR:64>  (14) 
halogenbond:TYR:64    0
halogenbond:TYR:64    0
Name: 13, dtype: object

>  <hydroph_interaction:TYR:64>  (14) 
hydroph_interaction:TYR:64    0
hydroph_interaction:TYR:64    0
Name: 13, dtype: object

>  <hbond:CYS:65>  (14) 
hbond:CYS:65    0
hbond:CYS:65    0
Name: 13, dtype: object

>  <halogenbond:CYS:65>  (14) 
halogenbond:CYS:65    0
halogenbond:CYS:65    0
Name: 13, dtype: object

>  <hbond:SER:66>  (14) 
hbond:SER:66    0
hbond:SER:66    0
Name: 13, dtype: object

>  <hbond:SER:67>  (14) 
hbond:SER:67    0
hbond:SER:67    0
Name: 13, dtype: object

>  <halogenbond:SER:67>  (14) 
halogenbond:SER:67    0
halogenbond:SER:67    0
Name: 13, dtype: object

>  <hydroph_interaction:ARG:68>  (14) 
hydroph_interaction:ARG:68    0
hydroph_interaction:ARG:68    0
Name: 13, dtype: object

>  <hbond:ARG:68>  (14) 
hbond:ARG:68    0
hbond:ARG:68    0
Name: 13, dtype: object

>  <saltbridge:ARG:68>  (14) 
saltbridge:ARG:68    0
saltbridge:ARG:68    0
Name: 13, dtype: object

>  <pication:ARG:68>  (14) 
pication:ARG:68    0
pication:ARG:68    0
Name: 13, dtype: object

>  <hydroph_interaction:TYR:72>  (14) 
hydroph_interaction:TYR:72    0
hydroph_interaction:TYR:72    0
Name: 13, dtype: object

>  <hydroph_interaction:VAL:74>  (14) 
hydroph_interaction:VAL:74    0
hydroph_interaction:VAL:74    0
Name: 13, dtype: object

>  <hydroph_interaction:PHE:76>  (14) 
hydroph_interaction:PHE:76    0
hydroph_interaction:PHE:76    0
Name: 13, dtype: object

>  <hbond:SER:77>  (14) 
hbond:SER:77    0
hbond:SER:77    0
Name: 13, dtype: object

>  <hbond:SER:80>  (14) 
hbond:SER:80    0
hbond:SER:80    0
Name: 13, dtype: object

>  <hbond:LEU:81>  (14) 
hbond:LEU:81    0
hbond:LEU:81    0
Name: 13, dtype: object

>  <halogenbond:LEU:81>  (14) 
halogenbond:LEU:81    0
halogenbond:LEU:81    0
Name: 13, dtype: object

>  <hydroph_interaction:LEU:81>  (14) 
hydroph_interaction:LEU:81    0
hydroph_interaction:LEU:81    0
Name: 13, dtype: object

>  <hydroph_interaction:ILE:82>  (14) 
hydroph_interaction:ILE:82    0
hydroph_interaction:ILE:82    0
Name: 13, dtype: object

>  <hbond:ILE:82>  (14) 
hbond:ILE:82    0
hbond:ILE:82    0
Name: 13, dtype: object

>  <hydroph_interaction:PHE:83>  (14) 
hydroph_interaction:PHE:83    0
hydroph_interaction:PHE:83    0
Name: 13, dtype: object

>  <hbond:PHE:83>  (14) 
hbond:PHE:83    0
hbond:PHE:83    0
Name: 13, dtype: object

>  <halogenbond:PHE:83>  (14) 
halogenbond:PHE:83    0
halogenbond:PHE:83    0
Name: 13, dtype: object

>  <pistack:PHE:83>  (14) 
pistack:PHE:83    0
pistack:PHE:83    0
Name: 13, dtype: object

>  <hydroph_interaction:VAL:84>  (14) 
hydroph_interaction:VAL:84    0
hydroph_interaction:VAL:84    0
Name: 13, dtype: object

>  <hbond:VAL:84>  (14) 
hbond:VAL:84    0
hbond:VAL:84    0
Name: 13, dtype: object

>  <halogenbond:VAL:84>  (14) 
halogenbond:VAL:84    0
halogenbond:VAL:84    0
Name: 13, dtype: object

>  <hydroph_interaction:GLU:85>  (14) 
hydroph_interaction:GLU:85    0
hydroph_interaction:GLU:85    0
Name: 13, dtype: object

>  <hbond:GLU:85>  (14) 
hbond:GLU:85    0
hbond:GLU:85    0
Name: 13, dtype: object

>  <saltbridge:GLU:85>  (14) 
saltbridge:GLU:85    0
saltbridge:GLU:85    0
Name: 13, dtype: object

>  <halogenbond:GLU:85>  (14) 
halogenbond:GLU:85    0
halogenbond:GLU:85    0
Name: 13, dtype: object

>  <hbond:ALA:86>  (14) 
hbond:ALA:86    0
hbond:ALA:86    0
Name: 13, dtype: object

>  <halogenbond:ALA:86>  (14) 
halogenbond:ALA:86    0
halogenbond:ALA:86    0
Name: 13, dtype: object

>  <hydroph_interaction:ALA:86>  (14) 
hydroph_interaction:ALA:86    0
hydroph_interaction:ALA:86    0
Name: 13, dtype: object

>  <hbond:SER:87>  (14) 
hbond:SER:87    0
hbond:SER:87    0
Name: 13, dtype: object

>  <halogenbond:SER:87>  (14) 
halogenbond:SER:87    0
halogenbond:SER:87    0
Name: 13, dtype: object

>  <hbond:GLU:88>  (14) 
hbond:GLU:88    0
hbond:GLU:88    0
Name: 13, dtype: object

>  <hydroph_interaction:GLU:88>  (14) 
hydroph_interaction:GLU:88    0
hydroph_interaction:GLU:88    0
Name: 13, dtype: object

>  <halogenbond:GLU:88>  (14) 
halogenbond:GLU:88    0
halogenbond:GLU:88    0
Name: 13, dtype: object

>  <saltbridge:GLU:88>  (14) 
saltbridge:GLU:88    0
saltbridge:GLU:88    0
Name: 13, dtype: object

>  <hydroph_interaction:TYR:89>  (14) 
hydroph_interaction:TYR:89    0
hydroph_interaction:TYR:89    0
Name: 13, dtype: object

>  <pistack:TYR:89>  (14) 
pistack:TYR:89    0
pistack:TYR:89    0
Name: 13, dtype: object

>  <hbond:TYR:89>  (14) 
hbond:TYR:89    0
hbond:TYR:89    0
Name: 13, dtype: object

>  <halogenbond:TYR:89>  (14) 
halogenbond:TYR:89    0
halogenbond:TYR:89    0
Name: 13, dtype: object

>  <hbond:TYR:90>  (14) 
hbond:TYR:90    0
hbond:TYR:90    0
Name: 13, dtype: object

>  <hydroph_interaction:TYR:90>  (14) 
hydroph_interaction:TYR:90    1
hydroph_interaction:TYR:90    1
Name: 13, dtype: object

>  <pistack:TYR:90>  (14) 
pistack:TYR:90    0
pistack:TYR:90    0
Name: 13, dtype: object

>  <halogenbond:TYR:90>  (14) 
halogenbond:TYR:90    0
halogenbond:TYR:90    0
Name: 13, dtype: object

>  <pication:TYR:90>  (14) 
pication:TYR:90    0
pication:TYR:90    0
Name: 13, dtype: object

>  <hydroph_interaction:PRO:91>  (14) 
hydroph_interaction:PRO:91    0
hydroph_interaction:PRO:91    0
Name: 13, dtype: object

>  <halogenbond:PRO:91>  (14) 
halogenbond:PRO:91    0
halogenbond:PRO:91    0
Name: 13, dtype: object

>  <hbond:PRO:91>  (14) 
hbond:PRO:91    0
hbond:PRO:91    0
Name: 13, dtype: object

>  <hydroph_interaction:ALA:92>  (14) 
hydroph_interaction:ALA:92    0
hydroph_interaction:ALA:92    0
Name: 13, dtype: object

>  <hbond:ARG:93>  (14) 
hbond:ARG:93    0
hbond:ARG:93    0
Name: 13, dtype: object

>  <pication:ARG:93>  (14) 
pication:ARG:93    0
pication:ARG:93    0
Name: 13, dtype: object

>  <saltbridge:ARG:93>  (14) 
saltbridge:ARG:93    0
saltbridge:ARG:93    0
Name: 13, dtype: object

>  <hydroph_interaction:ARG:93>  (14) 
hydroph_interaction:ARG:93    0
hydroph_interaction:ARG:93    0
Name: 13, dtype: object

>  <halogenbond:ARG:93>  (14) 
halogenbond:ARG:93    0
halogenbond:ARG:93    0
Name: 13, dtype: object

>  <hydroph_interaction:TYR:94>  (14) 
hydroph_interaction:TYR:94    0
hydroph_interaction:TYR:94    0
Name: 13, dtype: object

>  <hbond:TYR:94>  (14) 
hbond:TYR:94    0
hbond:TYR:94    0
Name: 13, dtype: object

>  <halogenbond:GLN:95>  (14) 
halogenbond:GLN:95    0
halogenbond:GLN:95    0
Name: 13, dtype: object

>  <hbond:GLN:95>  (14) 
hbond:GLN:95    0
hbond:GLN:95    0
Name: 13, dtype: object

>  <hydroph_interaction:GLN:95>  (14) 
hydroph_interaction:GLN:95    0
hydroph_interaction:GLN:95    0
Name: 13, dtype: object

>  <hbond:SER:96>  (14) 
hbond:SER:96    0
hbond:SER:96    0
Name: 13, dtype: object

>  <hydroph_interaction:LEU:98>  (14) 
hydroph_interaction:LEU:98    0
hydroph_interaction:LEU:98    0
Name: 13, dtype: object

>  <hbond:LEU:98>  (14) 
hbond:LEU:98    0
hbond:LEU:98    0
Name: 13, dtype: object

>  <hbond:MET:99>  (14) 
hbond:MET:99    0
hbond:MET:99    0
Name: 13, dtype: object

>  <hydroph_interaction:MET:99>  (14) 
hydroph_interaction:MET:99    0
hydroph_interaction:MET:99    0
Name: 13, dtype: object

>  <halogenbond:MET:99>  (14) 
halogenbond:MET:99    0
halogenbond:MET:99    0
Name: 13, dtype: object

>  <hydroph_interaction:LEU:100>  (14) 
hydroph_interaction:LEU:100    0
hydroph_interaction:LEU:100    0
Name: 13, dtype: object

>  <hbond:LEU:100>  (14) 
hbond:LEU:100    0
hbond:LEU:100    0
Name: 13, dtype: object

>  <hbond:ALA:101>  (14) 
hbond:ALA:101    0
hbond:ALA:101    0
Name: 13, dtype: object

>  <hydroph_interaction:ALA:101>  (14) 
hydroph_interaction:ALA:101    0
hydroph_interaction:ALA:101    0
Name: 13, dtype: object

>  <hydroph_interaction:VAL:102>  (14) 
hydroph_interaction:VAL:102    0
hydroph_interaction:VAL:102    0
Name: 13, dtype: object

>  <hbond:VAL:102>  (14) 
hbond:VAL:102    0
hbond:VAL:102    0
Name: 13, dtype: object

>  <hbond:GLY:103>  (14) 
hbond:GLY:103    0
hbond:GLY:103    0
Name: 13, dtype: object

>  <halogenbond:GLY:103>  (14) 
halogenbond:GLY:103    0
halogenbond:GLY:103    0
Name: 13, dtype: object

>  <hydroph_interaction:HIS:104>  (14) 
hydroph_interaction:HIS:104    0
hydroph_interaction:HIS:104    0
Name: 13, dtype: object

>  <hbond:HIS:104>  (14) 
hbond:HIS:104    0
hbond:HIS:104    0
Name: 13, dtype: object

>  <saltbridge:HIS:104>  (14) 
saltbridge:HIS:104    0
saltbridge:HIS:104    0
Name: 13, dtype: object

>  <pication:HIS:104>  (14) 
pication:HIS:104    0
pication:HIS:104    0
Name: 13, dtype: object

>  <pistack:HIS:104>  (14) 
pistack:HIS:104    0
pistack:HIS:104    0
Name: 13, dtype: object

>  <halogenbond:HIS:104>  (14) 
halogenbond:HIS:104    0
halogenbond:HIS:104    0
Name: 13, dtype: object

>  <hbond:SER:105>  (14) 
hbond:SER:105    1
hbond:SER:105    1
Name: 13, dtype: object

>  <halogenbond:SER:105>  (14) 
halogenbond:SER:105    0
halogenbond:SER:105    0
Name: 13, dtype: object

>  <hbond:GLU:106>  (14) 
hbond:GLU:106    0
hbond:GLU:106    0
Name: 13, dtype: object

>  <hydroph_interaction:GLU:106>  (14) 
hydroph_interaction:GLU:106    0
hydroph_interaction:GLU:106    0
Name: 13, dtype: object

>  <saltbridge:GLU:106>  (14) 
saltbridge:GLU:106    0
saltbridge:GLU:106    0
Name: 13, dtype: object

>  <halogenbond:GLU:106>  (14) 
halogenbond:GLU:106    0
halogenbond:GLU:106    0
Name: 13, dtype: object

>  <hydroph_interaction:PRO:107>  (14) 
hydroph_interaction:PRO:107    2
hydroph_interaction:PRO:107    2
Name: 13, dtype: object

>  <hbond:PRO:107>  (14) 
hbond:PRO:107    0
hbond:PRO:107    0
Name: 13, dtype: object

>  <halogenbond:PRO:107>  (14) 
halogenbond:PRO:107    0
halogenbond:PRO:107    0
Name: 13, dtype: object

>  <hbond:GLY:108>  (14) 
hbond:GLY:108    0
hbond:GLY:108    0
Name: 13, dtype: object

>  <halogenbond:GLY:108>  (14) 
halogenbond:GLY:108    0
halogenbond:GLY:108    0
Name: 13, dtype: object

>  <hbond:ASP:109>  (14) 
hbond:ASP:109    0
hbond:ASP:109    0
Name: 13, dtype: object

>  <hydroph_interaction:ASP:109>  (14) 
hydroph_interaction:ASP:109    0
hydroph_interaction:ASP:109    0
Name: 13, dtype: object

>  <saltbridge:ASP:109>  (14) 
saltbridge:ASP:109    0
saltbridge:ASP:109    0
Name: 13, dtype: object

>  <hbond:CYS:110>  (14) 
hbond:CYS:110    0
hbond:CYS:110    0
Name: 13, dtype: object

>  <halogenbond:CYS:110>  (14) 
halogenbond:CYS:110    0
halogenbond:CYS:110    0
Name: 13, dtype: object

>  <hbond:GLY:111>  (14) 
hbond:GLY:111    0
hbond:GLY:111    0
Name: 13, dtype: object

>  <hbond:GLY:112>  (14) 
hbond:GLY:112    0
hbond:GLY:112    0
Name: 13, dtype: object

>  <hbond:ILE:113>  (14) 
hbond:ILE:113    0
hbond:ILE:113    0
Name: 13, dtype: object

>  <hydroph_interaction:LEU:114>  (14) 
hydroph_interaction:LEU:114    0
hydroph_interaction:LEU:114    0
Name: 13, dtype: object

>  <hbond:LEU:114>  (14) 
hbond:LEU:114    0
hbond:LEU:114    0
Name: 13, dtype: object

>  <hydroph_interaction:ILE:123>  (14) 
hydroph_interaction:ILE:123    0
hydroph_interaction:ILE:123    0
Name: 13, dtype: object

>  <hbond:ILE:123>  (14) 
hbond:ILE:123    0
hbond:ILE:123    0
Name: 13, dtype: object

>  <hydroph_interaction:VAL:124>  (14) 
hydroph_interaction:VAL:124    0
hydroph_interaction:VAL:124    0
Name: 13, dtype: object

>  <hbond:VAL:124>  (14) 
hbond:VAL:124    0
hbond:VAL:124    0
Name: 13, dtype: object

>  <halogenbond:VAL:124>  (14) 
halogenbond:VAL:124    0
halogenbond:VAL:124    0
Name: 13, dtype: object

>  <hbond:SER:125>  (14) 
hbond:SER:125    0
hbond:SER:125    0
Name: 13, dtype: object

>  <halogenbond:SER:125>  (14) 
halogenbond:SER:125    0
halogenbond:SER:125    0
Name: 13, dtype: object

>  <hydroph_interaction:THR:126>  (14) 
hydroph_interaction:THR:126    0
hydroph_interaction:THR:126    0
Name: 13, dtype: object

>  <hbond:THR:126>  (14) 
hbond:THR:126    0
hbond:THR:126    0
Name: 13, dtype: object

>  <halogenbond:THR:126>  (14) 
halogenbond:THR:126    0
halogenbond:THR:126    0
Name: 13, dtype: object

>  <hbond:GLY:127>  (14) 
hbond:GLY:127    0
hbond:GLY:127    0
Name: 13, dtype: object

>  <halogenbond:GLY:127>  (14) 
halogenbond:GLY:127    0
halogenbond:GLY:127    0
Name: 13, dtype: object

>  <hydroph_interaction:GLY:127>  (14) 
hydroph_interaction:GLY:127    0
hydroph_interaction:GLY:127    0
Name: 13, dtype: object

>  <hbond:GLY:128>  (14) 
hbond:GLY:128    0
hbond:GLY:128    0
Name: 13, dtype: object

>  <halogenbond:GLY:128>  (14) 
halogenbond:GLY:128    0
halogenbond:GLY:128    0
Name: 13, dtype: object

>  <hydroph_interaction:GLY:128>  (14) 
hydroph_interaction:GLY:128    0
hydroph_interaction:GLY:128    0
Name: 13, dtype: object

>  <hbond:ASN:129>  (14) 
hbond:ASN:129    0
hbond:ASN:129    0
Name: 13, dtype: object

>  <hydroph_interaction:ASN:129>  (14) 
hydroph_interaction:ASN:129    0
hydroph_interaction:ASN:129    0
Name: 13, dtype: object

>  <halogenbond:ASN:129>  (14) 
halogenbond:ASN:129    0
halogenbond:ASN:129    0
Name: 13, dtype: object

>  <hbond:GLY:130>  (14) 
hbond:GLY:130    0
hbond:GLY:130    0
Name: 13, dtype: object

>  <hydroph_interaction:LEU:131>  (14) 
hydroph_interaction:LEU:131    0
hydroph_interaction:LEU:131    0
Name: 13, dtype: object

>  <hbond:LEU:131>  (14) 
hbond:LEU:131    0
hbond:LEU:131    0
Name: 13, dtype: object

>  <halogenbond:LEU:131>  (14) 
halogenbond:LEU:131    0
halogenbond:LEU:131    0
Name: 13, dtype: object

>  <hydroph_interaction:VAL:132>  (14) 
hydroph_interaction:VAL:132    0
hydroph_interaction:VAL:132    0
Name: 13, dtype: object

>  <hbond:VAL:132>  (14) 
hbond:VAL:132    0
hbond:VAL:132    0
Name: 13, dtype: object

>  <hbond:GLY:133>  (14) 
hbond:GLY:133    0
hbond:GLY:133    0
Name: 13, dtype: object

>  <halogenbond:GLY:133>  (14) 
halogenbond:GLY:133    0
halogenbond:GLY:133    0
Name: 13, dtype: object

>  <hydroph_interaction:PHE:134>  (14) 
hydroph_interaction:PHE:134    0
hydroph_interaction:PHE:134    0
Name: 13, dtype: object

>  <hbond:PHE:134>  (14) 
hbond:PHE:134    0
hbond:PHE:134    0
Name: 13, dtype: object

>  <pistack:PHE:134>  (14) 
pistack:PHE:134    0
pistack:PHE:134    0
Name: 13, dtype: object

>  <pication:PHE:134>  (14) 
pication:PHE:134    0
pication:PHE:134    0
Name: 13, dtype: object

>  <hydroph_interaction:ALA:135>  (14) 
hydroph_interaction:ALA:135    0
hydroph_interaction:ALA:135    0
Name: 13, dtype: object

>  <hbond:ALA:135>  (14) 
hbond:ALA:135    0
hbond:ALA:135    0
Name: 13, dtype: object

$$$$
Z2824693107
     RDKit          3D

 33 33  0  0  0  0  0  0  0  0999 V2000
   10.3210    9.1650   22.6910 C   0  0  0  0  0  0  0  0  0  0  0  0
    9.4940   10.1930   23.4170 C   0  0  0  0  0  0  0  0  0  0  0  0
    8.5250    9.7160   24.2610 N   0  0  0  0  0  0  0  0  0  0  0  0
    7.9610   10.8420   24.7370 N   0  0  0  0  0  0  0  0  0  0  0  0
    6.8590   10.7460   25.6690 C   0  0  0  0  0  0  0  0  0  0  0  0
    8.5230   11.9940   24.2470 C   0  0  0  0  0  0  0  0  0  0  0  0
    8.0580   13.2500   24.6330 C   0  0  0  0  0  0  0  0  0  0  0  0
    9.5260   11.6010   23.3880 C   0  0  0  0  0  0  0  0  0  0  0  0
   10.3940   12.3520   22.6430 N   0  0  0  0  0  0  0  0  0  0  0  0
   11.1070   13.4100   23.1070 C   0  0  0  0  0  0  0  0  0  0  0  0
   11.0170   13.9130   24.2190 O   0  0  0  0  0  0  0  0  0  0  0  0
   12.0360   13.9350   22.0580 C   0  0  0  0  0  0  0  0  0  0  0  0
   12.8770   15.0950   22.4350 C   0  0  1  0  0  0  0  0  0  0  0  0
   12.2010   16.3540   21.9970 C   0  0  0  0  0  0  0  0  0  0  0  0
   13.0520   15.1210   23.8910 N   0  0  0  0  0  0  0  0  0  0  0  0
   10.7580    9.6270   21.8060 H   0  0  0  0  0  0  0  0  0  0  0  0
   11.1150    8.7590   23.3220 H   0  0  0  0  0  0  0  0  0  0  0  0
    9.6770    8.3480   22.3750 H   0  0  0  0  0  0  0  0  0  0  0  0
    6.2780    9.8680   25.4160 H   0  0  0  0  0  0  0  0  0  0  0  0
    6.2320   11.6380   25.5770 H   0  0  0  0  0  0  0  0  0  0  0  0
    7.2330   10.6770   26.6860 H   0  0  0  0  0  0  0  0  0  0  0  0
    7.1100   13.4780   24.1360 H   0  0  0  0  0  0  0  0  0  0  0  0
    8.7460   14.0560   24.3600 H   0  0  0  0  0  0  0  0  0  0  0  0
    7.9250   13.2900   25.7180 H   0  0  0  0  0  0  0  0  0  0  0  0
   10.5730   12.0520   21.6820 H   0  0  0  0  0  0  0  0  0  0  0  0
   11.4430   14.1890   21.1700 H   0  0  0  0  0  0  0  0  0  0  0  0
   12.6900   13.1120   21.7700 H   0  0  0  0  0  0  0  0  0  0  0  0
   13.8610   15.0370   21.9650 H   0  0  0  0  0  0  0  0  0  0  0  0
   12.8040   16.8730   21.2650 H   0  0  0  0  0  0  0  0  0  0  0  0
   11.2360   16.1390   21.5300 H   0  0  0  0  0  0  0  0  0  0  0  0
   12.0420   17.0330   22.8320 H   0  0  0  0  0  0  0  0  0  0  0  0
   13.2850   16.0680   24.2030 H   0  0  0  0  0  0  0  0  0  0  0  0
   12.1810   14.8650   24.3520 H   0  0  0  0  0  0  0  0  0  0  0  0
  1  2  1  0
  2  3  2  0
  3  4  1  0
  4  5  1  0
  4  6  1  0
  6  7  1  0
  6  8  2  0
  8  9  1  0
  9 10  1  0
 10 11  2  0
 10 12  1  0
 12 13  1  0
 13 14  1  0
 13 15  1  0
  8  2  1  0
  1 16  1  0
  1 17  1  0
  1 18  1  0
  5 19  1  0
  5 20  1  0
  5 21  1  0
  7 22  1  0
  7 23  1  0
  7 24  1  0
  9 25  1  0
 12 26  1  0
 12 27  1  0
 13 28  1  6
 14 29  1  0
 14 30  1  0
 14 31  1  0
 15 32  1  0
 15 33  1  0
A    1
 C1 
A    2
 C2 
A    3
 N1 
A    4
 N2 
A    5
 C3 
A    6
 C4 
A    7
 C5 
A    8
 C6 
A    9
 N3 
A   10
 C7 
A   11
 O1 
A   12
 C8 
A   13
 C9 
A   14
 C10
A   15
 N4 
A   16
 H1 
A   17
 H2 
A   18
 H3 
A   19
 H4 
A   20
 H5 
A   21
 H6 
A   22
 H7 
A   23
 H8 
A   24
 H9 
A   25
 H10
A   26
 H11
A   27
 H12
A   28
 H13
A   29
 H14
A   30
 H15
A   31
 H16
A   32
 H17
A   33
 H18
M  END
>  <ref_pdb>  (15) 
x0310_0A

>  <ref_mols>  (15) 
x0310_0A,x0812_0A

>  <original SMILES>  (15) 
Cc1nn(C)c(C)c1NC(=O)C[C@@H](C)N

>  <rationale>  (15) 
info hbond:S125+G127+E88; hydroph_interaction:V124+Y89+Y90; 

>  <intxn_cluster>  (15) 
103

>  <intxn_cluster_rank>  (15) 
45

>  <N_interactions>  (15) 
6

>  <∆∆G>  (15) 
-12.829462

>  <$/mg>  (15) 
163.0

>  <comRMSD>  (15) 
0.840775

>  <N_rotatable_bonds>  (15) 
8

>  <hbond:SER:7>  (15) 
hbond:SER:7    0
hbond:SER:7    0
Name: 14, dtype: object

>  <halogenbond:SER:7>  (15) 
halogenbond:SER:7    0
halogenbond:SER:7    0
Name: 14, dtype: object

>  <hbond:GLY:8>  (15) 
hbond:GLY:8    0
hbond:GLY:8    0
Name: 14, dtype: object

>  <hydroph_interaction:ASN:19>  (15) 
hydroph_interaction:ASN:19    0
hydroph_interaction:ASN:19    0
Name: 14, dtype: object

>  <hbond:ASN:19>  (15) 
hbond:ASN:19    0
hbond:ASN:19    0
Name: 14, dtype: object

>  <halogenbond:ASN:19>  (15) 
halogenbond:ASN:19    0
halogenbond:ASN:19    0
Name: 14, dtype: object

>  <hbond:ARG:20>  (15) 
hbond:ARG:20    0
hbond:ARG:20    0
Name: 14, dtype: object

>  <hydroph_interaction:ARG:20>  (15) 
hydroph_interaction:ARG:20    0
hydroph_interaction:ARG:20    0
Name: 14, dtype: object

>  <saltbridge:ARG:20>  (15) 
saltbridge:ARG:20    0
saltbridge:ARG:20    0
Name: 14, dtype: object

>  <halogenbond:ARG:20>  (15) 
halogenbond:ARG:20    0
halogenbond:ARG:20    0
Name: 14, dtype: object

>  <pication:ARG:20>  (15) 
pication:ARG:20    0
pication:ARG:20    0
Name: 14, dtype: object

>  <hbond:HIS:21>  (15) 
hbond:HIS:21    0
hbond:HIS:21    0
Name: 14, dtype: object

>  <hydroph_interaction:HIS:21>  (15) 
hydroph_interaction:HIS:21    0
hydroph_interaction:HIS:21    0
Name: 14, dtype: object

>  <saltbridge:HIS:21>  (15) 
saltbridge:HIS:21    0
saltbridge:HIS:21    0
Name: 14, dtype: object

>  <pistack:HIS:21>  (15) 
pistack:HIS:21    0
pistack:HIS:21    0
Name: 14, dtype: object

>  <pication:HIS:21>  (15) 
pication:HIS:21    0
pication:HIS:21    0
Name: 14, dtype: object

>  <halogenbond:HIS:21>  (15) 
halogenbond:HIS:21    0
halogenbond:HIS:21    0
Name: 14, dtype: object

>  <hydroph_interaction:LEU:22>  (15) 
hydroph_interaction:LEU:22    0
hydroph_interaction:LEU:22    0
Name: 14, dtype: object

>  <hbond:LEU:22>  (15) 
hbond:LEU:22    0
hbond:LEU:22    0
Name: 14, dtype: object

>  <hydroph_interaction:TRP:28>  (15) 
hydroph_interaction:TRP:28    0
hydroph_interaction:TRP:28    0
Name: 14, dtype: object

>  <hbond:SER:36>  (15) 
hbond:SER:36    0
hbond:SER:36    0
Name: 14, dtype: object

>  <halogenbond:SER:36>  (15) 
halogenbond:SER:36    0
halogenbond:SER:36    0
Name: 14, dtype: object

>  <hbond:ARG:38>  (15) 
hbond:ARG:38    0
hbond:ARG:38    0
Name: 14, dtype: object

>  <halogenbond:ARG:38>  (15) 
halogenbond:ARG:38    0
halogenbond:ARG:38    0
Name: 14, dtype: object

>  <hbond:ASP:39>  (15) 
hbond:ASP:39    0
hbond:ASP:39    0
Name: 14, dtype: object

>  <saltbridge:ASP:39>  (15) 
saltbridge:ASP:39    0
saltbridge:ASP:39    0
Name: 14, dtype: object

>  <hydroph_interaction:ASP:39>  (15) 
hydroph_interaction:ASP:39    0
hydroph_interaction:ASP:39    0
Name: 14, dtype: object

>  <halogenbond:ASP:39>  (15) 
halogenbond:ASP:39    0
halogenbond:ASP:39    0
Name: 14, dtype: object

>  <hydroph_interaction:LEU:40>  (15) 
hydroph_interaction:LEU:40    0
hydroph_interaction:LEU:40    0
Name: 14, dtype: object

>  <hydroph_interaction:TYR:63>  (15) 
hydroph_interaction:TYR:63    0
hydroph_interaction:TYR:63    0
Name: 14, dtype: object

>  <pistack:TYR:63>  (15) 
pistack:TYR:63    0
pistack:TYR:63    0
Name: 14, dtype: object

>  <hbond:TYR:63>  (15) 
hbond:TYR:63    0
hbond:TYR:63    0
Name: 14, dtype: object

>  <hbond:TYR:64>  (15) 
hbond:TYR:64    0
hbond:TYR:64    0
Name: 14, dtype: object

>  <halogenbond:TYR:64>  (15) 
halogenbond:TYR:64    0
halogenbond:TYR:64    0
Name: 14, dtype: object

>  <hydroph_interaction:TYR:64>  (15) 
hydroph_interaction:TYR:64    0
hydroph_interaction:TYR:64    0
Name: 14, dtype: object

>  <hbond:CYS:65>  (15) 
hbond:CYS:65    0
hbond:CYS:65    0
Name: 14, dtype: object

>  <halogenbond:CYS:65>  (15) 
halogenbond:CYS:65    0
halogenbond:CYS:65    0
Name: 14, dtype: object

>  <hbond:SER:66>  (15) 
hbond:SER:66    0
hbond:SER:66    0
Name: 14, dtype: object

>  <hbond:SER:67>  (15) 
hbond:SER:67    0
hbond:SER:67    0
Name: 14, dtype: object

>  <halogenbond:SER:67>  (15) 
halogenbond:SER:67    0
halogenbond:SER:67    0
Name: 14, dtype: object

>  <hydroph_interaction:ARG:68>  (15) 
hydroph_interaction:ARG:68    0
hydroph_interaction:ARG:68    0
Name: 14, dtype: object

>  <hbond:ARG:68>  (15) 
hbond:ARG:68    0
hbond:ARG:68    0
Name: 14, dtype: object

>  <saltbridge:ARG:68>  (15) 
saltbridge:ARG:68    0
saltbridge:ARG:68    0
Name: 14, dtype: object

>  <pication:ARG:68>  (15) 
pication:ARG:68    0
pication:ARG:68    0
Name: 14, dtype: object

>  <hydroph_interaction:TYR:72>  (15) 
hydroph_interaction:TYR:72    0
hydroph_interaction:TYR:72    0
Name: 14, dtype: object

>  <hydroph_interaction:VAL:74>  (15) 
hydroph_interaction:VAL:74    0
hydroph_interaction:VAL:74    0
Name: 14, dtype: object

>  <hydroph_interaction:PHE:76>  (15) 
hydroph_interaction:PHE:76    0
hydroph_interaction:PHE:76    0
Name: 14, dtype: object

>  <hbond:SER:77>  (15) 
hbond:SER:77    0
hbond:SER:77    0
Name: 14, dtype: object

>  <hbond:SER:80>  (15) 
hbond:SER:80    0
hbond:SER:80    0
Name: 14, dtype: object

>  <hbond:LEU:81>  (15) 
hbond:LEU:81    0
hbond:LEU:81    0
Name: 14, dtype: object

>  <halogenbond:LEU:81>  (15) 
halogenbond:LEU:81    0
halogenbond:LEU:81    0
Name: 14, dtype: object

>  <hydroph_interaction:LEU:81>  (15) 
hydroph_interaction:LEU:81    0
hydroph_interaction:LEU:81    0
Name: 14, dtype: object

>  <hydroph_interaction:ILE:82>  (15) 
hydroph_interaction:ILE:82    0
hydroph_interaction:ILE:82    0
Name: 14, dtype: object

>  <hbond:ILE:82>  (15) 
hbond:ILE:82    0
hbond:ILE:82    0
Name: 14, dtype: object

>  <hydroph_interaction:PHE:83>  (15) 
hydroph_interaction:PHE:83    0
hydroph_interaction:PHE:83    0
Name: 14, dtype: object

>  <hbond:PHE:83>  (15) 
hbond:PHE:83    0
hbond:PHE:83    0
Name: 14, dtype: object

>  <halogenbond:PHE:83>  (15) 
halogenbond:PHE:83    0
halogenbond:PHE:83    0
Name: 14, dtype: object

>  <pistack:PHE:83>  (15) 
pistack:PHE:83    0
pistack:PHE:83    0
Name: 14, dtype: object

>  <hydroph_interaction:VAL:84>  (15) 
hydroph_interaction:VAL:84    0
hydroph_interaction:VAL:84    0
Name: 14, dtype: object

>  <hbond:VAL:84>  (15) 
hbond:VAL:84    0
hbond:VAL:84    0
Name: 14, dtype: object

>  <halogenbond:VAL:84>  (15) 
halogenbond:VAL:84    0
halogenbond:VAL:84    0
Name: 14, dtype: object

>  <hydroph_interaction:GLU:85>  (15) 
hydroph_interaction:GLU:85    0
hydroph_interaction:GLU:85    0
Name: 14, dtype: object

>  <hbond:GLU:85>  (15) 
hbond:GLU:85    0
hbond:GLU:85    0
Name: 14, dtype: object

>  <saltbridge:GLU:85>  (15) 
saltbridge:GLU:85    0
saltbridge:GLU:85    0
Name: 14, dtype: object

>  <halogenbond:GLU:85>  (15) 
halogenbond:GLU:85    0
halogenbond:GLU:85    0
Name: 14, dtype: object

>  <hbond:ALA:86>  (15) 
hbond:ALA:86    0
hbond:ALA:86    0
Name: 14, dtype: object

>  <halogenbond:ALA:86>  (15) 
halogenbond:ALA:86    0
halogenbond:ALA:86    0
Name: 14, dtype: object

>  <hydroph_interaction:ALA:86>  (15) 
hydroph_interaction:ALA:86    0
hydroph_interaction:ALA:86    0
Name: 14, dtype: object

>  <hbond:SER:87>  (15) 
hbond:SER:87    0
hbond:SER:87    0
Name: 14, dtype: object

>  <halogenbond:SER:87>  (15) 
halogenbond:SER:87    0
halogenbond:SER:87    0
Name: 14, dtype: object

>  <hbond:GLU:88>  (15) 
hbond:GLU:88    1
hbond:GLU:88    1
Name: 14, dtype: object

>  <hydroph_interaction:GLU:88>  (15) 
hydroph_interaction:GLU:88    0
hydroph_interaction:GLU:88    0
Name: 14, dtype: object

>  <halogenbond:GLU:88>  (15) 
halogenbond:GLU:88    0
halogenbond:GLU:88    0
Name: 14, dtype: object

>  <saltbridge:GLU:88>  (15) 
saltbridge:GLU:88    0
saltbridge:GLU:88    0
Name: 14, dtype: object

>  <hydroph_interaction:TYR:89>  (15) 
hydroph_interaction:TYR:89    1
hydroph_interaction:TYR:89    1
Name: 14, dtype: object

>  <pistack:TYR:89>  (15) 
pistack:TYR:89    0
pistack:TYR:89    0
Name: 14, dtype: object

>  <hbond:TYR:89>  (15) 
hbond:TYR:89    0
hbond:TYR:89    0
Name: 14, dtype: object

>  <halogenbond:TYR:89>  (15) 
halogenbond:TYR:89    0
halogenbond:TYR:89    0
Name: 14, dtype: object

>  <hbond:TYR:90>  (15) 
hbond:TYR:90    0
hbond:TYR:90    0
Name: 14, dtype: object

>  <hydroph_interaction:TYR:90>  (15) 
hydroph_interaction:TYR:90    1
hydroph_interaction:TYR:90    1
Name: 14, dtype: object

>  <pistack:TYR:90>  (15) 
pistack:TYR:90    0
pistack:TYR:90    0
Name: 14, dtype: object

>  <halogenbond:TYR:90>  (15) 
halogenbond:TYR:90    0
halogenbond:TYR:90    0
Name: 14, dtype: object

>  <pication:TYR:90>  (15) 
pication:TYR:90    0
pication:TYR:90    0
Name: 14, dtype: object

>  <hydroph_interaction:PRO:91>  (15) 
hydroph_interaction:PRO:91    0
hydroph_interaction:PRO:91    0
Name: 14, dtype: object

>  <halogenbond:PRO:91>  (15) 
halogenbond:PRO:91    0
halogenbond:PRO:91    0
Name: 14, dtype: object

>  <hbond:PRO:91>  (15) 
hbond:PRO:91    0
hbond:PRO:91    0
Name: 14, dtype: object

>  <hydroph_interaction:ALA:92>  (15) 
hydroph_interaction:ALA:92    0
hydroph_interaction:ALA:92    0
Name: 14, dtype: object

>  <hbond:ARG:93>  (15) 
hbond:ARG:93    0
hbond:ARG:93    0
Name: 14, dtype: object

>  <pication:ARG:93>  (15) 
pication:ARG:93    0
pication:ARG:93    0
Name: 14, dtype: object

>  <saltbridge:ARG:93>  (15) 
saltbridge:ARG:93    0
saltbridge:ARG:93    0
Name: 14, dtype: object

>  <hydroph_interaction:ARG:93>  (15) 
hydroph_interaction:ARG:93    0
hydroph_interaction:ARG:93    0
Name: 14, dtype: object

>  <halogenbond:ARG:93>  (15) 
halogenbond:ARG:93    0
halogenbond:ARG:93    0
Name: 14, dtype: object

>  <hydroph_interaction:TYR:94>  (15) 
hydroph_interaction:TYR:94    0
hydroph_interaction:TYR:94    0
Name: 14, dtype: object

>  <hbond:TYR:94>  (15) 
hbond:TYR:94    0
hbond:TYR:94    0
Name: 14, dtype: object

>  <halogenbond:GLN:95>  (15) 
halogenbond:GLN:95    0
halogenbond:GLN:95    0
Name: 14, dtype: object

>  <hbond:GLN:95>  (15) 
hbond:GLN:95    0
hbond:GLN:95    0
Name: 14, dtype: object

>  <hydroph_interaction:GLN:95>  (15) 
hydroph_interaction:GLN:95    0
hydroph_interaction:GLN:95    0
Name: 14, dtype: object

>  <hbond:SER:96>  (15) 
hbond:SER:96    0
hbond:SER:96    0
Name: 14, dtype: object

>  <hydroph_interaction:LEU:98>  (15) 
hydroph_interaction:LEU:98    0
hydroph_interaction:LEU:98    0
Name: 14, dtype: object

>  <hbond:LEU:98>  (15) 
hbond:LEU:98    0
hbond:LEU:98    0
Name: 14, dtype: object

>  <hbond:MET:99>  (15) 
hbond:MET:99    0
hbond:MET:99    0
Name: 14, dtype: object

>  <hydroph_interaction:MET:99>  (15) 
hydroph_interaction:MET:99    0
hydroph_interaction:MET:99    0
Name: 14, dtype: object

>  <halogenbond:MET:99>  (15) 
halogenbond:MET:99    0
halogenbond:MET:99    0
Name: 14, dtype: object

>  <hydroph_interaction:LEU:100>  (15) 
hydroph_interaction:LEU:100    0
hydroph_interaction:LEU:100    0
Name: 14, dtype: object

>  <hbond:LEU:100>  (15) 
hbond:LEU:100    0
hbond:LEU:100    0
Name: 14, dtype: object

>  <hbond:ALA:101>  (15) 
hbond:ALA:101    0
hbond:ALA:101    0
Name: 14, dtype: object

>  <hydroph_interaction:ALA:101>  (15) 
hydroph_interaction:ALA:101    0
hydroph_interaction:ALA:101    0
Name: 14, dtype: object

>  <hydroph_interaction:VAL:102>  (15) 
hydroph_interaction:VAL:102    0
hydroph_interaction:VAL:102    0
Name: 14, dtype: object

>  <hbond:VAL:102>  (15) 
hbond:VAL:102    0
hbond:VAL:102    0
Name: 14, dtype: object

>  <hbond:GLY:103>  (15) 
hbond:GLY:103    0
hbond:GLY:103    0
Name: 14, dtype: object

>  <halogenbond:GLY:103>  (15) 
halogenbond:GLY:103    0
halogenbond:GLY:103    0
Name: 14, dtype: object

>  <hydroph_interaction:HIS:104>  (15) 
hydroph_interaction:HIS:104    0
hydroph_interaction:HIS:104    0
Name: 14, dtype: object

>  <hbond:HIS:104>  (15) 
hbond:HIS:104    0
hbond:HIS:104    0
Name: 14, dtype: object

>  <saltbridge:HIS:104>  (15) 
saltbridge:HIS:104    0
saltbridge:HIS:104    0
Name: 14, dtype: object

>  <pication:HIS:104>  (15) 
pication:HIS:104    0
pication:HIS:104    0
Name: 14, dtype: object

>  <pistack:HIS:104>  (15) 
pistack:HIS:104    0
pistack:HIS:104    0
Name: 14, dtype: object

>  <halogenbond:HIS:104>  (15) 
halogenbond:HIS:104    0
halogenbond:HIS:104    0
Name: 14, dtype: object

>  <hbond:SER:105>  (15) 
hbond:SER:105    0
hbond:SER:105    0
Name: 14, dtype: object

>  <halogenbond:SER:105>  (15) 
halogenbond:SER:105    0
halogenbond:SER:105    0
Name: 14, dtype: object

>  <hbond:GLU:106>  (15) 
hbond:GLU:106    0
hbond:GLU:106    0
Name: 14, dtype: object

>  <hydroph_interaction:GLU:106>  (15) 
hydroph_interaction:GLU:106    0
hydroph_interaction:GLU:106    0
Name: 14, dtype: object

>  <saltbridge:GLU:106>  (15) 
saltbridge:GLU:106    0
saltbridge:GLU:106    0
Name: 14, dtype: object

>  <halogenbond:GLU:106>  (15) 
halogenbond:GLU:106    0
halogenbond:GLU:106    0
Name: 14, dtype: object

>  <hydroph_interaction:PRO:107>  (15) 
hydroph_interaction:PRO:107    0
hydroph_interaction:PRO:107    0
Name: 14, dtype: object

>  <hbond:PRO:107>  (15) 
hbond:PRO:107    0
hbond:PRO:107    0
Name: 14, dtype: object

>  <halogenbond:PRO:107>  (15) 
halogenbond:PRO:107    0
halogenbond:PRO:107    0
Name: 14, dtype: object

>  <hbond:GLY:108>  (15) 
hbond:GLY:108    0
hbond:GLY:108    0
Name: 14, dtype: object

>  <halogenbond:GLY:108>  (15) 
halogenbond:GLY:108    0
halogenbond:GLY:108    0
Name: 14, dtype: object

>  <hbond:ASP:109>  (15) 
hbond:ASP:109    0
hbond:ASP:109    0
Name: 14, dtype: object

>  <hydroph_interaction:ASP:109>  (15) 
hydroph_interaction:ASP:109    0
hydroph_interaction:ASP:109    0
Name: 14, dtype: object

>  <saltbridge:ASP:109>  (15) 
saltbridge:ASP:109    0
saltbridge:ASP:109    0
Name: 14, dtype: object

>  <hbond:CYS:110>  (15) 
hbond:CYS:110    0
hbond:CYS:110    0
Name: 14, dtype: object

>  <halogenbond:CYS:110>  (15) 
halogenbond:CYS:110    0
halogenbond:CYS:110    0
Name: 14, dtype: object

>  <hbond:GLY:111>  (15) 
hbond:GLY:111    0
hbond:GLY:111    0
Name: 14, dtype: object

>  <hbond:GLY:112>  (15) 
hbond:GLY:112    0
hbond:GLY:112    0
Name: 14, dtype: object

>  <hbond:ILE:113>  (15) 
hbond:ILE:113    0
hbond:ILE:113    0
Name: 14, dtype: object

>  <hydroph_interaction:LEU:114>  (15) 
hydroph_interaction:LEU:114    0
hydroph_interaction:LEU:114    0
Name: 14, dtype: object

>  <hbond:LEU:114>  (15) 
hbond:LEU:114    0
hbond:LEU:114    0
Name: 14, dtype: object

>  <hydroph_interaction:ILE:123>  (15) 
hydroph_interaction:ILE:123    0
hydroph_interaction:ILE:123    0
Name: 14, dtype: object

>  <hbond:ILE:123>  (15) 
hbond:ILE:123    0
hbond:ILE:123    0
Name: 14, dtype: object

>  <hydroph_interaction:VAL:124>  (15) 
hydroph_interaction:VAL:124    1
hydroph_interaction:VAL:124    1
Name: 14, dtype: object

>  <hbond:VAL:124>  (15) 
hbond:VAL:124    0
hbond:VAL:124    0
Name: 14, dtype: object

>  <halogenbond:VAL:124>  (15) 
halogenbond:VAL:124    0
halogenbond:VAL:124    0
Name: 14, dtype: object

>  <hbond:SER:125>  (15) 
hbond:SER:125    1
hbond:SER:125    1
Name: 14, dtype: object

>  <halogenbond:SER:125>  (15) 
halogenbond:SER:125    0
halogenbond:SER:125    0
Name: 14, dtype: object

>  <hydroph_interaction:THR:126>  (15) 
hydroph_interaction:THR:126    0
hydroph_interaction:THR:126    0
Name: 14, dtype: object

>  <hbond:THR:126>  (15) 
hbond:THR:126    0
hbond:THR:126    0
Name: 14, dtype: object

>  <halogenbond:THR:126>  (15) 
halogenbond:THR:126    0
halogenbond:THR:126    0
Name: 14, dtype: object

>  <hbond:GLY:127>  (15) 
hbond:GLY:127    1
hbond:GLY:127    1
Name: 14, dtype: object

>  <halogenbond:GLY:127>  (15) 
halogenbond:GLY:127    0
halogenbond:GLY:127    0
Name: 14, dtype: object

>  <hydroph_interaction:GLY:127>  (15) 
hydroph_interaction:GLY:127    0
hydroph_interaction:GLY:127    0
Name: 14, dtype: object

>  <hbond:GLY:128>  (15) 
hbond:GLY:128    0
hbond:GLY:128    0
Name: 14, dtype: object

>  <halogenbond:GLY:128>  (15) 
halogenbond:GLY:128    0
halogenbond:GLY:128    0
Name: 14, dtype: object

>  <hydroph_interaction:GLY:128>  (15) 
hydroph_interaction:GLY:128    0
hydroph_interaction:GLY:128    0
Name: 14, dtype: object

>  <hbond:ASN:129>  (15) 
hbond:ASN:129    0
hbond:ASN:129    0
Name: 14, dtype: object

>  <hydroph_interaction:ASN:129>  (15) 
hydroph_interaction:ASN:129    0
hydroph_interaction:ASN:129    0
Name: 14, dtype: object

>  <halogenbond:ASN:129>  (15) 
halogenbond:ASN:129    0
halogenbond:ASN:129    0
Name: 14, dtype: object

>  <hbond:GLY:130>  (15) 
hbond:GLY:130    0
hbond:GLY:130    0
Name: 14, dtype: object

>  <hydroph_interaction:LEU:131>  (15) 
hydroph_interaction:LEU:131    0
hydroph_interaction:LEU:131    0
Name: 14, dtype: object

>  <hbond:LEU:131>  (15) 
hbond:LEU:131    0
hbond:LEU:131    0
Name: 14, dtype: object

>  <halogenbond:LEU:131>  (15) 
halogenbond:LEU:131    0
halogenbond:LEU:131    0
Name: 14, dtype: object

>  <hydroph_interaction:VAL:132>  (15) 
hydroph_interaction:VAL:132    0
hydroph_interaction:VAL:132    0
Name: 14, dtype: object

>  <hbond:VAL:132>  (15) 
hbond:VAL:132    0
hbond:VAL:132    0
Name: 14, dtype: object

>  <hbond:GLY:133>  (15) 
hbond:GLY:133    0
hbond:GLY:133    0
Name: 14, dtype: object

>  <halogenbond:GLY:133>  (15) 
halogenbond:GLY:133    0
halogenbond:GLY:133    0
Name: 14, dtype: object

>  <hydroph_interaction:PHE:134>  (15) 
hydroph_interaction:PHE:134    0
hydroph_interaction:PHE:134    0
Name: 14, dtype: object

>  <hbond:PHE:134>  (15) 
hbond:PHE:134    0
hbond:PHE:134    0
Name: 14, dtype: object

>  <pistack:PHE:134>  (15) 
pistack:PHE:134    0
pistack:PHE:134    0
Name: 14, dtype: object

>  <pication:PHE:134>  (15) 
pication:PHE:134    0
pication:PHE:134    0
Name: 14, dtype: object

>  <hydroph_interaction:ALA:135>  (15) 
hydroph_interaction:ALA:135    0
hydroph_interaction:ALA:135    0
Name: 14, dtype: object

>  <hbond:ALA:135>  (15) 
hbond:ALA:135    0
hbond:ALA:135    0
Name: 14, dtype: object

$$$$
Z3524729102
     RDKit          3D

 27 28  0  0  0  0  0  0  0  0999 V2000
   12.4150   14.8020   22.0620 C   0  0  0  0  0  0  0  0  0  0  0  0
   11.1270   14.1720   22.1800 N   0  0  0  0  0  0  0  0  0  0  0  0
   10.6550   14.0770   23.4680 C   0  0  0  0  0  0  0  0  0  0  0  0
   10.9570   14.8760   24.3430 O   0  0  0  0  0  0  0  0  0  0  0  0
    9.8280   12.8810   23.7700 C   0  0  0  0  0  0  0  0  0  0  0  0
   10.3610   11.6840   23.0710 C   0  0  0  0  0  0  0  0  0  0  0  0
    9.6220   10.3830   23.3580 C   0  0  0  0  0  0  0  0  0  0  0  0
   10.2350    9.2120   22.6190 C   0  0  0  0  0  0  0  0  0  0  0  0
    8.5150   10.3530   24.2180 C   0  0  0  0  0  0  0  0  0  0  0  0
    8.0770   11.5400   24.8030 C   0  0  0  0  0  0  0  0  0  0  0  0
    8.7160   12.7670   24.5810 C   0  0  0  0  0  0  0  0  0  0  0  0
    8.0900   13.7690   25.2750 O   0  0  0  0  0  0  0  0  0  0  0  0
    6.7980   13.1720   25.5500 C   0  0  0  0  0  0  0  0  0  0  0  0
    6.9370   11.7840   25.7240 C   0  0  0  0  0  0  0  0  0  0  0  0
   12.3200   15.8560   22.3440 H   0  0  0  0  0  0  0  0  0  0  0  0
   12.7480   14.7240   21.0250 H   0  0  0  0  0  0  0  0  0  0  0  0
   13.1360   14.3150   22.7240 H   0  0  0  0  0  0  0  0  0  0  0  0
   10.9560   13.3930   21.5290 H   0  0  0  0  0  0  0  0  0  0  0  0
   11.2260   11.8200   22.4290 H   0  0  0  0  0  0  0  0  0  0  0  0
   10.8440    9.6030   21.8020 H   0  0  0  0  0  0  0  0  0  0  0  0
    9.4360    8.6480   22.1350 H   0  0  0  0  0  0  0  0  0  0  0  0
   10.8550    8.5140   23.1760 H   0  0  0  0  0  0  0  0  0  0  0  0
    7.9950    9.4260   24.4290 H   0  0  0  0  0  0  0  0  0  0  0  0
    6.4020   13.6450   26.4590 H   0  0  0  0  0  0  0  0  0  0  0  0
    6.1120   13.4030   24.7270 H   0  0  0  0  0  0  0  0  0  0  0  0
    6.0290   11.2790   25.4090 H   0  0  0  0  0  0  0  0  0  0  0  0
    7.1890   11.4080   26.7070 H   0  0  0  0  0  0  0  0  0  0  0  0
  1  2  1  0
  2  3  1  0
  3  4  2  0
  3  5  1  0
  5  6  2  0
  6  7  1  0
  7  8  1  0
  7  9  2  0
  9 10  1  0
 10 11  2  0
 11 12  1  0
 12 13  1  0
 13 14  1  0
 11  5  1  0
 14 10  1  0
  1 15  1  0
  1 16  1  0
  1 17  1  0
  2 18  1  0
  6 19  1  0
  8 20  1  0
  8 21  1  0
  8 22  1  0
  9 23  1  0
 13 24  1  0
 13 25  1  0
 14 26  1  0
 14 27  1  0
A    1
 C1 
A    2
 N1 
A    3
 C2 
A    4
 O1 
A    5
 C3 
A    6
 C4 
A    7
 C5 
A    8
 C6 
A    9
 C7 
A   10
 C8 
A   11
 C9 
A   12
 O2 
A   13
 C10
A   14
 C11
A   15
 H1 
A   16
 H2 
A   17
 H3 
A   18
 H4 
A   19
 H5 
A   20
 H6 
A   21
 H7 
A   22
 H8 
A   23
 H9 
A   24
 H10
A   25
 H11
A   26
 H12
A   27
 H13
M  END
>  <ref_pdb>  (16) 
x0310_0A

>  <ref_mols>  (16) 
x0554_0A,x0528_0A

>  <original SMILES>  (16) 
CNC(=O)c1cc(C)cc2c1OCC2

>  <rationale>  (16) 
info hbond:S125+E88+S87; hydroph_interaction:V124; 

>  <intxn_cluster>  (16) 
103

>  <intxn_cluster_rank>  (16) 
48

>  <N_interactions>  (16) 
4

>  <∆∆G>  (16) 
-10.34119

>  <$/mg>  (16) 
163.0

>  <comRMSD>  (16) 
0.926282

>  <N_rotatable_bonds>  (16) 
3

>  <hbond:SER:7>  (16) 
hbond:SER:7    0
hbond:SER:7    0
Name: 15, dtype: object

>  <halogenbond:SER:7>  (16) 
halogenbond:SER:7    0
halogenbond:SER:7    0
Name: 15, dtype: object

>  <hbond:GLY:8>  (16) 
hbond:GLY:8    0
hbond:GLY:8    0
Name: 15, dtype: object

>  <hydroph_interaction:ASN:19>  (16) 
hydroph_interaction:ASN:19    0
hydroph_interaction:ASN:19    0
Name: 15, dtype: object

>  <hbond:ASN:19>  (16) 
hbond:ASN:19    0
hbond:ASN:19    0
Name: 15, dtype: object

>  <halogenbond:ASN:19>  (16) 
halogenbond:ASN:19    0
halogenbond:ASN:19    0
Name: 15, dtype: object

>  <hbond:ARG:20>  (16) 
hbond:ARG:20    0
hbond:ARG:20    0
Name: 15, dtype: object

>  <hydroph_interaction:ARG:20>  (16) 
hydroph_interaction:ARG:20    0
hydroph_interaction:ARG:20    0
Name: 15, dtype: object

>  <saltbridge:ARG:20>  (16) 
saltbridge:ARG:20    0
saltbridge:ARG:20    0
Name: 15, dtype: object

>  <halogenbond:ARG:20>  (16) 
halogenbond:ARG:20    0
halogenbond:ARG:20    0
Name: 15, dtype: object

>  <pication:ARG:20>  (16) 
pication:ARG:20    0
pication:ARG:20    0
Name: 15, dtype: object

>  <hbond:HIS:21>  (16) 
hbond:HIS:21    0
hbond:HIS:21    0
Name: 15, dtype: object

>  <hydroph_interaction:HIS:21>  (16) 
hydroph_interaction:HIS:21    0
hydroph_interaction:HIS:21    0
Name: 15, dtype: object

>  <saltbridge:HIS:21>  (16) 
saltbridge:HIS:21    0
saltbridge:HIS:21    0
Name: 15, dtype: object

>  <pistack:HIS:21>  (16) 
pistack:HIS:21    0
pistack:HIS:21    0
Name: 15, dtype: object

>  <pication:HIS:21>  (16) 
pication:HIS:21    0
pication:HIS:21    0
Name: 15, dtype: object

>  <halogenbond:HIS:21>  (16) 
halogenbond:HIS:21    0
halogenbond:HIS:21    0
Name: 15, dtype: object

>  <hydroph_interaction:LEU:22>  (16) 
hydroph_interaction:LEU:22    0
hydroph_interaction:LEU:22    0
Name: 15, dtype: object

>  <hbond:LEU:22>  (16) 
hbond:LEU:22    0
hbond:LEU:22    0
Name: 15, dtype: object

>  <hydroph_interaction:TRP:28>  (16) 
hydroph_interaction:TRP:28    0
hydroph_interaction:TRP:28    0
Name: 15, dtype: object

>  <hbond:SER:36>  (16) 
hbond:SER:36    0
hbond:SER:36    0
Name: 15, dtype: object

>  <halogenbond:SER:36>  (16) 
halogenbond:SER:36    0
halogenbond:SER:36    0
Name: 15, dtype: object

>  <hbond:ARG:38>  (16) 
hbond:ARG:38    0
hbond:ARG:38    0
Name: 15, dtype: object

>  <halogenbond:ARG:38>  (16) 
halogenbond:ARG:38    0
halogenbond:ARG:38    0
Name: 15, dtype: object

>  <hbond:ASP:39>  (16) 
hbond:ASP:39    0
hbond:ASP:39    0
Name: 15, dtype: object

>  <saltbridge:ASP:39>  (16) 
saltbridge:ASP:39    0
saltbridge:ASP:39    0
Name: 15, dtype: object

>  <hydroph_interaction:ASP:39>  (16) 
hydroph_interaction:ASP:39    0
hydroph_interaction:ASP:39    0
Name: 15, dtype: object

>  <halogenbond:ASP:39>  (16) 
halogenbond:ASP:39    0
halogenbond:ASP:39    0
Name: 15, dtype: object

>  <hydroph_interaction:LEU:40>  (16) 
hydroph_interaction:LEU:40    0
hydroph_interaction:LEU:40    0
Name: 15, dtype: object

>  <hydroph_interaction:TYR:63>  (16) 
hydroph_interaction:TYR:63    0
hydroph_interaction:TYR:63    0
Name: 15, dtype: object

>  <pistack:TYR:63>  (16) 
pistack:TYR:63    0
pistack:TYR:63    0
Name: 15, dtype: object

>  <hbond:TYR:63>  (16) 
hbond:TYR:63    0
hbond:TYR:63    0
Name: 15, dtype: object

>  <hbond:TYR:64>  (16) 
hbond:TYR:64    0
hbond:TYR:64    0
Name: 15, dtype: object

>  <halogenbond:TYR:64>  (16) 
halogenbond:TYR:64    0
halogenbond:TYR:64    0
Name: 15, dtype: object

>  <hydroph_interaction:TYR:64>  (16) 
hydroph_interaction:TYR:64    0
hydroph_interaction:TYR:64    0
Name: 15, dtype: object

>  <hbond:CYS:65>  (16) 
hbond:CYS:65    0
hbond:CYS:65    0
Name: 15, dtype: object

>  <halogenbond:CYS:65>  (16) 
halogenbond:CYS:65    0
halogenbond:CYS:65    0
Name: 15, dtype: object

>  <hbond:SER:66>  (16) 
hbond:SER:66    0
hbond:SER:66    0
Name: 15, dtype: object

>  <hbond:SER:67>  (16) 
hbond:SER:67    0
hbond:SER:67    0
Name: 15, dtype: object

>  <halogenbond:SER:67>  (16) 
halogenbond:SER:67    0
halogenbond:SER:67    0
Name: 15, dtype: object

>  <hydroph_interaction:ARG:68>  (16) 
hydroph_interaction:ARG:68    0
hydroph_interaction:ARG:68    0
Name: 15, dtype: object

>  <hbond:ARG:68>  (16) 
hbond:ARG:68    0
hbond:ARG:68    0
Name: 15, dtype: object

>  <saltbridge:ARG:68>  (16) 
saltbridge:ARG:68    0
saltbridge:ARG:68    0
Name: 15, dtype: object

>  <pication:ARG:68>  (16) 
pication:ARG:68    0
pication:ARG:68    0
Name: 15, dtype: object

>  <hydroph_interaction:TYR:72>  (16) 
hydroph_interaction:TYR:72    0
hydroph_interaction:TYR:72    0
Name: 15, dtype: object

>  <hydroph_interaction:VAL:74>  (16) 
hydroph_interaction:VAL:74    0
hydroph_interaction:VAL:74    0
Name: 15, dtype: object

>  <hydroph_interaction:PHE:76>  (16) 
hydroph_interaction:PHE:76    0
hydroph_interaction:PHE:76    0
Name: 15, dtype: object

>  <hbond:SER:77>  (16) 
hbond:SER:77    0
hbond:SER:77    0
Name: 15, dtype: object

>  <hbond:SER:80>  (16) 
hbond:SER:80    0
hbond:SER:80    0
Name: 15, dtype: object

>  <hbond:LEU:81>  (16) 
hbond:LEU:81    0
hbond:LEU:81    0
Name: 15, dtype: object

>  <halogenbond:LEU:81>  (16) 
halogenbond:LEU:81    0
halogenbond:LEU:81    0
Name: 15, dtype: object

>  <hydroph_interaction:LEU:81>  (16) 
hydroph_interaction:LEU:81    0
hydroph_interaction:LEU:81    0
Name: 15, dtype: object

>  <hydroph_interaction:ILE:82>  (16) 
hydroph_interaction:ILE:82    0
hydroph_interaction:ILE:82    0
Name: 15, dtype: object

>  <hbond:ILE:82>  (16) 
hbond:ILE:82    0
hbond:ILE:82    0
Name: 15, dtype: object

>  <hydroph_interaction:PHE:83>  (16) 
hydroph_interaction:PHE:83    0
hydroph_interaction:PHE:83    0
Name: 15, dtype: object

>  <hbond:PHE:83>  (16) 
hbond:PHE:83    0
hbond:PHE:83    0
Name: 15, dtype: object

>  <halogenbond:PHE:83>  (16) 
halogenbond:PHE:83    0
halogenbond:PHE:83    0
Name: 15, dtype: object

>  <pistack:PHE:83>  (16) 
pistack:PHE:83    0
pistack:PHE:83    0
Name: 15, dtype: object

>  <hydroph_interaction:VAL:84>  (16) 
hydroph_interaction:VAL:84    0
hydroph_interaction:VAL:84    0
Name: 15, dtype: object

>  <hbond:VAL:84>  (16) 
hbond:VAL:84    0
hbond:VAL:84    0
Name: 15, dtype: object

>  <halogenbond:VAL:84>  (16) 
halogenbond:VAL:84    0
halogenbond:VAL:84    0
Name: 15, dtype: object

>  <hydroph_interaction:GLU:85>  (16) 
hydroph_interaction:GLU:85    0
hydroph_interaction:GLU:85    0
Name: 15, dtype: object

>  <hbond:GLU:85>  (16) 
hbond:GLU:85    0
hbond:GLU:85    0
Name: 15, dtype: object

>  <saltbridge:GLU:85>  (16) 
saltbridge:GLU:85    0
saltbridge:GLU:85    0
Name: 15, dtype: object

>  <halogenbond:GLU:85>  (16) 
halogenbond:GLU:85    0
halogenbond:GLU:85    0
Name: 15, dtype: object

>  <hbond:ALA:86>  (16) 
hbond:ALA:86    0
hbond:ALA:86    0
Name: 15, dtype: object

>  <halogenbond:ALA:86>  (16) 
halogenbond:ALA:86    0
halogenbond:ALA:86    0
Name: 15, dtype: object

>  <hydroph_interaction:ALA:86>  (16) 
hydroph_interaction:ALA:86    0
hydroph_interaction:ALA:86    0
Name: 15, dtype: object

>  <hbond:SER:87>  (16) 
hbond:SER:87    1
hbond:SER:87    1
Name: 15, dtype: object

>  <halogenbond:SER:87>  (16) 
halogenbond:SER:87    0
halogenbond:SER:87    0
Name: 15, dtype: object

>  <hbond:GLU:88>  (16) 
hbond:GLU:88    1
hbond:GLU:88    1
Name: 15, dtype: object

>  <hydroph_interaction:GLU:88>  (16) 
hydroph_interaction:GLU:88    0
hydroph_interaction:GLU:88    0
Name: 15, dtype: object

>  <halogenbond:GLU:88>  (16) 
halogenbond:GLU:88    0
halogenbond:GLU:88    0
Name: 15, dtype: object

>  <saltbridge:GLU:88>  (16) 
saltbridge:GLU:88    0
saltbridge:GLU:88    0
Name: 15, dtype: object

>  <hydroph_interaction:TYR:89>  (16) 
hydroph_interaction:TYR:89    0
hydroph_interaction:TYR:89    0
Name: 15, dtype: object

>  <pistack:TYR:89>  (16) 
pistack:TYR:89    0
pistack:TYR:89    0
Name: 15, dtype: object

>  <hbond:TYR:89>  (16) 
hbond:TYR:89    0
hbond:TYR:89    0
Name: 15, dtype: object

>  <halogenbond:TYR:89>  (16) 
halogenbond:TYR:89    0
halogenbond:TYR:89    0
Name: 15, dtype: object

>  <hbond:TYR:90>  (16) 
hbond:TYR:90    0
hbond:TYR:90    0
Name: 15, dtype: object

>  <hydroph_interaction:TYR:90>  (16) 
hydroph_interaction:TYR:90    0
hydroph_interaction:TYR:90    0
Name: 15, dtype: object

>  <pistack:TYR:90>  (16) 
pistack:TYR:90    0
pistack:TYR:90    0
Name: 15, dtype: object

>  <halogenbond:TYR:90>  (16) 
halogenbond:TYR:90    0
halogenbond:TYR:90    0
Name: 15, dtype: object

>  <pication:TYR:90>  (16) 
pication:TYR:90    0
pication:TYR:90    0
Name: 15, dtype: object

>  <hydroph_interaction:PRO:91>  (16) 
hydroph_interaction:PRO:91    0
hydroph_interaction:PRO:91    0
Name: 15, dtype: object

>  <halogenbond:PRO:91>  (16) 
halogenbond:PRO:91    0
halogenbond:PRO:91    0
Name: 15, dtype: object

>  <hbond:PRO:91>  (16) 
hbond:PRO:91    0
hbond:PRO:91    0
Name: 15, dtype: object

>  <hydroph_interaction:ALA:92>  (16) 
hydroph_interaction:ALA:92    0
hydroph_interaction:ALA:92    0
Name: 15, dtype: object

>  <hbond:ARG:93>  (16) 
hbond:ARG:93    0
hbond:ARG:93    0
Name: 15, dtype: object

>  <pication:ARG:93>  (16) 
pication:ARG:93    0
pication:ARG:93    0
Name: 15, dtype: object

>  <saltbridge:ARG:93>  (16) 
saltbridge:ARG:93    0
saltbridge:ARG:93    0
Name: 15, dtype: object

>  <hydroph_interaction:ARG:93>  (16) 
hydroph_interaction:ARG:93    0
hydroph_interaction:ARG:93    0
Name: 15, dtype: object

>  <halogenbond:ARG:93>  (16) 
halogenbond:ARG:93    0
halogenbond:ARG:93    0
Name: 15, dtype: object

>  <hydroph_interaction:TYR:94>  (16) 
hydroph_interaction:TYR:94    0
hydroph_interaction:TYR:94    0
Name: 15, dtype: object

>  <hbond:TYR:94>  (16) 
hbond:TYR:94    0
hbond:TYR:94    0
Name: 15, dtype: object

>  <halogenbond:GLN:95>  (16) 
halogenbond:GLN:95    0
halogenbond:GLN:95    0
Name: 15, dtype: object

>  <hbond:GLN:95>  (16) 
hbond:GLN:95    0
hbond:GLN:95    0
Name: 15, dtype: object

>  <hydroph_interaction:GLN:95>  (16) 
hydroph_interaction:GLN:95    0
hydroph_interaction:GLN:95    0
Name: 15, dtype: object

>  <hbond:SER:96>  (16) 
hbond:SER:96    0
hbond:SER:96    0
Name: 15, dtype: object

>  <hydroph_interaction:LEU:98>  (16) 
hydroph_interaction:LEU:98    0
hydroph_interaction:LEU:98    0
Name: 15, dtype: object

>  <hbond:LEU:98>  (16) 
hbond:LEU:98    0
hbond:LEU:98    0
Name: 15, dtype: object

>  <hbond:MET:99>  (16) 
hbond:MET:99    0
hbond:MET:99    0
Name: 15, dtype: object

>  <hydroph_interaction:MET:99>  (16) 
hydroph_interaction:MET:99    0
hydroph_interaction:MET:99    0
Name: 15, dtype: object

>  <halogenbond:MET:99>  (16) 
halogenbond:MET:99    0
halogenbond:MET:99    0
Name: 15, dtype: object

>  <hydroph_interaction:LEU:100>  (16) 
hydroph_interaction:LEU:100    0
hydroph_interaction:LEU:100    0
Name: 15, dtype: object

>  <hbond:LEU:100>  (16) 
hbond:LEU:100    0
hbond:LEU:100    0
Name: 15, dtype: object

>  <hbond:ALA:101>  (16) 
hbond:ALA:101    0
hbond:ALA:101    0
Name: 15, dtype: object

>  <hydroph_interaction:ALA:101>  (16) 
hydroph_interaction:ALA:101    0
hydroph_interaction:ALA:101    0
Name: 15, dtype: object

>  <hydroph_interaction:VAL:102>  (16) 
hydroph_interaction:VAL:102    0
hydroph_interaction:VAL:102    0
Name: 15, dtype: object

>  <hbond:VAL:102>  (16) 
hbond:VAL:102    0
hbond:VAL:102    0
Name: 15, dtype: object

>  <hbond:GLY:103>  (16) 
hbond:GLY:103    0
hbond:GLY:103    0
Name: 15, dtype: object

>  <halogenbond:GLY:103>  (16) 
halogenbond:GLY:103    0
halogenbond:GLY:103    0
Name: 15, dtype: object

>  <hydroph_interaction:HIS:104>  (16) 
hydroph_interaction:HIS:104    0
hydroph_interaction:HIS:104    0
Name: 15, dtype: object

>  <hbond:HIS:104>  (16) 
hbond:HIS:104    0
hbond:HIS:104    0
Name: 15, dtype: object

>  <saltbridge:HIS:104>  (16) 
saltbridge:HIS:104    0
saltbridge:HIS:104    0
Name: 15, dtype: object

>  <pication:HIS:104>  (16) 
pication:HIS:104    0
pication:HIS:104    0
Name: 15, dtype: object

>  <pistack:HIS:104>  (16) 
pistack:HIS:104    0
pistack:HIS:104    0
Name: 15, dtype: object

>  <halogenbond:HIS:104>  (16) 
halogenbond:HIS:104    0
halogenbond:HIS:104    0
Name: 15, dtype: object

>  <hbond:SER:105>  (16) 
hbond:SER:105    0
hbond:SER:105    0
Name: 15, dtype: object

>  <halogenbond:SER:105>  (16) 
halogenbond:SER:105    0
halogenbond:SER:105    0
Name: 15, dtype: object

>  <hbond:GLU:106>  (16) 
hbond:GLU:106    0
hbond:GLU:106    0
Name: 15, dtype: object

>  <hydroph_interaction:GLU:106>  (16) 
hydroph_interaction:GLU:106    0
hydroph_interaction:GLU:106    0
Name: 15, dtype: object

>  <saltbridge:GLU:106>  (16) 
saltbridge:GLU:106    0
saltbridge:GLU:106    0
Name: 15, dtype: object

>  <halogenbond:GLU:106>  (16) 
halogenbond:GLU:106    0
halogenbond:GLU:106    0
Name: 15, dtype: object

>  <hydroph_interaction:PRO:107>  (16) 
hydroph_interaction:PRO:107    0
hydroph_interaction:PRO:107    0
Name: 15, dtype: object

>  <hbond:PRO:107>  (16) 
hbond:PRO:107    0
hbond:PRO:107    0
Name: 15, dtype: object

>  <halogenbond:PRO:107>  (16) 
halogenbond:PRO:107    0
halogenbond:PRO:107    0
Name: 15, dtype: object

>  <hbond:GLY:108>  (16) 
hbond:GLY:108    0
hbond:GLY:108    0
Name: 15, dtype: object

>  <halogenbond:GLY:108>  (16) 
halogenbond:GLY:108    0
halogenbond:GLY:108    0
Name: 15, dtype: object

>  <hbond:ASP:109>  (16) 
hbond:ASP:109    0
hbond:ASP:109    0
Name: 15, dtype: object

>  <hydroph_interaction:ASP:109>  (16) 
hydroph_interaction:ASP:109    0
hydroph_interaction:ASP:109    0
Name: 15, dtype: object

>  <saltbridge:ASP:109>  (16) 
saltbridge:ASP:109    0
saltbridge:ASP:109    0
Name: 15, dtype: object

>  <hbond:CYS:110>  (16) 
hbond:CYS:110    0
hbond:CYS:110    0
Name: 15, dtype: object

>  <halogenbond:CYS:110>  (16) 
halogenbond:CYS:110    0
halogenbond:CYS:110    0
Name: 15, dtype: object

>  <hbond:GLY:111>  (16) 
hbond:GLY:111    0
hbond:GLY:111    0
Name: 15, dtype: object

>  <hbond:GLY:112>  (16) 
hbond:GLY:112    0
hbond:GLY:112    0
Name: 15, dtype: object

>  <hbond:ILE:113>  (16) 
hbond:ILE:113    0
hbond:ILE:113    0
Name: 15, dtype: object

>  <hydroph_interaction:LEU:114>  (16) 
hydroph_interaction:LEU:114    0
hydroph_interaction:LEU:114    0
Name: 15, dtype: object

>  <hbond:LEU:114>  (16) 
hbond:LEU:114    0
hbond:LEU:114    0
Name: 15, dtype: object

>  <hydroph_interaction:ILE:123>  (16) 
hydroph_interaction:ILE:123    0
hydroph_interaction:ILE:123    0
Name: 15, dtype: object

>  <hbond:ILE:123>  (16) 
hbond:ILE:123    0
hbond:ILE:123    0
Name: 15, dtype: object

>  <hydroph_interaction:VAL:124>  (16) 
hydroph_interaction:VAL:124    1
hydroph_interaction:VAL:124    1
Name: 15, dtype: object

>  <hbond:VAL:124>  (16) 
hbond:VAL:124    0
hbond:VAL:124    0
Name: 15, dtype: object

>  <halogenbond:VAL:124>  (16) 
halogenbond:VAL:124    0
halogenbond:VAL:124    0
Name: 15, dtype: object

>  <hbond:SER:125>  (16) 
hbond:SER:125    1
hbond:SER:125    1
Name: 15, dtype: object

>  <halogenbond:SER:125>  (16) 
halogenbond:SER:125    0
halogenbond:SER:125    0
Name: 15, dtype: object

>  <hydroph_interaction:THR:126>  (16) 
hydroph_interaction:THR:126    0
hydroph_interaction:THR:126    0
Name: 15, dtype: object

>  <hbond:THR:126>  (16) 
hbond:THR:126    0
hbond:THR:126    0
Name: 15, dtype: object

>  <halogenbond:THR:126>  (16) 
halogenbond:THR:126    0
halogenbond:THR:126    0
Name: 15, dtype: object

>  <hbond:GLY:127>  (16) 
hbond:GLY:127    0
hbond:GLY:127    0
Name: 15, dtype: object

>  <halogenbond:GLY:127>  (16) 
halogenbond:GLY:127    0
halogenbond:GLY:127    0
Name: 15, dtype: object

>  <hydroph_interaction:GLY:127>  (16) 
hydroph_interaction:GLY:127    0
hydroph_interaction:GLY:127    0
Name: 15, dtype: object

>  <hbond:GLY:128>  (16) 
hbond:GLY:128    0
hbond:GLY:128    0
Name: 15, dtype: object

>  <halogenbond:GLY:128>  (16) 
halogenbond:GLY:128    0
halogenbond:GLY:128    0
Name: 15, dtype: object

>  <hydroph_interaction:GLY:128>  (16) 
hydroph_interaction:GLY:128    0
hydroph_interaction:GLY:128    0
Name: 15, dtype: object

>  <hbond:ASN:129>  (16) 
hbond:ASN:129    0
hbond:ASN:129    0
Name: 15, dtype: object

>  <hydroph_interaction:ASN:129>  (16) 
hydroph_interaction:ASN:129    0
hydroph_interaction:ASN:129    0
Name: 15, dtype: object

>  <halogenbond:ASN:129>  (16) 
halogenbond:ASN:129    0
halogenbond:ASN:129    0
Name: 15, dtype: object

>  <hbond:GLY:130>  (16) 
hbond:GLY:130    0
hbond:GLY:130    0
Name: 15, dtype: object

>  <hydroph_interaction:LEU:131>  (16) 
hydroph_interaction:LEU:131    0
hydroph_interaction:LEU:131    0
Name: 15, dtype: object

>  <hbond:LEU:131>  (16) 
hbond:LEU:131    0
hbond:LEU:131    0
Name: 15, dtype: object

>  <halogenbond:LEU:131>  (16) 
halogenbond:LEU:131    0
halogenbond:LEU:131    0
Name: 15, dtype: object

>  <hydroph_interaction:VAL:132>  (16) 
hydroph_interaction:VAL:132    0
hydroph_interaction:VAL:132    0
Name: 15, dtype: object

>  <hbond:VAL:132>  (16) 
hbond:VAL:132    0
hbond:VAL:132    0
Name: 15, dtype: object

>  <hbond:GLY:133>  (16) 
hbond:GLY:133    0
hbond:GLY:133    0
Name: 15, dtype: object

>  <halogenbond:GLY:133>  (16) 
halogenbond:GLY:133    0
halogenbond:GLY:133    0
Name: 15, dtype: object

>  <hydroph_interaction:PHE:134>  (16) 
hydroph_interaction:PHE:134    0
hydroph_interaction:PHE:134    0
Name: 15, dtype: object

>  <hbond:PHE:134>  (16) 
hbond:PHE:134    0
hbond:PHE:134    0
Name: 15, dtype: object

>  <pistack:PHE:134>  (16) 
pistack:PHE:134    0
pistack:PHE:134    0
Name: 15, dtype: object

>  <pication:PHE:134>  (16) 
pication:PHE:134    0
pication:PHE:134    0
Name: 15, dtype: object

>  <hydroph_interaction:ALA:135>  (16) 
hydroph_interaction:ALA:135    0
hydroph_interaction:ALA:135    0
Name: 15, dtype: object

>  <hbond:ALA:135>  (16) 
hbond:ALA:135    0
hbond:ALA:135    0
Name: 15, dtype: object

$$$$
Z56754686
     RDKit          3D

 24 24  0  0  0  0  0  0  0  0999 V2000
    6.9960   12.6770   25.8920 C   0  0  0  0  0  0  0  0  0  0  0  0
    7.9150   11.9070   25.0000 C   0  0  0  0  0  0  0  0  0  0  0  0
    7.8410   10.5260   24.9570 C   0  0  0  0  0  0  0  0  0  0  0  0
    8.6850    9.8160   24.1340 C   0  0  0  0  0  0  0  0  0  0  0  0
    9.6140   10.4220   23.3400 C   0  0  0  0  0  0  0  0  0  0  0  0
   10.3940    9.5860   22.5610 C   0  0  0  0  0  0  0  0  0  0  0  0
    9.7130   11.8380   23.3690 C   0  0  0  0  0  0  0  0  0  0  0  0
   10.6570   12.5120   22.5750 N   0  0  0  0  0  0  0  0  0  0  0  0
   11.3220   13.6670   22.8670 C   0  0  0  0  0  0  0  0  0  0  0  0
   12.1150   14.0250   21.8190 N   0  0  0  0  0  0  0  0  0  0  0  0
   11.2750   14.3510   23.8830 O   0  0  0  0  0  0  0  0  0  0  0  0
    8.8570   12.5580   24.2020 C   0  0  0  0  0  0  0  0  0  0  0  0
    6.2030   13.1380   25.2960 H   0  0  0  0  0  0  0  0  0  0  0  0
    6.5420   12.0190   26.6390 H   0  0  0  0  0  0  0  0  0  0  0  0
    7.5420   13.4580   26.4320 H   0  0  0  0  0  0  0  0  0  0  0  0
    7.1130   10.0070   25.5730 H   0  0  0  0  0  0  0  0  0  0  0  0
    8.5960    8.7490   24.1270 H   0  0  0  0  0  0  0  0  0  0  0  0
    9.7720    8.8120   22.1100 H   0  0  0  0  0  0  0  0  0  0  0  0
   10.8660   10.1220   21.7500 H   0  0  0  0  0  0  0  0  0  0  0  0
   11.1790    9.1190   23.1670 H   0  0  0  0  0  0  0  0  0  0  0  0
   10.7780   12.2100   21.6100 H   0  0  0  0  0  0  0  0  0  0  0  0
   11.9450   13.3800   21.0360 H   0  0  0  0  0  0  0  0  0  0  0  0
   12.0940   14.9970   21.5510 H   0  0  0  0  0  0  0  0  0  0  0  0
    8.9020   13.6410   24.2520 H   0  0  0  0  0  0  0  0  0  0  0  0
  1  2  1  0
  2  3  2  0
  3  4  1  0
  4  5  2  0
  5  6  1  0
  5  7  1  0
  7  8  1  0
  8  9  1  0
  9 10  1  0
  9 11  2  0
  7 12  2  0
 12  2  1  0
  1 13  1  0
  1 14  1  0
  1 15  1  0
  3 16  1  0
  4 17  1  0
  6 18  1  0
  6 19  1  0
  6 20  1  0
  8 21  1  0
 10 22  1  0
 10 23  1  0
 12 24  1  0
A    1
 C1 
A    2
 C2 
A    3
 C3 
A    4
 C4 
A    5
 C5 
A    6
 C6 
A    7
 C7 
A    8
 N1 
A    9
 C8 
A   10
 N2 
A   11
 O1 
A   12
 C9 
A   13
 H1 
A   14
 H2 
A   15
 H3 
A   16
 H4 
A   17
 H5 
A   18
 H6 
A   19
 H7 
A   20
 H8 
A   21
 H9 
A   22
 H10
A   23
 H11
A   24
 H12
M  END
>  <ref_pdb>  (17) 
x0310_0A

>  <ref_mols>  (17) 
x0554_0A,x0566_0A,x0812_0A

>  <original SMILES>  (17) 
Cc1ccc(C)c(NC(N)=O)c1

>  <rationale>  (17) 
info hbond:S125; hydroph_interaction:P107+V124; 

>  <intxn_cluster>  (17) 
103

>  <intxn_cluster_rank>  (17) 
54

>  <N_interactions>  (17) 
4

>  <∆∆G>  (17) 
-10.063571

>  <$/mg>  (17) 
73.9

>  <comRMSD>  (17) 
0.980692

>  <N_rotatable_bonds>  (17) 
3

>  <hbond:SER:7>  (17) 
hbond:SER:7    0
hbond:SER:7    0
Name: 16, dtype: object

>  <halogenbond:SER:7>  (17) 
halogenbond:SER:7    0
halogenbond:SER:7    0
Name: 16, dtype: object

>  <hbond:GLY:8>  (17) 
hbond:GLY:8    0
hbond:GLY:8    0
Name: 16, dtype: object

>  <hydroph_interaction:ASN:19>  (17) 
hydroph_interaction:ASN:19    0
hydroph_interaction:ASN:19    0
Name: 16, dtype: object

>  <hbond:ASN:19>  (17) 
hbond:ASN:19    0
hbond:ASN:19    0
Name: 16, dtype: object

>  <halogenbond:ASN:19>  (17) 
halogenbond:ASN:19    0
halogenbond:ASN:19    0
Name: 16, dtype: object

>  <hbond:ARG:20>  (17) 
hbond:ARG:20    0
hbond:ARG:20    0
Name: 16, dtype: object

>  <hydroph_interaction:ARG:20>  (17) 
hydroph_interaction:ARG:20    0
hydroph_interaction:ARG:20    0
Name: 16, dtype: object

>  <saltbridge:ARG:20>  (17) 
saltbridge:ARG:20    0
saltbridge:ARG:20    0
Name: 16, dtype: object

>  <halogenbond:ARG:20>  (17) 
halogenbond:ARG:20    0
halogenbond:ARG:20    0
Name: 16, dtype: object

>  <pication:ARG:20>  (17) 
pication:ARG:20    0
pication:ARG:20    0
Name: 16, dtype: object

>  <hbond:HIS:21>  (17) 
hbond:HIS:21    0
hbond:HIS:21    0
Name: 16, dtype: object

>  <hydroph_interaction:HIS:21>  (17) 
hydroph_interaction:HIS:21    0
hydroph_interaction:HIS:21    0
Name: 16, dtype: object

>  <saltbridge:HIS:21>  (17) 
saltbridge:HIS:21    0
saltbridge:HIS:21    0
Name: 16, dtype: object

>  <pistack:HIS:21>  (17) 
pistack:HIS:21    0
pistack:HIS:21    0
Name: 16, dtype: object

>  <pication:HIS:21>  (17) 
pication:HIS:21    0
pication:HIS:21    0
Name: 16, dtype: object

>  <halogenbond:HIS:21>  (17) 
halogenbond:HIS:21    0
halogenbond:HIS:21    0
Name: 16, dtype: object

>  <hydroph_interaction:LEU:22>  (17) 
hydroph_interaction:LEU:22    0
hydroph_interaction:LEU:22    0
Name: 16, dtype: object

>  <hbond:LEU:22>  (17) 
hbond:LEU:22    0
hbond:LEU:22    0
Name: 16, dtype: object

>  <hydroph_interaction:TRP:28>  (17) 
hydroph_interaction:TRP:28    0
hydroph_interaction:TRP:28    0
Name: 16, dtype: object

>  <hbond:SER:36>  (17) 
hbond:SER:36    0
hbond:SER:36    0
Name: 16, dtype: object

>  <halogenbond:SER:36>  (17) 
halogenbond:SER:36    0
halogenbond:SER:36    0
Name: 16, dtype: object

>  <hbond:ARG:38>  (17) 
hbond:ARG:38    0
hbond:ARG:38    0
Name: 16, dtype: object

>  <halogenbond:ARG:38>  (17) 
halogenbond:ARG:38    0
halogenbond:ARG:38    0
Name: 16, dtype: object

>  <hbond:ASP:39>  (17) 
hbond:ASP:39    0
hbond:ASP:39    0
Name: 16, dtype: object

>  <saltbridge:ASP:39>  (17) 
saltbridge:ASP:39    0
saltbridge:ASP:39    0
Name: 16, dtype: object

>  <hydroph_interaction:ASP:39>  (17) 
hydroph_interaction:ASP:39    0
hydroph_interaction:ASP:39    0
Name: 16, dtype: object

>  <halogenbond:ASP:39>  (17) 
halogenbond:ASP:39    0
halogenbond:ASP:39    0
Name: 16, dtype: object

>  <hydroph_interaction:LEU:40>  (17) 
hydroph_interaction:LEU:40    0
hydroph_interaction:LEU:40    0
Name: 16, dtype: object

>  <hydroph_interaction:TYR:63>  (17) 
hydroph_interaction:TYR:63    0
hydroph_interaction:TYR:63    0
Name: 16, dtype: object

>  <pistack:TYR:63>  (17) 
pistack:TYR:63    0
pistack:TYR:63    0
Name: 16, dtype: object

>  <hbond:TYR:63>  (17) 
hbond:TYR:63    0
hbond:TYR:63    0
Name: 16, dtype: object

>  <hbond:TYR:64>  (17) 
hbond:TYR:64    0
hbond:TYR:64    0
Name: 16, dtype: object

>  <halogenbond:TYR:64>  (17) 
halogenbond:TYR:64    0
halogenbond:TYR:64    0
Name: 16, dtype: object

>  <hydroph_interaction:TYR:64>  (17) 
hydroph_interaction:TYR:64    0
hydroph_interaction:TYR:64    0
Name: 16, dtype: object

>  <hbond:CYS:65>  (17) 
hbond:CYS:65    0
hbond:CYS:65    0
Name: 16, dtype: object

>  <halogenbond:CYS:65>  (17) 
halogenbond:CYS:65    0
halogenbond:CYS:65    0
Name: 16, dtype: object

>  <hbond:SER:66>  (17) 
hbond:SER:66    0
hbond:SER:66    0
Name: 16, dtype: object

>  <hbond:SER:67>  (17) 
hbond:SER:67    0
hbond:SER:67    0
Name: 16, dtype: object

>  <halogenbond:SER:67>  (17) 
halogenbond:SER:67    0
halogenbond:SER:67    0
Name: 16, dtype: object

>  <hydroph_interaction:ARG:68>  (17) 
hydroph_interaction:ARG:68    0
hydroph_interaction:ARG:68    0
Name: 16, dtype: object

>  <hbond:ARG:68>  (17) 
hbond:ARG:68    0
hbond:ARG:68    0
Name: 16, dtype: object

>  <saltbridge:ARG:68>  (17) 
saltbridge:ARG:68    0
saltbridge:ARG:68    0
Name: 16, dtype: object

>  <pication:ARG:68>  (17) 
pication:ARG:68    0
pication:ARG:68    0
Name: 16, dtype: object

>  <hydroph_interaction:TYR:72>  (17) 
hydroph_interaction:TYR:72    0
hydroph_interaction:TYR:72    0
Name: 16, dtype: object

>  <hydroph_interaction:VAL:74>  (17) 
hydroph_interaction:VAL:74    0
hydroph_interaction:VAL:74    0
Name: 16, dtype: object

>  <hydroph_interaction:PHE:76>  (17) 
hydroph_interaction:PHE:76    0
hydroph_interaction:PHE:76    0
Name: 16, dtype: object

>  <hbond:SER:77>  (17) 
hbond:SER:77    0
hbond:SER:77    0
Name: 16, dtype: object

>  <hbond:SER:80>  (17) 
hbond:SER:80    0
hbond:SER:80    0
Name: 16, dtype: object

>  <hbond:LEU:81>  (17) 
hbond:LEU:81    0
hbond:LEU:81    0
Name: 16, dtype: object

>  <halogenbond:LEU:81>  (17) 
halogenbond:LEU:81    0
halogenbond:LEU:81    0
Name: 16, dtype: object

>  <hydroph_interaction:LEU:81>  (17) 
hydroph_interaction:LEU:81    0
hydroph_interaction:LEU:81    0
Name: 16, dtype: object

>  <hydroph_interaction:ILE:82>  (17) 
hydroph_interaction:ILE:82    0
hydroph_interaction:ILE:82    0
Name: 16, dtype: object

>  <hbond:ILE:82>  (17) 
hbond:ILE:82    0
hbond:ILE:82    0
Name: 16, dtype: object

>  <hydroph_interaction:PHE:83>  (17) 
hydroph_interaction:PHE:83    0
hydroph_interaction:PHE:83    0
Name: 16, dtype: object

>  <hbond:PHE:83>  (17) 
hbond:PHE:83    0
hbond:PHE:83    0
Name: 16, dtype: object

>  <halogenbond:PHE:83>  (17) 
halogenbond:PHE:83    0
halogenbond:PHE:83    0
Name: 16, dtype: object

>  <pistack:PHE:83>  (17) 
pistack:PHE:83    0
pistack:PHE:83    0
Name: 16, dtype: object

>  <hydroph_interaction:VAL:84>  (17) 
hydroph_interaction:VAL:84    0
hydroph_interaction:VAL:84    0
Name: 16, dtype: object

>  <hbond:VAL:84>  (17) 
hbond:VAL:84    0
hbond:VAL:84    0
Name: 16, dtype: object

>  <halogenbond:VAL:84>  (17) 
halogenbond:VAL:84    0
halogenbond:VAL:84    0
Name: 16, dtype: object

>  <hydroph_interaction:GLU:85>  (17) 
hydroph_interaction:GLU:85    0
hydroph_interaction:GLU:85    0
Name: 16, dtype: object

>  <hbond:GLU:85>  (17) 
hbond:GLU:85    0
hbond:GLU:85    0
Name: 16, dtype: object

>  <saltbridge:GLU:85>  (17) 
saltbridge:GLU:85    0
saltbridge:GLU:85    0
Name: 16, dtype: object

>  <halogenbond:GLU:85>  (17) 
halogenbond:GLU:85    0
halogenbond:GLU:85    0
Name: 16, dtype: object

>  <hbond:ALA:86>  (17) 
hbond:ALA:86    0
hbond:ALA:86    0
Name: 16, dtype: object

>  <halogenbond:ALA:86>  (17) 
halogenbond:ALA:86    0
halogenbond:ALA:86    0
Name: 16, dtype: object

>  <hydroph_interaction:ALA:86>  (17) 
hydroph_interaction:ALA:86    0
hydroph_interaction:ALA:86    0
Name: 16, dtype: object

>  <hbond:SER:87>  (17) 
hbond:SER:87    0
hbond:SER:87    0
Name: 16, dtype: object

>  <halogenbond:SER:87>  (17) 
halogenbond:SER:87    0
halogenbond:SER:87    0
Name: 16, dtype: object

>  <hbond:GLU:88>  (17) 
hbond:GLU:88    0
hbond:GLU:88    0
Name: 16, dtype: object

>  <hydroph_interaction:GLU:88>  (17) 
hydroph_interaction:GLU:88    0
hydroph_interaction:GLU:88    0
Name: 16, dtype: object

>  <halogenbond:GLU:88>  (17) 
halogenbond:GLU:88    0
halogenbond:GLU:88    0
Name: 16, dtype: object

>  <saltbridge:GLU:88>  (17) 
saltbridge:GLU:88    0
saltbridge:GLU:88    0
Name: 16, dtype: object

>  <hydroph_interaction:TYR:89>  (17) 
hydroph_interaction:TYR:89    0
hydroph_interaction:TYR:89    0
Name: 16, dtype: object

>  <pistack:TYR:89>  (17) 
pistack:TYR:89    0
pistack:TYR:89    0
Name: 16, dtype: object

>  <hbond:TYR:89>  (17) 
hbond:TYR:89    0
hbond:TYR:89    0
Name: 16, dtype: object

>  <halogenbond:TYR:89>  (17) 
halogenbond:TYR:89    0
halogenbond:TYR:89    0
Name: 16, dtype: object

>  <hbond:TYR:90>  (17) 
hbond:TYR:90    0
hbond:TYR:90    0
Name: 16, dtype: object

>  <hydroph_interaction:TYR:90>  (17) 
hydroph_interaction:TYR:90    0
hydroph_interaction:TYR:90    0
Name: 16, dtype: object

>  <pistack:TYR:90>  (17) 
pistack:TYR:90    0
pistack:TYR:90    0
Name: 16, dtype: object

>  <halogenbond:TYR:90>  (17) 
halogenbond:TYR:90    0
halogenbond:TYR:90    0
Name: 16, dtype: object

>  <pication:TYR:90>  (17) 
pication:TYR:90    0
pication:TYR:90    0
Name: 16, dtype: object

>  <hydroph_interaction:PRO:91>  (17) 
hydroph_interaction:PRO:91    0
hydroph_interaction:PRO:91    0
Name: 16, dtype: object

>  <halogenbond:PRO:91>  (17) 
halogenbond:PRO:91    0
halogenbond:PRO:91    0
Name: 16, dtype: object

>  <hbond:PRO:91>  (17) 
hbond:PRO:91    0
hbond:PRO:91    0
Name: 16, dtype: object

>  <hydroph_interaction:ALA:92>  (17) 
hydroph_interaction:ALA:92    0
hydroph_interaction:ALA:92    0
Name: 16, dtype: object

>  <hbond:ARG:93>  (17) 
hbond:ARG:93    0
hbond:ARG:93    0
Name: 16, dtype: object

>  <pication:ARG:93>  (17) 
pication:ARG:93    0
pication:ARG:93    0
Name: 16, dtype: object

>  <saltbridge:ARG:93>  (17) 
saltbridge:ARG:93    0
saltbridge:ARG:93    0
Name: 16, dtype: object

>  <hydroph_interaction:ARG:93>  (17) 
hydroph_interaction:ARG:93    0
hydroph_interaction:ARG:93    0
Name: 16, dtype: object

>  <halogenbond:ARG:93>  (17) 
halogenbond:ARG:93    0
halogenbond:ARG:93    0
Name: 16, dtype: object

>  <hydroph_interaction:TYR:94>  (17) 
hydroph_interaction:TYR:94    0
hydroph_interaction:TYR:94    0
Name: 16, dtype: object

>  <hbond:TYR:94>  (17) 
hbond:TYR:94    0
hbond:TYR:94    0
Name: 16, dtype: object

>  <halogenbond:GLN:95>  (17) 
halogenbond:GLN:95    0
halogenbond:GLN:95    0
Name: 16, dtype: object

>  <hbond:GLN:95>  (17) 
hbond:GLN:95    0
hbond:GLN:95    0
Name: 16, dtype: object

>  <hydroph_interaction:GLN:95>  (17) 
hydroph_interaction:GLN:95    0
hydroph_interaction:GLN:95    0
Name: 16, dtype: object

>  <hbond:SER:96>  (17) 
hbond:SER:96    0
hbond:SER:96    0
Name: 16, dtype: object

>  <hydroph_interaction:LEU:98>  (17) 
hydroph_interaction:LEU:98    0
hydroph_interaction:LEU:98    0
Name: 16, dtype: object

>  <hbond:LEU:98>  (17) 
hbond:LEU:98    0
hbond:LEU:98    0
Name: 16, dtype: object

>  <hbond:MET:99>  (17) 
hbond:MET:99    0
hbond:MET:99    0
Name: 16, dtype: object

>  <hydroph_interaction:MET:99>  (17) 
hydroph_interaction:MET:99    0
hydroph_interaction:MET:99    0
Name: 16, dtype: object

>  <halogenbond:MET:99>  (17) 
halogenbond:MET:99    0
halogenbond:MET:99    0
Name: 16, dtype: object

>  <hydroph_interaction:LEU:100>  (17) 
hydroph_interaction:LEU:100    0
hydroph_interaction:LEU:100    0
Name: 16, dtype: object

>  <hbond:LEU:100>  (17) 
hbond:LEU:100    0
hbond:LEU:100    0
Name: 16, dtype: object

>  <hbond:ALA:101>  (17) 
hbond:ALA:101    0
hbond:ALA:101    0
Name: 16, dtype: object

>  <hydroph_interaction:ALA:101>  (17) 
hydroph_interaction:ALA:101    0
hydroph_interaction:ALA:101    0
Name: 16, dtype: object

>  <hydroph_interaction:VAL:102>  (17) 
hydroph_interaction:VAL:102    0
hydroph_interaction:VAL:102    0
Name: 16, dtype: object

>  <hbond:VAL:102>  (17) 
hbond:VAL:102    0
hbond:VAL:102    0
Name: 16, dtype: object

>  <hbond:GLY:103>  (17) 
hbond:GLY:103    0
hbond:GLY:103    0
Name: 16, dtype: object

>  <halogenbond:GLY:103>  (17) 
halogenbond:GLY:103    0
halogenbond:GLY:103    0
Name: 16, dtype: object

>  <hydroph_interaction:HIS:104>  (17) 
hydroph_interaction:HIS:104    0
hydroph_interaction:HIS:104    0
Name: 16, dtype: object

>  <hbond:HIS:104>  (17) 
hbond:HIS:104    0
hbond:HIS:104    0
Name: 16, dtype: object

>  <saltbridge:HIS:104>  (17) 
saltbridge:HIS:104    0
saltbridge:HIS:104    0
Name: 16, dtype: object

>  <pication:HIS:104>  (17) 
pication:HIS:104    0
pication:HIS:104    0
Name: 16, dtype: object

>  <pistack:HIS:104>  (17) 
pistack:HIS:104    0
pistack:HIS:104    0
Name: 16, dtype: object

>  <halogenbond:HIS:104>  (17) 
halogenbond:HIS:104    0
halogenbond:HIS:104    0
Name: 16, dtype: object

>  <hbond:SER:105>  (17) 
hbond:SER:105    0
hbond:SER:105    0
Name: 16, dtype: object

>  <halogenbond:SER:105>  (17) 
halogenbond:SER:105    0
halogenbond:SER:105    0
Name: 16, dtype: object

>  <hbond:GLU:106>  (17) 
hbond:GLU:106    0
hbond:GLU:106    0
Name: 16, dtype: object

>  <hydroph_interaction:GLU:106>  (17) 
hydroph_interaction:GLU:106    0
hydroph_interaction:GLU:106    0
Name: 16, dtype: object

>  <saltbridge:GLU:106>  (17) 
saltbridge:GLU:106    0
saltbridge:GLU:106    0
Name: 16, dtype: object

>  <halogenbond:GLU:106>  (17) 
halogenbond:GLU:106    0
halogenbond:GLU:106    0
Name: 16, dtype: object

>  <hydroph_interaction:PRO:107>  (17) 
hydroph_interaction:PRO:107    1
hydroph_interaction:PRO:107    1
Name: 16, dtype: object

>  <hbond:PRO:107>  (17) 
hbond:PRO:107    0
hbond:PRO:107    0
Name: 16, dtype: object

>  <halogenbond:PRO:107>  (17) 
halogenbond:PRO:107    0
halogenbond:PRO:107    0
Name: 16, dtype: object

>  <hbond:GLY:108>  (17) 
hbond:GLY:108    0
hbond:GLY:108    0
Name: 16, dtype: object

>  <halogenbond:GLY:108>  (17) 
halogenbond:GLY:108    0
halogenbond:GLY:108    0
Name: 16, dtype: object

>  <hbond:ASP:109>  (17) 
hbond:ASP:109    0
hbond:ASP:109    0
Name: 16, dtype: object

>  <hydroph_interaction:ASP:109>  (17) 
hydroph_interaction:ASP:109    0
hydroph_interaction:ASP:109    0
Name: 16, dtype: object

>  <saltbridge:ASP:109>  (17) 
saltbridge:ASP:109    0
saltbridge:ASP:109    0
Name: 16, dtype: object

>  <hbond:CYS:110>  (17) 
hbond:CYS:110    0
hbond:CYS:110    0
Name: 16, dtype: object

>  <halogenbond:CYS:110>  (17) 
halogenbond:CYS:110    0
halogenbond:CYS:110    0
Name: 16, dtype: object

>  <hbond:GLY:111>  (17) 
hbond:GLY:111    0
hbond:GLY:111    0
Name: 16, dtype: object

>  <hbond:GLY:112>  (17) 
hbond:GLY:112    0
hbond:GLY:112    0
Name: 16, dtype: object

>  <hbond:ILE:113>  (17) 
hbond:ILE:113    0
hbond:ILE:113    0
Name: 16, dtype: object

>  <hydroph_interaction:LEU:114>  (17) 
hydroph_interaction:LEU:114    0
hydroph_interaction:LEU:114    0
Name: 16, dtype: object

>  <hbond:LEU:114>  (17) 
hbond:LEU:114    0
hbond:LEU:114    0
Name: 16, dtype: object

>  <hydroph_interaction:ILE:123>  (17) 
hydroph_interaction:ILE:123    0
hydroph_interaction:ILE:123    0
Name: 16, dtype: object

>  <hbond:ILE:123>  (17) 
hbond:ILE:123    0
hbond:ILE:123    0
Name: 16, dtype: object

>  <hydroph_interaction:VAL:124>  (17) 
hydroph_interaction:VAL:124    1
hydroph_interaction:VAL:124    1
Name: 16, dtype: object

>  <hbond:VAL:124>  (17) 
hbond:VAL:124    0
hbond:VAL:124    0
Name: 16, dtype: object

>  <halogenbond:VAL:124>  (17) 
halogenbond:VAL:124    0
halogenbond:VAL:124    0
Name: 16, dtype: object

>  <hbond:SER:125>  (17) 
hbond:SER:125    2
hbond:SER:125    2
Name: 16, dtype: object

>  <halogenbond:SER:125>  (17) 
halogenbond:SER:125    0
halogenbond:SER:125    0
Name: 16, dtype: object

>  <hydroph_interaction:THR:126>  (17) 
hydroph_interaction:THR:126    0
hydroph_interaction:THR:126    0
Name: 16, dtype: object

>  <hbond:THR:126>  (17) 
hbond:THR:126    0
hbond:THR:126    0
Name: 16, dtype: object

>  <halogenbond:THR:126>  (17) 
halogenbond:THR:126    0
halogenbond:THR:126    0
Name: 16, dtype: object

>  <hbond:GLY:127>  (17) 
hbond:GLY:127    0
hbond:GLY:127    0
Name: 16, dtype: object

>  <halogenbond:GLY:127>  (17) 
halogenbond:GLY:127    0
halogenbond:GLY:127    0
Name: 16, dtype: object

>  <hydroph_interaction:GLY:127>  (17) 
hydroph_interaction:GLY:127    0
hydroph_interaction:GLY:127    0
Name: 16, dtype: object

>  <hbond:GLY:128>  (17) 
hbond:GLY:128    0
hbond:GLY:128    0
Name: 16, dtype: object

>  <halogenbond:GLY:128>  (17) 
halogenbond:GLY:128    0
halogenbond:GLY:128    0
Name: 16, dtype: object

>  <hydroph_interaction:GLY:128>  (17) 
hydroph_interaction:GLY:128    0
hydroph_interaction:GLY:128    0
Name: 16, dtype: object

>  <hbond:ASN:129>  (17) 
hbond:ASN:129    0
hbond:ASN:129    0
Name: 16, dtype: object

>  <hydroph_interaction:ASN:129>  (17) 
hydroph_interaction:ASN:129    0
hydroph_interaction:ASN:129    0
Name: 16, dtype: object

>  <halogenbond:ASN:129>  (17) 
halogenbond:ASN:129    0
halogenbond:ASN:129    0
Name: 16, dtype: object

>  <hbond:GLY:130>  (17) 
hbond:GLY:130    0
hbond:GLY:130    0
Name: 16, dtype: object

>  <hydroph_interaction:LEU:131>  (17) 
hydroph_interaction:LEU:131    0
hydroph_interaction:LEU:131    0
Name: 16, dtype: object

>  <hbond:LEU:131>  (17) 
hbond:LEU:131    0
hbond:LEU:131    0
Name: 16, dtype: object

>  <halogenbond:LEU:131>  (17) 
halogenbond:LEU:131    0
halogenbond:LEU:131    0
Name: 16, dtype: object

>  <hydroph_interaction:VAL:132>  (17) 
hydroph_interaction:VAL:132    0
hydroph_interaction:VAL:132    0
Name: 16, dtype: object

>  <hbond:VAL:132>  (17) 
hbond:VAL:132    0
hbond:VAL:132    0
Name: 16, dtype: object

>  <hbond:GLY:133>  (17) 
hbond:GLY:133    0
hbond:GLY:133    0
Name: 16, dtype: object

>  <halogenbond:GLY:133>  (17) 
halogenbond:GLY:133    0
halogenbond:GLY:133    0
Name: 16, dtype: object

>  <hydroph_interaction:PHE:134>  (17) 
hydroph_interaction:PHE:134    0
hydroph_interaction:PHE:134    0
Name: 16, dtype: object

>  <hbond:PHE:134>  (17) 
hbond:PHE:134    0
hbond:PHE:134    0
Name: 16, dtype: object

>  <pistack:PHE:134>  (17) 
pistack:PHE:134    0
pistack:PHE:134    0
Name: 16, dtype: object

>  <pication:PHE:134>  (17) 
pication:PHE:134    0
pication:PHE:134    0
Name: 16, dtype: object

>  <hydroph_interaction:ALA:135>  (17) 
hydroph_interaction:ALA:135    0
hydroph_interaction:ALA:135    0
Name: 16, dtype: object

>  <hbond:ALA:135>  (17) 
hbond:ALA:135    0
hbond:ALA:135    0
Name: 16, dtype: object

$$$$
PV_002879944314
     RDKit          3D

 30 31  0  0  0  0  0  0  0  0999 V2000
   12.0180   15.2630   21.9820 C   0  0  0  0  0  0  0  0  0  0  0  0
   11.3890   14.1940   22.8270 C   0  0  0  0  0  0  0  0  0  0  0  0
   11.9280   13.9880   24.1760 C   0  0  0  0  0  0  0  0  0  0  0  0
   10.3730   13.4170   22.4210 C   0  0  0  0  0  0  0  0  0  0  0  0
    9.7310   12.3710   23.0950 C   0  0  0  0  0  0  0  0  0  0  0  0
    8.7140   12.4950   24.0450 C   0  0  0  0  0  0  0  0  0  0  0  0
    8.2330   13.7000   24.4290 N   0  0  0  0  0  0  0  0  0  0  0  0
    7.2490   13.7360   25.3450 C   0  0  0  0  0  0  0  0  0  0  0  0
    6.6600   12.5120   25.9600 C   0  0  0  0  0  0  0  0  0  0  0  0
    7.1820   11.2920   25.5400 C   0  0  0  0  0  0  0  0  0  0  0  0
    8.2000   11.2790   24.5920 C   0  0  0  0  0  0  0  0  0  0  0  0
    8.6960   10.0450   24.1920 C   0  0  0  0  0  0  0  0  0  0  0  0
    9.6930    9.9710   23.2590 C   0  0  0  0  0  0  0  0  0  0  0  0
   10.2700    8.7130   22.7780 C   0  0  0  0  0  0  0  0  0  0  0  0
   10.1870   11.1190   22.7340 C   0  0  0  0  0  0  0  0  0  0  0  0
   12.9530   14.9060   21.5390 H   0  0  0  0  0  0  0  0  0  0  0  0
   12.2460   16.1390   22.5970 H   0  0  0  0  0  0  0  0  0  0  0  0
   11.3280   15.5690   21.1910 H   0  0  0  0  0  0  0  0  0  0  0  0
   12.4300   14.8210   24.6620 H   0  0  0  0  0  0  0  0  0  0  0  0
   11.1070   13.6910   24.8330 H   0  0  0  0  0  0  0  0  0  0  0  0
   12.6480   13.1600   24.1490 H   0  0  0  0  0  0  0  0  0  0  0  0
    9.9720   13.5820   21.4240 H   0  0  0  0  0  0  0  0  0  0  0  0
    6.9020   14.7300   25.6150 H   0  0  0  0  0  0  0  0  0  0  0  0
    5.8670   12.5730   26.6950 H   0  0  0  0  0  0  0  0  0  0  0  0
    6.7880   10.3670   25.9560 H   0  0  0  0  0  0  0  0  0  0  0  0
    8.2930    9.1370   24.6160 H   0  0  0  0  0  0  0  0  0  0  0  0
    9.6690    8.3270   21.9520 H   0  0  0  0  0  0  0  0  0  0  0  0
   10.3280    7.9760   23.5590 H   0  0  0  0  0  0  0  0  0  0  0  0
   11.2870    8.8850   22.4410 H   0  0  0  0  0  0  0  0  0  0  0  0
   10.9670   11.0490   22.0020 H   0  0  0  0  0  0  0  0  0  0  0  0
  1  2  1  0
  2  3  1  0
  2  4  2  3
  4  5  1  0
  5  6  2  0
  6  7  1  0
  7  8  2  0
  8  9  1  0
  9 10  2  0
 10 11  1  0
 11 12  2  0
 12 13  1  0
 13 14  1  0
 13 15  2  0
 15  5  1  0
 11  6  1  0
  1 16  1  0
  1 17  1  0
  1 18  1  0
  3 19  1  0
  3 20  1  0
  3 21  1  0
  4 22  1  0
  8 23  1  0
  9 24  1  0
 10 25  1  0
 12 26  1  0
 14 27  1  0
 14 28  1  0
 14 29  1  0
 15 30  1  0
A    1
 C1 
A    2
 C2 
A    3
 C3 
A    4
 C4 
A    5
 C5 
A    6
 C6 
A    7
 N1 
A    8
 C7 
A    9
 C8 
A   10
 C9 
A   11
 C10
A   12
 C11
A   13
 C12
A   14
 C13
A   15
 C14
A   16
 H1 
A   17
 H2 
A   18
 H3 
A   19
 H4 
A   20
 H5 
A   21
 H6 
A   22
 H7 
A   23
 H8 
A   24
 H9 
A   25
 H10
A   26
 H11
A   27
 H12
A   28
 H13
A   29
 H14
A   30
 H15
M  END
>  <ref_pdb>  (18) 
x0310_0A

>  <ref_mols>  (18) 
x0554_0A,x0739_0A

>  <original SMILES>  (18) 
CC(C)=Cc1cc(C)cc2cccnc12

>  <rationale>  (18) 
info hydroph_interaction:P107+V124; 

>  <intxn_cluster>  (18) 
103

>  <intxn_cluster_rank>  (18) 
55

>  <N_interactions>  (18) 
2

>  <∆∆G>  (18) 
-12.14939

>  <$/mg>  (18) 
163.0

>  <comRMSD>  (18) 
0.781351

>  <N_rotatable_bonds>  (18) 
4

>  <hbond:SER:7>  (18) 
hbond:SER:7    0
hbond:SER:7    0
Name: 17, dtype: object

>  <halogenbond:SER:7>  (18) 
halogenbond:SER:7    0
halogenbond:SER:7    0
Name: 17, dtype: object

>  <hbond:GLY:8>  (18) 
hbond:GLY:8    0
hbond:GLY:8    0
Name: 17, dtype: object

>  <hydroph_interaction:ASN:19>  (18) 
hydroph_interaction:ASN:19    0
hydroph_interaction:ASN:19    0
Name: 17, dtype: object

>  <hbond:ASN:19>  (18) 
hbond:ASN:19    0
hbond:ASN:19    0
Name: 17, dtype: object

>  <halogenbond:ASN:19>  (18) 
halogenbond:ASN:19    0
halogenbond:ASN:19    0
Name: 17, dtype: object

>  <hbond:ARG:20>  (18) 
hbond:ARG:20    0
hbond:ARG:20    0
Name: 17, dtype: object

>  <hydroph_interaction:ARG:20>  (18) 
hydroph_interaction:ARG:20    0
hydroph_interaction:ARG:20    0
Name: 17, dtype: object

>  <saltbridge:ARG:20>  (18) 
saltbridge:ARG:20    0
saltbridge:ARG:20    0
Name: 17, dtype: object

>  <halogenbond:ARG:20>  (18) 
halogenbond:ARG:20    0
halogenbond:ARG:20    0
Name: 17, dtype: object

>  <pication:ARG:20>  (18) 
pication:ARG:20    0
pication:ARG:20    0
Name: 17, dtype: object

>  <hbond:HIS:21>  (18) 
hbond:HIS:21    0
hbond:HIS:21    0
Name: 17, dtype: object

>  <hydroph_interaction:HIS:21>  (18) 
hydroph_interaction:HIS:21    0
hydroph_interaction:HIS:21    0
Name: 17, dtype: object

>  <saltbridge:HIS:21>  (18) 
saltbridge:HIS:21    0
saltbridge:HIS:21    0
Name: 17, dtype: object

>  <pistack:HIS:21>  (18) 
pistack:HIS:21    0
pistack:HIS:21    0
Name: 17, dtype: object

>  <pication:HIS:21>  (18) 
pication:HIS:21    0
pication:HIS:21    0
Name: 17, dtype: object

>  <halogenbond:HIS:21>  (18) 
halogenbond:HIS:21    0
halogenbond:HIS:21    0
Name: 17, dtype: object

>  <hydroph_interaction:LEU:22>  (18) 
hydroph_interaction:LEU:22    0
hydroph_interaction:LEU:22    0
Name: 17, dtype: object

>  <hbond:LEU:22>  (18) 
hbond:LEU:22    0
hbond:LEU:22    0
Name: 17, dtype: object

>  <hydroph_interaction:TRP:28>  (18) 
hydroph_interaction:TRP:28    0
hydroph_interaction:TRP:28    0
Name: 17, dtype: object

>  <hbond:SER:36>  (18) 
hbond:SER:36    0
hbond:SER:36    0
Name: 17, dtype: object

>  <halogenbond:SER:36>  (18) 
halogenbond:SER:36    0
halogenbond:SER:36    0
Name: 17, dtype: object

>  <hbond:ARG:38>  (18) 
hbond:ARG:38    0
hbond:ARG:38    0
Name: 17, dtype: object

>  <halogenbond:ARG:38>  (18) 
halogenbond:ARG:38    0
halogenbond:ARG:38    0
Name: 17, dtype: object

>  <hbond:ASP:39>  (18) 
hbond:ASP:39    0
hbond:ASP:39    0
Name: 17, dtype: object

>  <saltbridge:ASP:39>  (18) 
saltbridge:ASP:39    0
saltbridge:ASP:39    0
Name: 17, dtype: object

>  <hydroph_interaction:ASP:39>  (18) 
hydroph_interaction:ASP:39    0
hydroph_interaction:ASP:39    0
Name: 17, dtype: object

>  <halogenbond:ASP:39>  (18) 
halogenbond:ASP:39    0
halogenbond:ASP:39    0
Name: 17, dtype: object

>  <hydroph_interaction:LEU:40>  (18) 
hydroph_interaction:LEU:40    0
hydroph_interaction:LEU:40    0
Name: 17, dtype: object

>  <hydroph_interaction:TYR:63>  (18) 
hydroph_interaction:TYR:63    0
hydroph_interaction:TYR:63    0
Name: 17, dtype: object

>  <pistack:TYR:63>  (18) 
pistack:TYR:63    0
pistack:TYR:63    0
Name: 17, dtype: object

>  <hbond:TYR:63>  (18) 
hbond:TYR:63    0
hbond:TYR:63    0
Name: 17, dtype: object

>  <hbond:TYR:64>  (18) 
hbond:TYR:64    0
hbond:TYR:64    0
Name: 17, dtype: object

>  <halogenbond:TYR:64>  (18) 
halogenbond:TYR:64    0
halogenbond:TYR:64    0
Name: 17, dtype: object

>  <hydroph_interaction:TYR:64>  (18) 
hydroph_interaction:TYR:64    0
hydroph_interaction:TYR:64    0
Name: 17, dtype: object

>  <hbond:CYS:65>  (18) 
hbond:CYS:65    0
hbond:CYS:65    0
Name: 17, dtype: object

>  <halogenbond:CYS:65>  (18) 
halogenbond:CYS:65    0
halogenbond:CYS:65    0
Name: 17, dtype: object

>  <hbond:SER:66>  (18) 
hbond:SER:66    0
hbond:SER:66    0
Name: 17, dtype: object

>  <hbond:SER:67>  (18) 
hbond:SER:67    0
hbond:SER:67    0
Name: 17, dtype: object

>  <halogenbond:SER:67>  (18) 
halogenbond:SER:67    0
halogenbond:SER:67    0
Name: 17, dtype: object

>  <hydroph_interaction:ARG:68>  (18) 
hydroph_interaction:ARG:68    0
hydroph_interaction:ARG:68    0
Name: 17, dtype: object

>  <hbond:ARG:68>  (18) 
hbond:ARG:68    0
hbond:ARG:68    0
Name: 17, dtype: object

>  <saltbridge:ARG:68>  (18) 
saltbridge:ARG:68    0
saltbridge:ARG:68    0
Name: 17, dtype: object

>  <pication:ARG:68>  (18) 
pication:ARG:68    0
pication:ARG:68    0
Name: 17, dtype: object

>  <hydroph_interaction:TYR:72>  (18) 
hydroph_interaction:TYR:72    0
hydroph_interaction:TYR:72    0
Name: 17, dtype: object

>  <hydroph_interaction:VAL:74>  (18) 
hydroph_interaction:VAL:74    0
hydroph_interaction:VAL:74    0
Name: 17, dtype: object

>  <hydroph_interaction:PHE:76>  (18) 
hydroph_interaction:PHE:76    0
hydroph_interaction:PHE:76    0
Name: 17, dtype: object

>  <hbond:SER:77>  (18) 
hbond:SER:77    0
hbond:SER:77    0
Name: 17, dtype: object

>  <hbond:SER:80>  (18) 
hbond:SER:80    0
hbond:SER:80    0
Name: 17, dtype: object

>  <hbond:LEU:81>  (18) 
hbond:LEU:81    0
hbond:LEU:81    0
Name: 17, dtype: object

>  <halogenbond:LEU:81>  (18) 
halogenbond:LEU:81    0
halogenbond:LEU:81    0
Name: 17, dtype: object

>  <hydroph_interaction:LEU:81>  (18) 
hydroph_interaction:LEU:81    0
hydroph_interaction:LEU:81    0
Name: 17, dtype: object

>  <hydroph_interaction:ILE:82>  (18) 
hydroph_interaction:ILE:82    0
hydroph_interaction:ILE:82    0
Name: 17, dtype: object

>  <hbond:ILE:82>  (18) 
hbond:ILE:82    0
hbond:ILE:82    0
Name: 17, dtype: object

>  <hydroph_interaction:PHE:83>  (18) 
hydroph_interaction:PHE:83    0
hydroph_interaction:PHE:83    0
Name: 17, dtype: object

>  <hbond:PHE:83>  (18) 
hbond:PHE:83    0
hbond:PHE:83    0
Name: 17, dtype: object

>  <halogenbond:PHE:83>  (18) 
halogenbond:PHE:83    0
halogenbond:PHE:83    0
Name: 17, dtype: object

>  <pistack:PHE:83>  (18) 
pistack:PHE:83    0
pistack:PHE:83    0
Name: 17, dtype: object

>  <hydroph_interaction:VAL:84>  (18) 
hydroph_interaction:VAL:84    0
hydroph_interaction:VAL:84    0
Name: 17, dtype: object

>  <hbond:VAL:84>  (18) 
hbond:VAL:84    0
hbond:VAL:84    0
Name: 17, dtype: object

>  <halogenbond:VAL:84>  (18) 
halogenbond:VAL:84    0
halogenbond:VAL:84    0
Name: 17, dtype: object

>  <hydroph_interaction:GLU:85>  (18) 
hydroph_interaction:GLU:85    0
hydroph_interaction:GLU:85    0
Name: 17, dtype: object

>  <hbond:GLU:85>  (18) 
hbond:GLU:85    0
hbond:GLU:85    0
Name: 17, dtype: object

>  <saltbridge:GLU:85>  (18) 
saltbridge:GLU:85    0
saltbridge:GLU:85    0
Name: 17, dtype: object

>  <halogenbond:GLU:85>  (18) 
halogenbond:GLU:85    0
halogenbond:GLU:85    0
Name: 17, dtype: object

>  <hbond:ALA:86>  (18) 
hbond:ALA:86    0
hbond:ALA:86    0
Name: 17, dtype: object

>  <halogenbond:ALA:86>  (18) 
halogenbond:ALA:86    0
halogenbond:ALA:86    0
Name: 17, dtype: object

>  <hydroph_interaction:ALA:86>  (18) 
hydroph_interaction:ALA:86    0
hydroph_interaction:ALA:86    0
Name: 17, dtype: object

>  <hbond:SER:87>  (18) 
hbond:SER:87    0
hbond:SER:87    0
Name: 17, dtype: object

>  <halogenbond:SER:87>  (18) 
halogenbond:SER:87    0
halogenbond:SER:87    0
Name: 17, dtype: object

>  <hbond:GLU:88>  (18) 
hbond:GLU:88    0
hbond:GLU:88    0
Name: 17, dtype: object

>  <hydroph_interaction:GLU:88>  (18) 
hydroph_interaction:GLU:88    0
hydroph_interaction:GLU:88    0
Name: 17, dtype: object

>  <halogenbond:GLU:88>  (18) 
halogenbond:GLU:88    0
halogenbond:GLU:88    0
Name: 17, dtype: object

>  <saltbridge:GLU:88>  (18) 
saltbridge:GLU:88    0
saltbridge:GLU:88    0
Name: 17, dtype: object

>  <hydroph_interaction:TYR:89>  (18) 
hydroph_interaction:TYR:89    0
hydroph_interaction:TYR:89    0
Name: 17, dtype: object

>  <pistack:TYR:89>  (18) 
pistack:TYR:89    0
pistack:TYR:89    0
Name: 17, dtype: object

>  <hbond:TYR:89>  (18) 
hbond:TYR:89    0
hbond:TYR:89    0
Name: 17, dtype: object

>  <halogenbond:TYR:89>  (18) 
halogenbond:TYR:89    0
halogenbond:TYR:89    0
Name: 17, dtype: object

>  <hbond:TYR:90>  (18) 
hbond:TYR:90    0
hbond:TYR:90    0
Name: 17, dtype: object

>  <hydroph_interaction:TYR:90>  (18) 
hydroph_interaction:TYR:90    0
hydroph_interaction:TYR:90    0
Name: 17, dtype: object

>  <pistack:TYR:90>  (18) 
pistack:TYR:90    0
pistack:TYR:90    0
Name: 17, dtype: object

>  <halogenbond:TYR:90>  (18) 
halogenbond:TYR:90    0
halogenbond:TYR:90    0
Name: 17, dtype: object

>  <pication:TYR:90>  (18) 
pication:TYR:90    0
pication:TYR:90    0
Name: 17, dtype: object

>  <hydroph_interaction:PRO:91>  (18) 
hydroph_interaction:PRO:91    0
hydroph_interaction:PRO:91    0
Name: 17, dtype: object

>  <halogenbond:PRO:91>  (18) 
halogenbond:PRO:91    0
halogenbond:PRO:91    0
Name: 17, dtype: object

>  <hbond:PRO:91>  (18) 
hbond:PRO:91    0
hbond:PRO:91    0
Name: 17, dtype: object

>  <hydroph_interaction:ALA:92>  (18) 
hydroph_interaction:ALA:92    0
hydroph_interaction:ALA:92    0
Name: 17, dtype: object

>  <hbond:ARG:93>  (18) 
hbond:ARG:93    0
hbond:ARG:93    0
Name: 17, dtype: object

>  <pication:ARG:93>  (18) 
pication:ARG:93    0
pication:ARG:93    0
Name: 17, dtype: object

>  <saltbridge:ARG:93>  (18) 
saltbridge:ARG:93    0
saltbridge:ARG:93    0
Name: 17, dtype: object

>  <hydroph_interaction:ARG:93>  (18) 
hydroph_interaction:ARG:93    0
hydroph_interaction:ARG:93    0
Name: 17, dtype: object

>  <halogenbond:ARG:93>  (18) 
halogenbond:ARG:93    0
halogenbond:ARG:93    0
Name: 17, dtype: object

>  <hydroph_interaction:TYR:94>  (18) 
hydroph_interaction:TYR:94    0
hydroph_interaction:TYR:94    0
Name: 17, dtype: object

>  <hbond:TYR:94>  (18) 
hbond:TYR:94    0
hbond:TYR:94    0
Name: 17, dtype: object

>  <halogenbond:GLN:95>  (18) 
halogenbond:GLN:95    0
halogenbond:GLN:95    0
Name: 17, dtype: object

>  <hbond:GLN:95>  (18) 
hbond:GLN:95    0
hbond:GLN:95    0
Name: 17, dtype: object

>  <hydroph_interaction:GLN:95>  (18) 
hydroph_interaction:GLN:95    0
hydroph_interaction:GLN:95    0
Name: 17, dtype: object

>  <hbond:SER:96>  (18) 
hbond:SER:96    0
hbond:SER:96    0
Name: 17, dtype: object

>  <hydroph_interaction:LEU:98>  (18) 
hydroph_interaction:LEU:98    0
hydroph_interaction:LEU:98    0
Name: 17, dtype: object

>  <hbond:LEU:98>  (18) 
hbond:LEU:98    0
hbond:LEU:98    0
Name: 17, dtype: object

>  <hbond:MET:99>  (18) 
hbond:MET:99    0
hbond:MET:99    0
Name: 17, dtype: object

>  <hydroph_interaction:MET:99>  (18) 
hydroph_interaction:MET:99    0
hydroph_interaction:MET:99    0
Name: 17, dtype: object

>  <halogenbond:MET:99>  (18) 
halogenbond:MET:99    0
halogenbond:MET:99    0
Name: 17, dtype: object

>  <hydroph_interaction:LEU:100>  (18) 
hydroph_interaction:LEU:100    0
hydroph_interaction:LEU:100    0
Name: 17, dtype: object

>  <hbond:LEU:100>  (18) 
hbond:LEU:100    0
hbond:LEU:100    0
Name: 17, dtype: object

>  <hbond:ALA:101>  (18) 
hbond:ALA:101    0
hbond:ALA:101    0
Name: 17, dtype: object

>  <hydroph_interaction:ALA:101>  (18) 
hydroph_interaction:ALA:101    0
hydroph_interaction:ALA:101    0
Name: 17, dtype: object

>  <hydroph_interaction:VAL:102>  (18) 
hydroph_interaction:VAL:102    0
hydroph_interaction:VAL:102    0
Name: 17, dtype: object

>  <hbond:VAL:102>  (18) 
hbond:VAL:102    0
hbond:VAL:102    0
Name: 17, dtype: object

>  <hbond:GLY:103>  (18) 
hbond:GLY:103    0
hbond:GLY:103    0
Name: 17, dtype: object

>  <halogenbond:GLY:103>  (18) 
halogenbond:GLY:103    0
halogenbond:GLY:103    0
Name: 17, dtype: object

>  <hydroph_interaction:HIS:104>  (18) 
hydroph_interaction:HIS:104    0
hydroph_interaction:HIS:104    0
Name: 17, dtype: object

>  <hbond:HIS:104>  (18) 
hbond:HIS:104    0
hbond:HIS:104    0
Name: 17, dtype: object

>  <saltbridge:HIS:104>  (18) 
saltbridge:HIS:104    0
saltbridge:HIS:104    0
Name: 17, dtype: object

>  <pication:HIS:104>  (18) 
pication:HIS:104    0
pication:HIS:104    0
Name: 17, dtype: object

>  <pistack:HIS:104>  (18) 
pistack:HIS:104    0
pistack:HIS:104    0
Name: 17, dtype: object

>  <halogenbond:HIS:104>  (18) 
halogenbond:HIS:104    0
halogenbond:HIS:104    0
Name: 17, dtype: object

>  <hbond:SER:105>  (18) 
hbond:SER:105    0
hbond:SER:105    0
Name: 17, dtype: object

>  <halogenbond:SER:105>  (18) 
halogenbond:SER:105    0
halogenbond:SER:105    0
Name: 17, dtype: object

>  <hbond:GLU:106>  (18) 
hbond:GLU:106    0
hbond:GLU:106    0
Name: 17, dtype: object

>  <hydroph_interaction:GLU:106>  (18) 
hydroph_interaction:GLU:106    0
hydroph_interaction:GLU:106    0
Name: 17, dtype: object

>  <saltbridge:GLU:106>  (18) 
saltbridge:GLU:106    0
saltbridge:GLU:106    0
Name: 17, dtype: object

>  <halogenbond:GLU:106>  (18) 
halogenbond:GLU:106    0
halogenbond:GLU:106    0
Name: 17, dtype: object

>  <hydroph_interaction:PRO:107>  (18) 
hydroph_interaction:PRO:107    1
hydroph_interaction:PRO:107    1
Name: 17, dtype: object

>  <hbond:PRO:107>  (18) 
hbond:PRO:107    0
hbond:PRO:107    0
Name: 17, dtype: object

>  <halogenbond:PRO:107>  (18) 
halogenbond:PRO:107    0
halogenbond:PRO:107    0
Name: 17, dtype: object

>  <hbond:GLY:108>  (18) 
hbond:GLY:108    0
hbond:GLY:108    0
Name: 17, dtype: object

>  <halogenbond:GLY:108>  (18) 
halogenbond:GLY:108    0
halogenbond:GLY:108    0
Name: 17, dtype: object

>  <hbond:ASP:109>  (18) 
hbond:ASP:109    0
hbond:ASP:109    0
Name: 17, dtype: object

>  <hydroph_interaction:ASP:109>  (18) 
hydroph_interaction:ASP:109    0
hydroph_interaction:ASP:109    0
Name: 17, dtype: object

>  <saltbridge:ASP:109>  (18) 
saltbridge:ASP:109    0
saltbridge:ASP:109    0
Name: 17, dtype: object

>  <hbond:CYS:110>  (18) 
hbond:CYS:110    0
hbond:CYS:110    0
Name: 17, dtype: object

>  <halogenbond:CYS:110>  (18) 
halogenbond:CYS:110    0
halogenbond:CYS:110    0
Name: 17, dtype: object

>  <hbond:GLY:111>  (18) 
hbond:GLY:111    0
hbond:GLY:111    0
Name: 17, dtype: object

>  <hbond:GLY:112>  (18) 
hbond:GLY:112    0
hbond:GLY:112    0
Name: 17, dtype: object

>  <hbond:ILE:113>  (18) 
hbond:ILE:113    0
hbond:ILE:113    0
Name: 17, dtype: object

>  <hydroph_interaction:LEU:114>  (18) 
hydroph_interaction:LEU:114    0
hydroph_interaction:LEU:114    0
Name: 17, dtype: object

>  <hbond:LEU:114>  (18) 
hbond:LEU:114    0
hbond:LEU:114    0
Name: 17, dtype: object

>  <hydroph_interaction:ILE:123>  (18) 
hydroph_interaction:ILE:123    0
hydroph_interaction:ILE:123    0
Name: 17, dtype: object

>  <hbond:ILE:123>  (18) 
hbond:ILE:123    0
hbond:ILE:123    0
Name: 17, dtype: object

>  <hydroph_interaction:VAL:124>  (18) 
hydroph_interaction:VAL:124    1
hydroph_interaction:VAL:124    1
Name: 17, dtype: object

>  <hbond:VAL:124>  (18) 
hbond:VAL:124    0
hbond:VAL:124    0
Name: 17, dtype: object

>  <halogenbond:VAL:124>  (18) 
halogenbond:VAL:124    0
halogenbond:VAL:124    0
Name: 17, dtype: object

>  <hbond:SER:125>  (18) 
hbond:SER:125    0
hbond:SER:125    0
Name: 17, dtype: object

>  <halogenbond:SER:125>  (18) 
halogenbond:SER:125    0
halogenbond:SER:125    0
Name: 17, dtype: object

>  <hydroph_interaction:THR:126>  (18) 
hydroph_interaction:THR:126    0
hydroph_interaction:THR:126    0
Name: 17, dtype: object

>  <hbond:THR:126>  (18) 
hbond:THR:126    0
hbond:THR:126    0
Name: 17, dtype: object

>  <halogenbond:THR:126>  (18) 
halogenbond:THR:126    0
halogenbond:THR:126    0
Name: 17, dtype: object

>  <hbond:GLY:127>  (18) 
hbond:GLY:127    0
hbond:GLY:127    0
Name: 17, dtype: object

>  <halogenbond:GLY:127>  (18) 
halogenbond:GLY:127    0
halogenbond:GLY:127    0
Name: 17, dtype: object

>  <hydroph_interaction:GLY:127>  (18) 
hydroph_interaction:GLY:127    0
hydroph_interaction:GLY:127    0
Name: 17, dtype: object

>  <hbond:GLY:128>  (18) 
hbond:GLY:128    0
hbond:GLY:128    0
Name: 17, dtype: object

>  <halogenbond:GLY:128>  (18) 
halogenbond:GLY:128    0
halogenbond:GLY:128    0
Name: 17, dtype: object

>  <hydroph_interaction:GLY:128>  (18) 
hydroph_interaction:GLY:128    0
hydroph_interaction:GLY:128    0
Name: 17, dtype: object

>  <hbond:ASN:129>  (18) 
hbond:ASN:129    0
hbond:ASN:129    0
Name: 17, dtype: object

>  <hydroph_interaction:ASN:129>  (18) 
hydroph_interaction:ASN:129    0
hydroph_interaction:ASN:129    0
Name: 17, dtype: object

>  <halogenbond:ASN:129>  (18) 
halogenbond:ASN:129    0
halogenbond:ASN:129    0
Name: 17, dtype: object

>  <hbond:GLY:130>  (18) 
hbond:GLY:130    0
hbond:GLY:130    0
Name: 17, dtype: object

>  <hydroph_interaction:LEU:131>  (18) 
hydroph_interaction:LEU:131    0
hydroph_interaction:LEU:131    0
Name: 17, dtype: object

>  <hbond:LEU:131>  (18) 
hbond:LEU:131    0
hbond:LEU:131    0
Name: 17, dtype: object

>  <halogenbond:LEU:131>  (18) 
halogenbond:LEU:131    0
halogenbond:LEU:131    0
Name: 17, dtype: object

>  <hydroph_interaction:VAL:132>  (18) 
hydroph_interaction:VAL:132    0
hydroph_interaction:VAL:132    0
Name: 17, dtype: object

>  <hbond:VAL:132>  (18) 
hbond:VAL:132    0
hbond:VAL:132    0
Name: 17, dtype: object

>  <hbond:GLY:133>  (18) 
hbond:GLY:133    0
hbond:GLY:133    0
Name: 17, dtype: object

>  <halogenbond:GLY:133>  (18) 
halogenbond:GLY:133    0
halogenbond:GLY:133    0
Name: 17, dtype: object

>  <hydroph_interaction:PHE:134>  (18) 
hydroph_interaction:PHE:134    0
hydroph_interaction:PHE:134    0
Name: 17, dtype: object

>  <hbond:PHE:134>  (18) 
hbond:PHE:134    0
hbond:PHE:134    0
Name: 17, dtype: object

>  <pistack:PHE:134>  (18) 
pistack:PHE:134    0
pistack:PHE:134    0
Name: 17, dtype: object

>  <pication:PHE:134>  (18) 
pication:PHE:134    0
pication:PHE:134    0
Name: 17, dtype: object

>  <hydroph_interaction:ALA:135>  (18) 
hydroph_interaction:ALA:135    0
hydroph_interaction:ALA:135    0
Name: 17, dtype: object

>  <hbond:ALA:135>  (18) 
hbond:ALA:135    0
hbond:ALA:135    0
Name: 17, dtype: object

$$$$
PV_006474152892
     RDKit          3D

 34 36  0  0  0  0  0  0  0  0999 V2000
   13.3220   16.2760   20.5310 C   0  0  0  0  0  0  0  0  0  0  0  0
   12.2260   15.7560   21.4150 C   0  0  0  0  0  0  0  0  0  0  0  0
   10.9000   15.5130   20.6510 C   0  0  0  0  0  0  0  0  0  0  0  0
   10.0270   14.4400   21.2580 C   0  0  0  0  0  0  0  0  0  0  0  0
   10.4340   13.6710   22.2900 C   0  0  0  0  0  0  0  0  0  0  0  0
    9.7990   12.5710   22.9570 C   0  0  0  0  0  0  0  0  0  0  0  0
   10.2350   11.3550   22.6300 N   0  0  0  0  0  0  0  0  0  0  0  0
    9.5250   10.5190   23.3540 N   0  0  0  0  0  0  0  0  0  0  0  0
    9.7900    9.1220   23.1950 C   0  0  0  0  0  0  0  0  0  0  0  0
    8.6160   11.1150   24.1730 C   0  0  0  0  0  0  0  0  0  0  0  0
    7.6920   10.6120   25.0740 C   0  0  0  0  0  0  0  0  0  0  0  0
    6.9160   11.5370   25.7500 C   0  0  0  0  0  0  0  0  0  0  0  0
    7.1080   12.8820   25.4910 C   0  0  0  0  0  0  0  0  0  0  0  0
    8.0030   13.3970   24.6170 N   0  0  0  0  0  0  0  0  0  0  0  0
    8.7610   12.4820   23.9510 C   0  0  0  0  0  0  0  0  0  0  0  0
   11.7700   13.8720   22.9130 C   0  0  0  0  0  0  0  0  0  0  0  0
   12.7780   14.4760   21.9900 C   0  0  0  0  0  0  0  0  0  0  0  0
   14.2910   16.0740   20.9770 H   0  0  0  0  0  0  0  0  0  0  0  0
   13.2990   15.7800   19.5590 H   0  0  0  0  0  0  0  0  0  0  0  0
   13.2350   17.3510   20.4090 H   0  0  0  0  0  0  0  0  0  0  0  0
   12.0630   16.4790   22.2280 H   0  0  0  0  0  0  0  0  0  0  0  0
   11.1200   15.1980   19.6220 H   0  0  0  0  0  0  0  0  0  0  0  0
   10.3390   16.4470   20.5670 H   0  0  0  0  0  0  0  0  0  0  0  0
    9.0530   14.3000   20.7970 H   0  0  0  0  0  0  0  0  0  0  0  0
    9.4280    8.7790   22.2250 H   0  0  0  0  0  0  0  0  0  0  0  0
    9.2680    8.6000   23.9880 H   0  0  0  0  0  0  0  0  0  0  0  0
   10.8690    8.9710   23.2710 H   0  0  0  0  0  0  0  0  0  0  0  0
    7.5830    9.5600   25.2390 H   0  0  0  0  0  0  0  0  0  0  0  0
    6.1720   11.2140   26.4700 H   0  0  0  0  0  0  0  0  0  0  0  0
    6.5080   13.6260   26.0110 H   0  0  0  0  0  0  0  0  0  0  0  0
   11.6550   14.5320   23.7840 H   0  0  0  0  0  0  0  0  0  0  0  0
   12.1790   12.9240   23.2800 H   0  0  0  0  0  0  0  0  0  0  0  0
   13.0110   13.7680   21.1810 H   0  0  0  0  0  0  0  0  0  0  0  0
   13.7090   14.6640   22.5350 H   0  0  0  0  0  0  0  0  0  0  0  0
  1  2  1  0
  2  3  1  0
  3  4  1  0
  4  5  2  0
  5  6  1  0
  6  7  2  0
  7  8  1  0
  8  9  1  0
  8 10  1  0
 10 11  2  0
 11 12  1  0
 12 13  2  0
 13 14  1  0
 14 15  2  0
  5 16  1  0
 16 17  1  0
 17  2  1  0
 15  6  1  0
 15 10  1  0
  1 18  1  0
  1 19  1  0
  1 20  1  0
  2 21  1  0
  3 22  1  0
  3 23  1  0
  4 24  1  0
  9 25  1  0
  9 26  1  0
  9 27  1  0
 11 28  1  0
 12 29  1  0
 13 30  1  0
 16 31  1  0
 16 32  1  0
 17 33  1  0
 17 34  1  0
A    1
 C1 
A    2
 C2 
A    3
 C3 
A    4
 C4 
A    5
 C5 
A    6
 C6 
A    7
 N1 
A    8
 N2 
A    9
 C7 
A   10
 C8 
A   11
 C9 
A   12
 C10
A   13
 C11
A   14
 N3 
A   15
 C12
A   16
 C13
A   17
 C14
A   18
 H1 
A   19
 H2 
A   20
 H3 
A   21
 H4 
A   22
 H5 
A   23
 H6 
A   24
 H7 
A   25
 H8 
A   26
 H9 
A   27
 H10
A   28
 H11
A   29
 H12
A   30
 H13
A   31
 H14
A   32
 H15
A   33
 H16
A   34
 H17
M  END
>  <ref_pdb>  (19) 
x0310_0A

>  <ref_mols>  (19) 
x0451_0A,x0812_0A

>  <original SMILES>  (19) 
CC1CC=C(c2nn(C)c3cccnc23)CC1

>  <rationale>  (19) 
info hydroph_interaction:Y89+H21; 

>  <intxn_cluster>  (19) 
208

>  <intxn_cluster_rank>  (19) 
58

>  <N_interactions>  (19) 
2

>  <∆∆G>  (19) 
-10.43426

>  <$/mg>  (19) 
163.0

>  <comRMSD>  (19) 
0.872786

>  <N_rotatable_bonds>  (19) 
3

>  <hbond:SER:7>  (19) 
hbond:SER:7    0
hbond:SER:7    0
Name: 18, dtype: object

>  <halogenbond:SER:7>  (19) 
halogenbond:SER:7    0
halogenbond:SER:7    0
Name: 18, dtype: object

>  <hbond:GLY:8>  (19) 
hbond:GLY:8    0
hbond:GLY:8    0
Name: 18, dtype: object

>  <hydroph_interaction:ASN:19>  (19) 
hydroph_interaction:ASN:19    0
hydroph_interaction:ASN:19    0
Name: 18, dtype: object

>  <hbond:ASN:19>  (19) 
hbond:ASN:19    0
hbond:ASN:19    0
Name: 18, dtype: object

>  <halogenbond:ASN:19>  (19) 
halogenbond:ASN:19    0
halogenbond:ASN:19    0
Name: 18, dtype: object

>  <hbond:ARG:20>  (19) 
hbond:ARG:20    0
hbond:ARG:20    0
Name: 18, dtype: object

>  <hydroph_interaction:ARG:20>  (19) 
hydroph_interaction:ARG:20    0
hydroph_interaction:ARG:20    0
Name: 18, dtype: object

>  <saltbridge:ARG:20>  (19) 
saltbridge:ARG:20    0
saltbridge:ARG:20    0
Name: 18, dtype: object

>  <halogenbond:ARG:20>  (19) 
halogenbond:ARG:20    0
halogenbond:ARG:20    0
Name: 18, dtype: object

>  <pication:ARG:20>  (19) 
pication:ARG:20    0
pication:ARG:20    0
Name: 18, dtype: object

>  <hbond:HIS:21>  (19) 
hbond:HIS:21    0
hbond:HIS:21    0
Name: 18, dtype: object

>  <hydroph_interaction:HIS:21>  (19) 
hydroph_interaction:HIS:21    1
hydroph_interaction:HIS:21    1
Name: 18, dtype: object

>  <saltbridge:HIS:21>  (19) 
saltbridge:HIS:21    0
saltbridge:HIS:21    0
Name: 18, dtype: object

>  <pistack:HIS:21>  (19) 
pistack:HIS:21    0
pistack:HIS:21    0
Name: 18, dtype: object

>  <pication:HIS:21>  (19) 
pication:HIS:21    0
pication:HIS:21    0
Name: 18, dtype: object

>  <halogenbond:HIS:21>  (19) 
halogenbond:HIS:21    0
halogenbond:HIS:21    0
Name: 18, dtype: object

>  <hydroph_interaction:LEU:22>  (19) 
hydroph_interaction:LEU:22    0
hydroph_interaction:LEU:22    0
Name: 18, dtype: object

>  <hbond:LEU:22>  (19) 
hbond:LEU:22    0
hbond:LEU:22    0
Name: 18, dtype: object

>  <hydroph_interaction:TRP:28>  (19) 
hydroph_interaction:TRP:28    0
hydroph_interaction:TRP:28    0
Name: 18, dtype: object

>  <hbond:SER:36>  (19) 
hbond:SER:36    0
hbond:SER:36    0
Name: 18, dtype: object

>  <halogenbond:SER:36>  (19) 
halogenbond:SER:36    0
halogenbond:SER:36    0
Name: 18, dtype: object

>  <hbond:ARG:38>  (19) 
hbond:ARG:38    0
hbond:ARG:38    0
Name: 18, dtype: object

>  <halogenbond:ARG:38>  (19) 
halogenbond:ARG:38    0
halogenbond:ARG:38    0
Name: 18, dtype: object

>  <hbond:ASP:39>  (19) 
hbond:ASP:39    0
hbond:ASP:39    0
Name: 18, dtype: object

>  <saltbridge:ASP:39>  (19) 
saltbridge:ASP:39    0
saltbridge:ASP:39    0
Name: 18, dtype: object

>  <hydroph_interaction:ASP:39>  (19) 
hydroph_interaction:ASP:39    0
hydroph_interaction:ASP:39    0
Name: 18, dtype: object

>  <halogenbond:ASP:39>  (19) 
halogenbond:ASP:39    0
halogenbond:ASP:39    0
Name: 18, dtype: object

>  <hydroph_interaction:LEU:40>  (19) 
hydroph_interaction:LEU:40    0
hydroph_interaction:LEU:40    0
Name: 18, dtype: object

>  <hydroph_interaction:TYR:63>  (19) 
hydroph_interaction:TYR:63    0
hydroph_interaction:TYR:63    0
Name: 18, dtype: object

>  <pistack:TYR:63>  (19) 
pistack:TYR:63    0
pistack:TYR:63    0
Name: 18, dtype: object

>  <hbond:TYR:63>  (19) 
hbond:TYR:63    0
hbond:TYR:63    0
Name: 18, dtype: object

>  <hbond:TYR:64>  (19) 
hbond:TYR:64    0
hbond:TYR:64    0
Name: 18, dtype: object

>  <halogenbond:TYR:64>  (19) 
halogenbond:TYR:64    0
halogenbond:TYR:64    0
Name: 18, dtype: object

>  <hydroph_interaction:TYR:64>  (19) 
hydroph_interaction:TYR:64    0
hydroph_interaction:TYR:64    0
Name: 18, dtype: object

>  <hbond:CYS:65>  (19) 
hbond:CYS:65    0
hbond:CYS:65    0
Name: 18, dtype: object

>  <halogenbond:CYS:65>  (19) 
halogenbond:CYS:65    0
halogenbond:CYS:65    0
Name: 18, dtype: object

>  <hbond:SER:66>  (19) 
hbond:SER:66    0
hbond:SER:66    0
Name: 18, dtype: object

>  <hbond:SER:67>  (19) 
hbond:SER:67    0
hbond:SER:67    0
Name: 18, dtype: object

>  <halogenbond:SER:67>  (19) 
halogenbond:SER:67    0
halogenbond:SER:67    0
Name: 18, dtype: object

>  <hydroph_interaction:ARG:68>  (19) 
hydroph_interaction:ARG:68    0
hydroph_interaction:ARG:68    0
Name: 18, dtype: object

>  <hbond:ARG:68>  (19) 
hbond:ARG:68    0
hbond:ARG:68    0
Name: 18, dtype: object

>  <saltbridge:ARG:68>  (19) 
saltbridge:ARG:68    0
saltbridge:ARG:68    0
Name: 18, dtype: object

>  <pication:ARG:68>  (19) 
pication:ARG:68    0
pication:ARG:68    0
Name: 18, dtype: object

>  <hydroph_interaction:TYR:72>  (19) 
hydroph_interaction:TYR:72    0
hydroph_interaction:TYR:72    0
Name: 18, dtype: object

>  <hydroph_interaction:VAL:74>  (19) 
hydroph_interaction:VAL:74    0
hydroph_interaction:VAL:74    0
Name: 18, dtype: object

>  <hydroph_interaction:PHE:76>  (19) 
hydroph_interaction:PHE:76    0
hydroph_interaction:PHE:76    0
Name: 18, dtype: object

>  <hbond:SER:77>  (19) 
hbond:SER:77    0
hbond:SER:77    0
Name: 18, dtype: object

>  <hbond:SER:80>  (19) 
hbond:SER:80    0
hbond:SER:80    0
Name: 18, dtype: object

>  <hbond:LEU:81>  (19) 
hbond:LEU:81    0
hbond:LEU:81    0
Name: 18, dtype: object

>  <halogenbond:LEU:81>  (19) 
halogenbond:LEU:81    0
halogenbond:LEU:81    0
Name: 18, dtype: object

>  <hydroph_interaction:LEU:81>  (19) 
hydroph_interaction:LEU:81    0
hydroph_interaction:LEU:81    0
Name: 18, dtype: object

>  <hydroph_interaction:ILE:82>  (19) 
hydroph_interaction:ILE:82    0
hydroph_interaction:ILE:82    0
Name: 18, dtype: object

>  <hbond:ILE:82>  (19) 
hbond:ILE:82    0
hbond:ILE:82    0
Name: 18, dtype: object

>  <hydroph_interaction:PHE:83>  (19) 
hydroph_interaction:PHE:83    0
hydroph_interaction:PHE:83    0
Name: 18, dtype: object

>  <hbond:PHE:83>  (19) 
hbond:PHE:83    0
hbond:PHE:83    0
Name: 18, dtype: object

>  <halogenbond:PHE:83>  (19) 
halogenbond:PHE:83    0
halogenbond:PHE:83    0
Name: 18, dtype: object

>  <pistack:PHE:83>  (19) 
pistack:PHE:83    0
pistack:PHE:83    0
Name: 18, dtype: object

>  <hydroph_interaction:VAL:84>  (19) 
hydroph_interaction:VAL:84    0
hydroph_interaction:VAL:84    0
Name: 18, dtype: object

>  <hbond:VAL:84>  (19) 
hbond:VAL:84    0
hbond:VAL:84    0
Name: 18, dtype: object

>  <halogenbond:VAL:84>  (19) 
halogenbond:VAL:84    0
halogenbond:VAL:84    0
Name: 18, dtype: object

>  <hydroph_interaction:GLU:85>  (19) 
hydroph_interaction:GLU:85    0
hydroph_interaction:GLU:85    0
Name: 18, dtype: object

>  <hbond:GLU:85>  (19) 
hbond:GLU:85    0
hbond:GLU:85    0
Name: 18, dtype: object

>  <saltbridge:GLU:85>  (19) 
saltbridge:GLU:85    0
saltbridge:GLU:85    0
Name: 18, dtype: object

>  <halogenbond:GLU:85>  (19) 
halogenbond:GLU:85    0
halogenbond:GLU:85    0
Name: 18, dtype: object

>  <hbond:ALA:86>  (19) 
hbond:ALA:86    0
hbond:ALA:86    0
Name: 18, dtype: object

>  <halogenbond:ALA:86>  (19) 
halogenbond:ALA:86    0
halogenbond:ALA:86    0
Name: 18, dtype: object

>  <hydroph_interaction:ALA:86>  (19) 
hydroph_interaction:ALA:86    0
hydroph_interaction:ALA:86    0
Name: 18, dtype: object

>  <hbond:SER:87>  (19) 
hbond:SER:87    0
hbond:SER:87    0
Name: 18, dtype: object

>  <halogenbond:SER:87>  (19) 
halogenbond:SER:87    0
halogenbond:SER:87    0
Name: 18, dtype: object

>  <hbond:GLU:88>  (19) 
hbond:GLU:88    0
hbond:GLU:88    0
Name: 18, dtype: object

>  <hydroph_interaction:GLU:88>  (19) 
hydroph_interaction:GLU:88    0
hydroph_interaction:GLU:88    0
Name: 18, dtype: object

>  <halogenbond:GLU:88>  (19) 
halogenbond:GLU:88    0
halogenbond:GLU:88    0
Name: 18, dtype: object

>  <saltbridge:GLU:88>  (19) 
saltbridge:GLU:88    0
saltbridge:GLU:88    0
Name: 18, dtype: object

>  <hydroph_interaction:TYR:89>  (19) 
hydroph_interaction:TYR:89    1
hydroph_interaction:TYR:89    1
Name: 18, dtype: object

>  <pistack:TYR:89>  (19) 
pistack:TYR:89    0
pistack:TYR:89    0
Name: 18, dtype: object

>  <hbond:TYR:89>  (19) 
hbond:TYR:89    0
hbond:TYR:89    0
Name: 18, dtype: object

>  <halogenbond:TYR:89>  (19) 
halogenbond:TYR:89    0
halogenbond:TYR:89    0
Name: 18, dtype: object

>  <hbond:TYR:90>  (19) 
hbond:TYR:90    0
hbond:TYR:90    0
Name: 18, dtype: object

>  <hydroph_interaction:TYR:90>  (19) 
hydroph_interaction:TYR:90    0
hydroph_interaction:TYR:90    0
Name: 18, dtype: object

>  <pistack:TYR:90>  (19) 
pistack:TYR:90    0
pistack:TYR:90    0
Name: 18, dtype: object

>  <halogenbond:TYR:90>  (19) 
halogenbond:TYR:90    0
halogenbond:TYR:90    0
Name: 18, dtype: object

>  <pication:TYR:90>  (19) 
pication:TYR:90    0
pication:TYR:90    0
Name: 18, dtype: object

>  <hydroph_interaction:PRO:91>  (19) 
hydroph_interaction:PRO:91    0
hydroph_interaction:PRO:91    0
Name: 18, dtype: object

>  <halogenbond:PRO:91>  (19) 
halogenbond:PRO:91    0
halogenbond:PRO:91    0
Name: 18, dtype: object

>  <hbond:PRO:91>  (19) 
hbond:PRO:91    0
hbond:PRO:91    0
Name: 18, dtype: object

>  <hydroph_interaction:ALA:92>  (19) 
hydroph_interaction:ALA:92    0
hydroph_interaction:ALA:92    0
Name: 18, dtype: object

>  <hbond:ARG:93>  (19) 
hbond:ARG:93    0
hbond:ARG:93    0
Name: 18, dtype: object

>  <pication:ARG:93>  (19) 
pication:ARG:93    0
pication:ARG:93    0
Name: 18, dtype: object

>  <saltbridge:ARG:93>  (19) 
saltbridge:ARG:93    0
saltbridge:ARG:93    0
Name: 18, dtype: object

>  <hydroph_interaction:ARG:93>  (19) 
hydroph_interaction:ARG:93    0
hydroph_interaction:ARG:93    0
Name: 18, dtype: object

>  <halogenbond:ARG:93>  (19) 
halogenbond:ARG:93    0
halogenbond:ARG:93    0
Name: 18, dtype: object

>  <hydroph_interaction:TYR:94>  (19) 
hydroph_interaction:TYR:94    0
hydroph_interaction:TYR:94    0
Name: 18, dtype: object

>  <hbond:TYR:94>  (19) 
hbond:TYR:94    0
hbond:TYR:94    0
Name: 18, dtype: object

>  <halogenbond:GLN:95>  (19) 
halogenbond:GLN:95    0
halogenbond:GLN:95    0
Name: 18, dtype: object

>  <hbond:GLN:95>  (19) 
hbond:GLN:95    0
hbond:GLN:95    0
Name: 18, dtype: object

>  <hydroph_interaction:GLN:95>  (19) 
hydroph_interaction:GLN:95    0
hydroph_interaction:GLN:95    0
Name: 18, dtype: object

>  <hbond:SER:96>  (19) 
hbond:SER:96    0
hbond:SER:96    0
Name: 18, dtype: object

>  <hydroph_interaction:LEU:98>  (19) 
hydroph_interaction:LEU:98    0
hydroph_interaction:LEU:98    0
Name: 18, dtype: object

>  <hbond:LEU:98>  (19) 
hbond:LEU:98    0
hbond:LEU:98    0
Name: 18, dtype: object

>  <hbond:MET:99>  (19) 
hbond:MET:99    0
hbond:MET:99    0
Name: 18, dtype: object

>  <hydroph_interaction:MET:99>  (19) 
hydroph_interaction:MET:99    0
hydroph_interaction:MET:99    0
Name: 18, dtype: object

>  <halogenbond:MET:99>  (19) 
halogenbond:MET:99    0
halogenbond:MET:99    0
Name: 18, dtype: object

>  <hydroph_interaction:LEU:100>  (19) 
hydroph_interaction:LEU:100    0
hydroph_interaction:LEU:100    0
Name: 18, dtype: object

>  <hbond:LEU:100>  (19) 
hbond:LEU:100    0
hbond:LEU:100    0
Name: 18, dtype: object

>  <hbond:ALA:101>  (19) 
hbond:ALA:101    0
hbond:ALA:101    0
Name: 18, dtype: object

>  <hydroph_interaction:ALA:101>  (19) 
hydroph_interaction:ALA:101    0
hydroph_interaction:ALA:101    0
Name: 18, dtype: object

>  <hydroph_interaction:VAL:102>  (19) 
hydroph_interaction:VAL:102    0
hydroph_interaction:VAL:102    0
Name: 18, dtype: object

>  <hbond:VAL:102>  (19) 
hbond:VAL:102    0
hbond:VAL:102    0
Name: 18, dtype: object

>  <hbond:GLY:103>  (19) 
hbond:GLY:103    0
hbond:GLY:103    0
Name: 18, dtype: object

>  <halogenbond:GLY:103>  (19) 
halogenbond:GLY:103    0
halogenbond:GLY:103    0
Name: 18, dtype: object

>  <hydroph_interaction:HIS:104>  (19) 
hydroph_interaction:HIS:104    0
hydroph_interaction:HIS:104    0
Name: 18, dtype: object

>  <hbond:HIS:104>  (19) 
hbond:HIS:104    0
hbond:HIS:104    0
Name: 18, dtype: object

>  <saltbridge:HIS:104>  (19) 
saltbridge:HIS:104    0
saltbridge:HIS:104    0
Name: 18, dtype: object

>  <pication:HIS:104>  (19) 
pication:HIS:104    0
pication:HIS:104    0
Name: 18, dtype: object

>  <pistack:HIS:104>  (19) 
pistack:HIS:104    0
pistack:HIS:104    0
Name: 18, dtype: object

>  <halogenbond:HIS:104>  (19) 
halogenbond:HIS:104    0
halogenbond:HIS:104    0
Name: 18, dtype: object

>  <hbond:SER:105>  (19) 
hbond:SER:105    0
hbond:SER:105    0
Name: 18, dtype: object

>  <halogenbond:SER:105>  (19) 
halogenbond:SER:105    0
halogenbond:SER:105    0
Name: 18, dtype: object

>  <hbond:GLU:106>  (19) 
hbond:GLU:106    0
hbond:GLU:106    0
Name: 18, dtype: object

>  <hydroph_interaction:GLU:106>  (19) 
hydroph_interaction:GLU:106    0
hydroph_interaction:GLU:106    0
Name: 18, dtype: object

>  <saltbridge:GLU:106>  (19) 
saltbridge:GLU:106    0
saltbridge:GLU:106    0
Name: 18, dtype: object

>  <halogenbond:GLU:106>  (19) 
halogenbond:GLU:106    0
halogenbond:GLU:106    0
Name: 18, dtype: object

>  <hydroph_interaction:PRO:107>  (19) 
hydroph_interaction:PRO:107    0
hydroph_interaction:PRO:107    0
Name: 18, dtype: object

>  <hbond:PRO:107>  (19) 
hbond:PRO:107    0
hbond:PRO:107    0
Name: 18, dtype: object

>  <halogenbond:PRO:107>  (19) 
halogenbond:PRO:107    0
halogenbond:PRO:107    0
Name: 18, dtype: object

>  <hbond:GLY:108>  (19) 
hbond:GLY:108    0
hbond:GLY:108    0
Name: 18, dtype: object

>  <halogenbond:GLY:108>  (19) 
halogenbond:GLY:108    0
halogenbond:GLY:108    0
Name: 18, dtype: object

>  <hbond:ASP:109>  (19) 
hbond:ASP:109    0
hbond:ASP:109    0
Name: 18, dtype: object

>  <hydroph_interaction:ASP:109>  (19) 
hydroph_interaction:ASP:109    0
hydroph_interaction:ASP:109    0
Name: 18, dtype: object

>  <saltbridge:ASP:109>  (19) 
saltbridge:ASP:109    0
saltbridge:ASP:109    0
Name: 18, dtype: object

>  <hbond:CYS:110>  (19) 
hbond:CYS:110    0
hbond:CYS:110    0
Name: 18, dtype: object

>  <halogenbond:CYS:110>  (19) 
halogenbond:CYS:110    0
halogenbond:CYS:110    0
Name: 18, dtype: object

>  <hbond:GLY:111>  (19) 
hbond:GLY:111    0
hbond:GLY:111    0
Name: 18, dtype: object

>  <hbond:GLY:112>  (19) 
hbond:GLY:112    0
hbond:GLY:112    0
Name: 18, dtype: object

>  <hbond:ILE:113>  (19) 
hbond:ILE:113    0
hbond:ILE:113    0
Name: 18, dtype: object

>  <hydroph_interaction:LEU:114>  (19) 
hydroph_interaction:LEU:114    0
hydroph_interaction:LEU:114    0
Name: 18, dtype: object

>  <hbond:LEU:114>  (19) 
hbond:LEU:114    0
hbond:LEU:114    0
Name: 18, dtype: object

>  <hydroph_interaction:ILE:123>  (19) 
hydroph_interaction:ILE:123    0
hydroph_interaction:ILE:123    0
Name: 18, dtype: object

>  <hbond:ILE:123>  (19) 
hbond:ILE:123    0
hbond:ILE:123    0
Name: 18, dtype: object

>  <hydroph_interaction:VAL:124>  (19) 
hydroph_interaction:VAL:124    0
hydroph_interaction:VAL:124    0
Name: 18, dtype: object

>  <hbond:VAL:124>  (19) 
hbond:VAL:124    0
hbond:VAL:124    0
Name: 18, dtype: object

>  <halogenbond:VAL:124>  (19) 
halogenbond:VAL:124    0
halogenbond:VAL:124    0
Name: 18, dtype: object

>  <hbond:SER:125>  (19) 
hbond:SER:125    0
hbond:SER:125    0
Name: 18, dtype: object

>  <halogenbond:SER:125>  (19) 
halogenbond:SER:125    0
halogenbond:SER:125    0
Name: 18, dtype: object

>  <hydroph_interaction:THR:126>  (19) 
hydroph_interaction:THR:126    0
hydroph_interaction:THR:126    0
Name: 18, dtype: object

>  <hbond:THR:126>  (19) 
hbond:THR:126    0
hbond:THR:126    0
Name: 18, dtype: object

>  <halogenbond:THR:126>  (19) 
halogenbond:THR:126    0
halogenbond:THR:126    0
Name: 18, dtype: object

>  <hbond:GLY:127>  (19) 
hbond:GLY:127    0
hbond:GLY:127    0
Name: 18, dtype: object

>  <halogenbond:GLY:127>  (19) 
halogenbond:GLY:127    0
halogenbond:GLY:127    0
Name: 18, dtype: object

>  <hydroph_interaction:GLY:127>  (19) 
hydroph_interaction:GLY:127    0
hydroph_interaction:GLY:127    0
Name: 18, dtype: object

>  <hbond:GLY:128>  (19) 
hbond:GLY:128    0
hbond:GLY:128    0
Name: 18, dtype: object

>  <halogenbond:GLY:128>  (19) 
halogenbond:GLY:128    0
halogenbond:GLY:128    0
Name: 18, dtype: object

>  <hydroph_interaction:GLY:128>  (19) 
hydroph_interaction:GLY:128    0
hydroph_interaction:GLY:128    0
Name: 18, dtype: object

>  <hbond:ASN:129>  (19) 
hbond:ASN:129    0
hbond:ASN:129    0
Name: 18, dtype: object

>  <hydroph_interaction:ASN:129>  (19) 
hydroph_interaction:ASN:129    0
hydroph_interaction:ASN:129    0
Name: 18, dtype: object

>  <halogenbond:ASN:129>  (19) 
halogenbond:ASN:129    0
halogenbond:ASN:129    0
Name: 18, dtype: object

>  <hbond:GLY:130>  (19) 
hbond:GLY:130    0
hbond:GLY:130    0
Name: 18, dtype: object

>  <hydroph_interaction:LEU:131>  (19) 
hydroph_interaction:LEU:131    0
hydroph_interaction:LEU:131    0
Name: 18, dtype: object

>  <hbond:LEU:131>  (19) 
hbond:LEU:131    0
hbond:LEU:131    0
Name: 18, dtype: object

>  <halogenbond:LEU:131>  (19) 
halogenbond:LEU:131    0
halogenbond:LEU:131    0
Name: 18, dtype: object

>  <hydroph_interaction:VAL:132>  (19) 
hydroph_interaction:VAL:132    0
hydroph_interaction:VAL:132    0
Name: 18, dtype: object

>  <hbond:VAL:132>  (19) 
hbond:VAL:132    0
hbond:VAL:132    0
Name: 18, dtype: object

>  <hbond:GLY:133>  (19) 
hbond:GLY:133    0
hbond:GLY:133    0
Name: 18, dtype: object

>  <halogenbond:GLY:133>  (19) 
halogenbond:GLY:133    0
halogenbond:GLY:133    0
Name: 18, dtype: object

>  <hydroph_interaction:PHE:134>  (19) 
hydroph_interaction:PHE:134    0
hydroph_interaction:PHE:134    0
Name: 18, dtype: object

>  <hbond:PHE:134>  (19) 
hbond:PHE:134    0
hbond:PHE:134    0
Name: 18, dtype: object

>  <pistack:PHE:134>  (19) 
pistack:PHE:134    0
pistack:PHE:134    0
Name: 18, dtype: object

>  <pication:PHE:134>  (19) 
pication:PHE:134    0
pication:PHE:134    0
Name: 18, dtype: object

>  <hydroph_interaction:ALA:135>  (19) 
hydroph_interaction:ALA:135    0
hydroph_interaction:ALA:135    0
Name: 18, dtype: object

>  <hbond:ALA:135>  (19) 
hbond:ALA:135    0
hbond:ALA:135    0
Name: 18, dtype: object

$$$$
PV_002147894306
     RDKit          3D

 20 20  0  0  0  0  0  0  0  0999 V2000
   12.4400   15.8720   21.6800 C   0  0  0  0  0  0  0  0  0  0  0  0
   11.0830   15.2590   21.4830 C   0  0  0  0  0  0  0  0  0  0  0  0
   10.2690   15.7590   20.7120 O   0  0  0  0  0  0  0  0  0  0  0  0
   10.8570   14.1320   22.2480 N   0  0  0  0  0  0  0  0  0  0  0  0
    9.5650   14.1330   22.8440 O   0  0  0  0  0  0  0  0  0  0  0  0
    9.2680   12.8770   23.3340 C   0  0  0  0  0  0  0  0  0  0  0  0
   10.0360   11.7860   22.9270 C   0  0  0  0  0  0  0  0  0  0  0  0
    9.7400   10.5110   23.4060 C   0  0  0  0  0  0  0  0  0  0  0  0
    8.6820   10.3330   24.2960 C   0  0  0  0  0  0  0  0  0  0  0  0
    7.9190   11.4190   24.7090 C   0  0  0  0  0  0  0  0  0  0  0  0
    8.2120   12.6920   24.2230 C   0  0  0  0  0  0  0  0  0  0  0  0
    7.2510   14.0220   24.7310 Cl  0  0  0  0  0  0  0  0  0  0  0  0
   12.8380   15.5700   22.6530 H   0  0  0  0  0  0  0  0  0  0  0  0
   13.1470   15.5690   20.9000 H   0  0  0  0  0  0  0  0  0  0  0  0
   12.3330   16.9590   21.6450 H   0  0  0  0  0  0  0  0  0  0  0  0
   11.5950   13.8080   22.8650 H   0  0  0  0  0  0  0  0  0  0  0  0
   10.8590   11.9340   22.2340 H   0  0  0  0  0  0  0  0  0  0  0  0
   10.3340    9.6580   23.0850 H   0  0  0  0  0  0  0  0  0  0  0  0
    8.4540    9.3410   24.6660 H   0  0  0  0  0  0  0  0  0  0  0  0
    7.0960   11.2650   25.4040 H   0  0  0  0  0  0  0  0  0  0  0  0
  1  2  1  0
  2  3  2  0
  2  4  1  0
  4  5  1  0
  5  6  1  0
  6  7  2  0
  7  8  1  0
  8  9  2  0
  9 10  1  0
 10 11  2  0
 11 12  1  0
 11  6  1  0
  1 13  1  0
  1 14  1  0
  1 15  1  0
  4 16  1  0
  7 17  1  0
  8 18  1  0
  9 19  1  0
 10 20  1  0
A    1
 C1 
A    2
 C2 
A    3
 O1 
A    4
 N1 
A    5
 O2 
A    6
 C3 
A    7
 C4 
A    8
 C5 
A    9
 C6 
A   10
 C7 
A   11
 C8 
A   12
CL1 
A   13
 H1 
A   14
 H2 
A   15
 H3 
A   16
 H4 
A   17
 H5 
A   18
 H6 
A   19
 H7 
A   20
 H8 
M  END
>  <ref_pdb>  (20) 
x0310_0A

>  <ref_mols>  (20) 
x0732_0A,x0528_0A

>  <original SMILES>  (20) 
CC(=O)NOc1ccccc1Cl

>  <rationale>  (20) 
info hbond:S125+S87; hydroph_interaction:Y89+Y90; 

>  <intxn_cluster>  (20) 
208

>  <intxn_cluster_rank>  (20) 
61

>  <N_interactions>  (20) 
4

>  <∆∆G>  (20) 
-8.606379

>  <$/mg>  (20) 
244.5

>  <comRMSD>  (20) 
0.513605

>  <N_rotatable_bonds>  (20) 
3

>  <hbond:SER:7>  (20) 
hbond:SER:7    0
hbond:SER:7    0
Name: 19, dtype: object

>  <halogenbond:SER:7>  (20) 
halogenbond:SER:7    0
halogenbond:SER:7    0
Name: 19, dtype: object

>  <hbond:GLY:8>  (20) 
hbond:GLY:8    0
hbond:GLY:8    0
Name: 19, dtype: object

>  <hydroph_interaction:ASN:19>  (20) 
hydroph_interaction:ASN:19    0
hydroph_interaction:ASN:19    0
Name: 19, dtype: object

>  <hbond:ASN:19>  (20) 
hbond:ASN:19    0
hbond:ASN:19    0
Name: 19, dtype: object

>  <halogenbond:ASN:19>  (20) 
halogenbond:ASN:19    0
halogenbond:ASN:19    0
Name: 19, dtype: object

>  <hbond:ARG:20>  (20) 
hbond:ARG:20    0
hbond:ARG:20    0
Name: 19, dtype: object

>  <hydroph_interaction:ARG:20>  (20) 
hydroph_interaction:ARG:20    0
hydroph_interaction:ARG:20    0
Name: 19, dtype: object

>  <saltbridge:ARG:20>  (20) 
saltbridge:ARG:20    0
saltbridge:ARG:20    0
Name: 19, dtype: object

>  <halogenbond:ARG:20>  (20) 
halogenbond:ARG:20    0
halogenbond:ARG:20    0
Name: 19, dtype: object

>  <pication:ARG:20>  (20) 
pication:ARG:20    0
pication:ARG:20    0
Name: 19, dtype: object

>  <hbond:HIS:21>  (20) 
hbond:HIS:21    0
hbond:HIS:21    0
Name: 19, dtype: object

>  <hydroph_interaction:HIS:21>  (20) 
hydroph_interaction:HIS:21    0
hydroph_interaction:HIS:21    0
Name: 19, dtype: object

>  <saltbridge:HIS:21>  (20) 
saltbridge:HIS:21    0
saltbridge:HIS:21    0
Name: 19, dtype: object

>  <pistack:HIS:21>  (20) 
pistack:HIS:21    0
pistack:HIS:21    0
Name: 19, dtype: object

>  <pication:HIS:21>  (20) 
pication:HIS:21    0
pication:HIS:21    0
Name: 19, dtype: object

>  <halogenbond:HIS:21>  (20) 
halogenbond:HIS:21    0
halogenbond:HIS:21    0
Name: 19, dtype: object

>  <hydroph_interaction:LEU:22>  (20) 
hydroph_interaction:LEU:22    0
hydroph_interaction:LEU:22    0
Name: 19, dtype: object

>  <hbond:LEU:22>  (20) 
hbond:LEU:22    0
hbond:LEU:22    0
Name: 19, dtype: object

>  <hydroph_interaction:TRP:28>  (20) 
hydroph_interaction:TRP:28    0
hydroph_interaction:TRP:28    0
Name: 19, dtype: object

>  <hbond:SER:36>  (20) 
hbond:SER:36    0
hbond:SER:36    0
Name: 19, dtype: object

>  <halogenbond:SER:36>  (20) 
halogenbond:SER:36    0
halogenbond:SER:36    0
Name: 19, dtype: object

>  <hbond:ARG:38>  (20) 
hbond:ARG:38    0
hbond:ARG:38    0
Name: 19, dtype: object

>  <halogenbond:ARG:38>  (20) 
halogenbond:ARG:38    0
halogenbond:ARG:38    0
Name: 19, dtype: object

>  <hbond:ASP:39>  (20) 
hbond:ASP:39    0
hbond:ASP:39    0
Name: 19, dtype: object

>  <saltbridge:ASP:39>  (20) 
saltbridge:ASP:39    0
saltbridge:ASP:39    0
Name: 19, dtype: object

>  <hydroph_interaction:ASP:39>  (20) 
hydroph_interaction:ASP:39    0
hydroph_interaction:ASP:39    0
Name: 19, dtype: object

>  <halogenbond:ASP:39>  (20) 
halogenbond:ASP:39    0
halogenbond:ASP:39    0
Name: 19, dtype: object

>  <hydroph_interaction:LEU:40>  (20) 
hydroph_interaction:LEU:40    0
hydroph_interaction:LEU:40    0
Name: 19, dtype: object

>  <hydroph_interaction:TYR:63>  (20) 
hydroph_interaction:TYR:63    0
hydroph_interaction:TYR:63    0
Name: 19, dtype: object

>  <pistack:TYR:63>  (20) 
pistack:TYR:63    0
pistack:TYR:63    0
Name: 19, dtype: object

>  <hbond:TYR:63>  (20) 
hbond:TYR:63    0
hbond:TYR:63    0
Name: 19, dtype: object

>  <hbond:TYR:64>  (20) 
hbond:TYR:64    0
hbond:TYR:64    0
Name: 19, dtype: object

>  <halogenbond:TYR:64>  (20) 
halogenbond:TYR:64    0
halogenbond:TYR:64    0
Name: 19, dtype: object

>  <hydroph_interaction:TYR:64>  (20) 
hydroph_interaction:TYR:64    0
hydroph_interaction:TYR:64    0
Name: 19, dtype: object

>  <hbond:CYS:65>  (20) 
hbond:CYS:65    0
hbond:CYS:65    0
Name: 19, dtype: object

>  <halogenbond:CYS:65>  (20) 
halogenbond:CYS:65    0
halogenbond:CYS:65    0
Name: 19, dtype: object

>  <hbond:SER:66>  (20) 
hbond:SER:66    0
hbond:SER:66    0
Name: 19, dtype: object

>  <hbond:SER:67>  (20) 
hbond:SER:67    0
hbond:SER:67    0
Name: 19, dtype: object

>  <halogenbond:SER:67>  (20) 
halogenbond:SER:67    0
halogenbond:SER:67    0
Name: 19, dtype: object

>  <hydroph_interaction:ARG:68>  (20) 
hydroph_interaction:ARG:68    0
hydroph_interaction:ARG:68    0
Name: 19, dtype: object

>  <hbond:ARG:68>  (20) 
hbond:ARG:68    0
hbond:ARG:68    0
Name: 19, dtype: object

>  <saltbridge:ARG:68>  (20) 
saltbridge:ARG:68    0
saltbridge:ARG:68    0
Name: 19, dtype: object

>  <pication:ARG:68>  (20) 
pication:ARG:68    0
pication:ARG:68    0
Name: 19, dtype: object

>  <hydroph_interaction:TYR:72>  (20) 
hydroph_interaction:TYR:72    0
hydroph_interaction:TYR:72    0
Name: 19, dtype: object

>  <hydroph_interaction:VAL:74>  (20) 
hydroph_interaction:VAL:74    0
hydroph_interaction:VAL:74    0
Name: 19, dtype: object

>  <hydroph_interaction:PHE:76>  (20) 
hydroph_interaction:PHE:76    0
hydroph_interaction:PHE:76    0
Name: 19, dtype: object

>  <hbond:SER:77>  (20) 
hbond:SER:77    0
hbond:SER:77    0
Name: 19, dtype: object

>  <hbond:SER:80>  (20) 
hbond:SER:80    0
hbond:SER:80    0
Name: 19, dtype: object

>  <hbond:LEU:81>  (20) 
hbond:LEU:81    0
hbond:LEU:81    0
Name: 19, dtype: object

>  <halogenbond:LEU:81>  (20) 
halogenbond:LEU:81    0
halogenbond:LEU:81    0
Name: 19, dtype: object

>  <hydroph_interaction:LEU:81>  (20) 
hydroph_interaction:LEU:81    0
hydroph_interaction:LEU:81    0
Name: 19, dtype: object

>  <hydroph_interaction:ILE:82>  (20) 
hydroph_interaction:ILE:82    0
hydroph_interaction:ILE:82    0
Name: 19, dtype: object

>  <hbond:ILE:82>  (20) 
hbond:ILE:82    0
hbond:ILE:82    0
Name: 19, dtype: object

>  <hydroph_interaction:PHE:83>  (20) 
hydroph_interaction:PHE:83    0
hydroph_interaction:PHE:83    0
Name: 19, dtype: object

>  <hbond:PHE:83>  (20) 
hbond:PHE:83    0
hbond:PHE:83    0
Name: 19, dtype: object

>  <halogenbond:PHE:83>  (20) 
halogenbond:PHE:83    0
halogenbond:PHE:83    0
Name: 19, dtype: object

>  <pistack:PHE:83>  (20) 
pistack:PHE:83    0
pistack:PHE:83    0
Name: 19, dtype: object

>  <hydroph_interaction:VAL:84>  (20) 
hydroph_interaction:VAL:84    0
hydroph_interaction:VAL:84    0
Name: 19, dtype: object

>  <hbond:VAL:84>  (20) 
hbond:VAL:84    0
hbond:VAL:84    0
Name: 19, dtype: object

>  <halogenbond:VAL:84>  (20) 
halogenbond:VAL:84    0
halogenbond:VAL:84    0
Name: 19, dtype: object

>  <hydroph_interaction:GLU:85>  (20) 
hydroph_interaction:GLU:85    0
hydroph_interaction:GLU:85    0
Name: 19, dtype: object

>  <hbond:GLU:85>  (20) 
hbond:GLU:85    0
hbond:GLU:85    0
Name: 19, dtype: object

>  <saltbridge:GLU:85>  (20) 
saltbridge:GLU:85    0
saltbridge:GLU:85    0
Name: 19, dtype: object

>  <halogenbond:GLU:85>  (20) 
halogenbond:GLU:85    0
halogenbond:GLU:85    0
Name: 19, dtype: object

>  <hbond:ALA:86>  (20) 
hbond:ALA:86    0
hbond:ALA:86    0
Name: 19, dtype: object

>  <halogenbond:ALA:86>  (20) 
halogenbond:ALA:86    0
halogenbond:ALA:86    0
Name: 19, dtype: object

>  <hydroph_interaction:ALA:86>  (20) 
hydroph_interaction:ALA:86    0
hydroph_interaction:ALA:86    0
Name: 19, dtype: object

>  <hbond:SER:87>  (20) 
hbond:SER:87    1
hbond:SER:87    1
Name: 19, dtype: object

>  <halogenbond:SER:87>  (20) 
halogenbond:SER:87    0
halogenbond:SER:87    0
Name: 19, dtype: object

>  <hbond:GLU:88>  (20) 
hbond:GLU:88    0
hbond:GLU:88    0
Name: 19, dtype: object

>  <hydroph_interaction:GLU:88>  (20) 
hydroph_interaction:GLU:88    0
hydroph_interaction:GLU:88    0
Name: 19, dtype: object

>  <halogenbond:GLU:88>  (20) 
halogenbond:GLU:88    0
halogenbond:GLU:88    0
Name: 19, dtype: object

>  <saltbridge:GLU:88>  (20) 
saltbridge:GLU:88    0
saltbridge:GLU:88    0
Name: 19, dtype: object

>  <hydroph_interaction:TYR:89>  (20) 
hydroph_interaction:TYR:89    1
hydroph_interaction:TYR:89    1
Name: 19, dtype: object

>  <pistack:TYR:89>  (20) 
pistack:TYR:89    0
pistack:TYR:89    0
Name: 19, dtype: object

>  <hbond:TYR:89>  (20) 
hbond:TYR:89    0
hbond:TYR:89    0
Name: 19, dtype: object

>  <halogenbond:TYR:89>  (20) 
halogenbond:TYR:89    0
halogenbond:TYR:89    0
Name: 19, dtype: object

>  <hbond:TYR:90>  (20) 
hbond:TYR:90    0
hbond:TYR:90    0
Name: 19, dtype: object

>  <hydroph_interaction:TYR:90>  (20) 
hydroph_interaction:TYR:90    1
hydroph_interaction:TYR:90    1
Name: 19, dtype: object

>  <pistack:TYR:90>  (20) 
pistack:TYR:90    0
pistack:TYR:90    0
Name: 19, dtype: object

>  <halogenbond:TYR:90>  (20) 
halogenbond:TYR:90    0
halogenbond:TYR:90    0
Name: 19, dtype: object

>  <pication:TYR:90>  (20) 
pication:TYR:90    0
pication:TYR:90    0
Name: 19, dtype: object

>  <hydroph_interaction:PRO:91>  (20) 
hydroph_interaction:PRO:91    0
hydroph_interaction:PRO:91    0
Name: 19, dtype: object

>  <halogenbond:PRO:91>  (20) 
halogenbond:PRO:91    0
halogenbond:PRO:91    0
Name: 19, dtype: object

>  <hbond:PRO:91>  (20) 
hbond:PRO:91    0
hbond:PRO:91    0
Name: 19, dtype: object

>  <hydroph_interaction:ALA:92>  (20) 
hydroph_interaction:ALA:92    0
hydroph_interaction:ALA:92    0
Name: 19, dtype: object

>  <hbond:ARG:93>  (20) 
hbond:ARG:93    0
hbond:ARG:93    0
Name: 19, dtype: object

>  <pication:ARG:93>  (20) 
pication:ARG:93    0
pication:ARG:93    0
Name: 19, dtype: object

>  <saltbridge:ARG:93>  (20) 
saltbridge:ARG:93    0
saltbridge:ARG:93    0
Name: 19, dtype: object

>  <hydroph_interaction:ARG:93>  (20) 
hydroph_interaction:ARG:93    0
hydroph_interaction:ARG:93    0
Name: 19, dtype: object

>  <halogenbond:ARG:93>  (20) 
halogenbond:ARG:93    0
halogenbond:ARG:93    0
Name: 19, dtype: object

>  <hydroph_interaction:TYR:94>  (20) 
hydroph_interaction:TYR:94    0
hydroph_interaction:TYR:94    0
Name: 19, dtype: object

>  <hbond:TYR:94>  (20) 
hbond:TYR:94    0
hbond:TYR:94    0
Name: 19, dtype: object

>  <halogenbond:GLN:95>  (20) 
halogenbond:GLN:95    0
halogenbond:GLN:95    0
Name: 19, dtype: object

>  <hbond:GLN:95>  (20) 
hbond:GLN:95    0
hbond:GLN:95    0
Name: 19, dtype: object

>  <hydroph_interaction:GLN:95>  (20) 
hydroph_interaction:GLN:95    0
hydroph_interaction:GLN:95    0
Name: 19, dtype: object

>  <hbond:SER:96>  (20) 
hbond:SER:96    0
hbond:SER:96    0
Name: 19, dtype: object

>  <hydroph_interaction:LEU:98>  (20) 
hydroph_interaction:LEU:98    0
hydroph_interaction:LEU:98    0
Name: 19, dtype: object

>  <hbond:LEU:98>  (20) 
hbond:LEU:98    0
hbond:LEU:98    0
Name: 19, dtype: object

>  <hbond:MET:99>  (20) 
hbond:MET:99    0
hbond:MET:99    0
Name: 19, dtype: object

>  <hydroph_interaction:MET:99>  (20) 
hydroph_interaction:MET:99    0
hydroph_interaction:MET:99    0
Name: 19, dtype: object

>  <halogenbond:MET:99>  (20) 
halogenbond:MET:99    0
halogenbond:MET:99    0
Name: 19, dtype: object

>  <hydroph_interaction:LEU:100>  (20) 
hydroph_interaction:LEU:100    0
hydroph_interaction:LEU:100    0
Name: 19, dtype: object

>  <hbond:LEU:100>  (20) 
hbond:LEU:100    0
hbond:LEU:100    0
Name: 19, dtype: object

>  <hbond:ALA:101>  (20) 
hbond:ALA:101    0
hbond:ALA:101    0
Name: 19, dtype: object

>  <hydroph_interaction:ALA:101>  (20) 
hydroph_interaction:ALA:101    0
hydroph_interaction:ALA:101    0
Name: 19, dtype: object

>  <hydroph_interaction:VAL:102>  (20) 
hydroph_interaction:VAL:102    0
hydroph_interaction:VAL:102    0
Name: 19, dtype: object

>  <hbond:VAL:102>  (20) 
hbond:VAL:102    0
hbond:VAL:102    0
Name: 19, dtype: object

>  <hbond:GLY:103>  (20) 
hbond:GLY:103    0
hbond:GLY:103    0
Name: 19, dtype: object

>  <halogenbond:GLY:103>  (20) 
halogenbond:GLY:103    0
halogenbond:GLY:103    0
Name: 19, dtype: object

>  <hydroph_interaction:HIS:104>  (20) 
hydroph_interaction:HIS:104    0
hydroph_interaction:HIS:104    0
Name: 19, dtype: object

>  <hbond:HIS:104>  (20) 
hbond:HIS:104    0
hbond:HIS:104    0
Name: 19, dtype: object

>  <saltbridge:HIS:104>  (20) 
saltbridge:HIS:104    0
saltbridge:HIS:104    0
Name: 19, dtype: object

>  <pication:HIS:104>  (20) 
pication:HIS:104    0
pication:HIS:104    0
Name: 19, dtype: object

>  <pistack:HIS:104>  (20) 
pistack:HIS:104    0
pistack:HIS:104    0
Name: 19, dtype: object

>  <halogenbond:HIS:104>  (20) 
halogenbond:HIS:104    0
halogenbond:HIS:104    0
Name: 19, dtype: object

>  <hbond:SER:105>  (20) 
hbond:SER:105    0
hbond:SER:105    0
Name: 19, dtype: object

>  <halogenbond:SER:105>  (20) 
halogenbond:SER:105    0
halogenbond:SER:105    0
Name: 19, dtype: object

>  <hbond:GLU:106>  (20) 
hbond:GLU:106    0
hbond:GLU:106    0
Name: 19, dtype: object

>  <hydroph_interaction:GLU:106>  (20) 
hydroph_interaction:GLU:106    0
hydroph_interaction:GLU:106    0
Name: 19, dtype: object

>  <saltbridge:GLU:106>  (20) 
saltbridge:GLU:106    0
saltbridge:GLU:106    0
Name: 19, dtype: object

>  <halogenbond:GLU:106>  (20) 
halogenbond:GLU:106    0
halogenbond:GLU:106    0
Name: 19, dtype: object

>  <hydroph_interaction:PRO:107>  (20) 
hydroph_interaction:PRO:107    0
hydroph_interaction:PRO:107    0
Name: 19, dtype: object

>  <hbond:PRO:107>  (20) 
hbond:PRO:107    0
hbond:PRO:107    0
Name: 19, dtype: object

>  <halogenbond:PRO:107>  (20) 
halogenbond:PRO:107    0
halogenbond:PRO:107    0
Name: 19, dtype: object

>  <hbond:GLY:108>  (20) 
hbond:GLY:108    0
hbond:GLY:108    0
Name: 19, dtype: object

>  <halogenbond:GLY:108>  (20) 
halogenbond:GLY:108    0
halogenbond:GLY:108    0
Name: 19, dtype: object

>  <hbond:ASP:109>  (20) 
hbond:ASP:109    0
hbond:ASP:109    0
Name: 19, dtype: object

>  <hydroph_interaction:ASP:109>  (20) 
hydroph_interaction:ASP:109    0
hydroph_interaction:ASP:109    0
Name: 19, dtype: object

>  <saltbridge:ASP:109>  (20) 
saltbridge:ASP:109    0
saltbridge:ASP:109    0
Name: 19, dtype: object

>  <hbond:CYS:110>  (20) 
hbond:CYS:110    0
hbond:CYS:110    0
Name: 19, dtype: object

>  <halogenbond:CYS:110>  (20) 
halogenbond:CYS:110    0
halogenbond:CYS:110    0
Name: 19, dtype: object

>  <hbond:GLY:111>  (20) 
hbond:GLY:111    0
hbond:GLY:111    0
Name: 19, dtype: object

>  <hbond:GLY:112>  (20) 
hbond:GLY:112    0
hbond:GLY:112    0
Name: 19, dtype: object

>  <hbond:ILE:113>  (20) 
hbond:ILE:113    0
hbond:ILE:113    0
Name: 19, dtype: object

>  <hydroph_interaction:LEU:114>  (20) 
hydroph_interaction:LEU:114    0
hydroph_interaction:LEU:114    0
Name: 19, dtype: object

>  <hbond:LEU:114>  (20) 
hbond:LEU:114    0
hbond:LEU:114    0
Name: 19, dtype: object

>  <hydroph_interaction:ILE:123>  (20) 
hydroph_interaction:ILE:123    0
hydroph_interaction:ILE:123    0
Name: 19, dtype: object

>  <hbond:ILE:123>  (20) 
hbond:ILE:123    0
hbond:ILE:123    0
Name: 19, dtype: object

>  <hydroph_interaction:VAL:124>  (20) 
hydroph_interaction:VAL:124    0
hydroph_interaction:VAL:124    0
Name: 19, dtype: object

>  <hbond:VAL:124>  (20) 
hbond:VAL:124    0
hbond:VAL:124    0
Name: 19, dtype: object

>  <halogenbond:VAL:124>  (20) 
halogenbond:VAL:124    0
halogenbond:VAL:124    0
Name: 19, dtype: object

>  <hbond:SER:125>  (20) 
hbond:SER:125    1
hbond:SER:125    1
Name: 19, dtype: object

>  <halogenbond:SER:125>  (20) 
halogenbond:SER:125    0
halogenbond:SER:125    0
Name: 19, dtype: object

>  <hydroph_interaction:THR:126>  (20) 
hydroph_interaction:THR:126    0
hydroph_interaction:THR:126    0
Name: 19, dtype: object

>  <hbond:THR:126>  (20) 
hbond:THR:126    0
hbond:THR:126    0
Name: 19, dtype: object

>  <halogenbond:THR:126>  (20) 
halogenbond:THR:126    0
halogenbond:THR:126    0
Name: 19, dtype: object

>  <hbond:GLY:127>  (20) 
hbond:GLY:127    0
hbond:GLY:127    0
Name: 19, dtype: object

>  <halogenbond:GLY:127>  (20) 
halogenbond:GLY:127    0
halogenbond:GLY:127    0
Name: 19, dtype: object

>  <hydroph_interaction:GLY:127>  (20) 
hydroph_interaction:GLY:127    0
hydroph_interaction:GLY:127    0
Name: 19, dtype: object

>  <hbond:GLY:128>  (20) 
hbond:GLY:128    0
hbond:GLY:128    0
Name: 19, dtype: object

>  <halogenbond:GLY:128>  (20) 
halogenbond:GLY:128    0
halogenbond:GLY:128    0
Name: 19, dtype: object

>  <hydroph_interaction:GLY:128>  (20) 
hydroph_interaction:GLY:128    0
hydroph_interaction:GLY:128    0
Name: 19, dtype: object

>  <hbond:ASN:129>  (20) 
hbond:ASN:129    0
hbond:ASN:129    0
Name: 19, dtype: object

>  <hydroph_interaction:ASN:129>  (20) 
hydroph_interaction:ASN:129    0
hydroph_interaction:ASN:129    0
Name: 19, dtype: object

>  <halogenbond:ASN:129>  (20) 
halogenbond:ASN:129    0
halogenbond:ASN:129    0
Name: 19, dtype: object

>  <hbond:GLY:130>  (20) 
hbond:GLY:130    0
hbond:GLY:130    0
Name: 19, dtype: object

>  <hydroph_interaction:LEU:131>  (20) 
hydroph_interaction:LEU:131    0
hydroph_interaction:LEU:131    0
Name: 19, dtype: object

>  <hbond:LEU:131>  (20) 
hbond:LEU:131    0
hbond:LEU:131    0
Name: 19, dtype: object

>  <halogenbond:LEU:131>  (20) 
halogenbond:LEU:131    0
halogenbond:LEU:131    0
Name: 19, dtype: object

>  <hydroph_interaction:VAL:132>  (20) 
hydroph_interaction:VAL:132    0
hydroph_interaction:VAL:132    0
Name: 19, dtype: object

>  <hbond:VAL:132>  (20) 
hbond:VAL:132    0
hbond:VAL:132    0
Name: 19, dtype: object

>  <hbond:GLY:133>  (20) 
hbond:GLY:133    0
hbond:GLY:133    0
Name: 19, dtype: object

>  <halogenbond:GLY:133>  (20) 
halogenbond:GLY:133    0
halogenbond:GLY:133    0
Name: 19, dtype: object

>  <hydroph_interaction:PHE:134>  (20) 
hydroph_interaction:PHE:134    0
hydroph_interaction:PHE:134    0
Name: 19, dtype: object

>  <hbond:PHE:134>  (20) 
hbond:PHE:134    0
hbond:PHE:134    0
Name: 19, dtype: object

>  <pistack:PHE:134>  (20) 
pistack:PHE:134    0
pistack:PHE:134    0
Name: 19, dtype: object

>  <pication:PHE:134>  (20) 
pication:PHE:134    0
pication:PHE:134    0
Name: 19, dtype: object

>  <hydroph_interaction:ALA:135>  (20) 
hydroph_interaction:ALA:135    0
hydroph_interaction:ALA:135    0
Name: 19, dtype: object

>  <hbond:ALA:135>  (20) 
hbond:ALA:135    0
hbond:ALA:135    0
Name: 19, dtype: object

$$$$
Z4905040239
     RDKit          3D

 27 28  0  0  0  0  0  0  0  0999 V2000
   12.1690   14.8200   21.7190 C   0  0  0  0  0  0  0  0  0  0  0  0
   11.0440   13.9340   21.9390 N   0  0  0  0  0  0  0  0  0  0  0  0
   10.5330   13.7510   23.2090 C   0  0  0  0  0  0  0  0  0  0  0  0
   10.7160   14.5730   24.0980 O   0  0  0  0  0  0  0  0  0  0  0  0
    9.8000   12.4870   23.5410 C   0  0  0  0  0  0  0  0  0  0  0  0
   10.3000   11.3650   22.8970 C   0  0  0  0  0  0  0  0  0  0  0  0
    9.7680   10.1140   23.1130 C   0  0  0  0  0  0  0  0  0  0  0  0
   10.3110    8.9440   22.4270 C   0  0  0  0  0  0  0  0  0  0  0  0
    8.7330    9.9680   23.9660 C   0  0  0  0  0  0  0  0  0  0  0  0
    8.1990   11.0580   24.6060 C   0  0  0  0  0  0  0  0  0  0  0  0
    7.1290   10.8350   25.4520 C   0  0  0  0  0  0  0  0  0  0  0  0
    6.5490   11.8790   26.1180 C   0  0  0  0  0  0  0  0  0  0  0  0
    7.0740   13.1290   25.9110 C   0  0  0  0  0  0  0  0  0  0  0  0
    8.1240   13.3910   25.0930 N   0  0  0  0  0  0  0  0  0  0  0  0
    8.7050   12.3630   24.4230 C   0  0  0  0  0  0  0  0  0  0  0  0
   12.9680   14.5470   22.4140 H   0  0  0  0  0  0  0  0  0  0  0  0
   12.5180   14.6910   20.6900 H   0  0  0  0  0  0  0  0  0  0  0  0
   11.8810   15.8630   21.8770 H   0  0  0  0  0  0  0  0  0  0  0  0
   10.9380   13.1510   21.2760 H   0  0  0  0  0  0  0  0  0  0  0  0
   11.1260   11.4860   22.2190 H   0  0  0  0  0  0  0  0  0  0  0  0
   10.9620    8.3600   23.0860 H   0  0  0  0  0  0  0  0  0  0  0  0
    9.4970    8.3140   22.0610 H   0  0  0  0  0  0  0  0  0  0  0  0
   10.9080    9.2740   21.5760 H   0  0  0  0  0  0  0  0  0  0  0  0
    8.3210    8.9810   24.1360 H   0  0  0  0  0  0  0  0  0  0  0  0
    6.7360    9.8410   25.5970 H   0  0  0  0  0  0  0  0  0  0  0  0
    5.7070   11.7230   26.7850 H   0  0  0  0  0  0  0  0  0  0  0  0
    6.6560   13.9970   26.4120 H   0  0  0  0  0  0  0  0  0  0  0  0
  1  2  1  0
  2  3  1  0
  3  4  2  0
  3  5  1  0
  5  6  2  0
  6  7  1  0
  7  8  1  0
  7  9  2  0
  9 10  1  0
 10 11  2  0
 11 12  1  0
 12 13  2  0
 13 14  1  0
 14 15  2  0
 15  5  1  0
 15 10  1  0
  1 16  1  0
  1 17  1  0
  1 18  1  0
  2 19  1  0
  6 20  1  0
  8 21  1  0
  8 22  1  0
  8 23  1  0
  9 24  1  0
 11 25  1  0
 12 26  1  0
 13 27  1  0
A    1
 C1 
A    2
 N1 
A    3
 C2 
A    4
 O1 
A    5
 C3 
A    6
 C4 
A    7
 C5 
A    8
 C6 
A    9
 C7 
A   10
 C8 
A   11
 C9 
A   12
 C10
A   13
 C11
A   14
 N2 
A   15
 C12
A   16
 H1 
A   17
 H2 
A   18
 H3 
A   19
 H4 
A   20
 H5 
A   21
 H6 
A   22
 H7 
A   23
 H8 
A   24
 H9 
A   25
 H10
A   26
 H11
A   27
 H12
M  END
>  <ref_pdb>  (21) 
x0310_0A

>  <ref_mols>  (21) 
x0451_0A,x0528_0A

>  <original SMILES>  (21) 
CNC(=O)c1cc(C)cc2cccnc12

>  <rationale>  (21) 
info hbond:S125; hydroph_interaction:V124; 

>  <intxn_cluster>  (21) 
103

>  <intxn_cluster_rank>  (21) 
67

>  <N_interactions>  (21) 
2

>  <∆∆G>  (21) 
-11.933682

>  <$/mg>  (21) 
163.0

>  <comRMSD>  (21) 
0.815036

>  <N_rotatable_bonds>  (21) 
3

>  <hbond:SER:7>  (21) 
hbond:SER:7    0
hbond:SER:7    0
Name: 20, dtype: object

>  <halogenbond:SER:7>  (21) 
halogenbond:SER:7    0
halogenbond:SER:7    0
Name: 20, dtype: object

>  <hbond:GLY:8>  (21) 
hbond:GLY:8    0
hbond:GLY:8    0
Name: 20, dtype: object

>  <hydroph_interaction:ASN:19>  (21) 
hydroph_interaction:ASN:19    0
hydroph_interaction:ASN:19    0
Name: 20, dtype: object

>  <hbond:ASN:19>  (21) 
hbond:ASN:19    0
hbond:ASN:19    0
Name: 20, dtype: object

>  <halogenbond:ASN:19>  (21) 
halogenbond:ASN:19    0
halogenbond:ASN:19    0
Name: 20, dtype: object

>  <hbond:ARG:20>  (21) 
hbond:ARG:20    0
hbond:ARG:20    0
Name: 20, dtype: object

>  <hydroph_interaction:ARG:20>  (21) 
hydroph_interaction:ARG:20    0
hydroph_interaction:ARG:20    0
Name: 20, dtype: object

>  <saltbridge:ARG:20>  (21) 
saltbridge:ARG:20    0
saltbridge:ARG:20    0
Name: 20, dtype: object

>  <halogenbond:ARG:20>  (21) 
halogenbond:ARG:20    0
halogenbond:ARG:20    0
Name: 20, dtype: object

>  <pication:ARG:20>  (21) 
pication:ARG:20    0
pication:ARG:20    0
Name: 20, dtype: object

>  <hbond:HIS:21>  (21) 
hbond:HIS:21    0
hbond:HIS:21    0
Name: 20, dtype: object

>  <hydroph_interaction:HIS:21>  (21) 
hydroph_interaction:HIS:21    0
hydroph_interaction:HIS:21    0
Name: 20, dtype: object

>  <saltbridge:HIS:21>  (21) 
saltbridge:HIS:21    0
saltbridge:HIS:21    0
Name: 20, dtype: object

>  <pistack:HIS:21>  (21) 
pistack:HIS:21    0
pistack:HIS:21    0
Name: 20, dtype: object

>  <pication:HIS:21>  (21) 
pication:HIS:21    0
pication:HIS:21    0
Name: 20, dtype: object

>  <halogenbond:HIS:21>  (21) 
halogenbond:HIS:21    0
halogenbond:HIS:21    0
Name: 20, dtype: object

>  <hydroph_interaction:LEU:22>  (21) 
hydroph_interaction:LEU:22    0
hydroph_interaction:LEU:22    0
Name: 20, dtype: object

>  <hbond:LEU:22>  (21) 
hbond:LEU:22    0
hbond:LEU:22    0
Name: 20, dtype: object

>  <hydroph_interaction:TRP:28>  (21) 
hydroph_interaction:TRP:28    0
hydroph_interaction:TRP:28    0
Name: 20, dtype: object

>  <hbond:SER:36>  (21) 
hbond:SER:36    0
hbond:SER:36    0
Name: 20, dtype: object

>  <halogenbond:SER:36>  (21) 
halogenbond:SER:36    0
halogenbond:SER:36    0
Name: 20, dtype: object

>  <hbond:ARG:38>  (21) 
hbond:ARG:38    0
hbond:ARG:38    0
Name: 20, dtype: object

>  <halogenbond:ARG:38>  (21) 
halogenbond:ARG:38    0
halogenbond:ARG:38    0
Name: 20, dtype: object

>  <hbond:ASP:39>  (21) 
hbond:ASP:39    0
hbond:ASP:39    0
Name: 20, dtype: object

>  <saltbridge:ASP:39>  (21) 
saltbridge:ASP:39    0
saltbridge:ASP:39    0
Name: 20, dtype: object

>  <hydroph_interaction:ASP:39>  (21) 
hydroph_interaction:ASP:39    0
hydroph_interaction:ASP:39    0
Name: 20, dtype: object

>  <halogenbond:ASP:39>  (21) 
halogenbond:ASP:39    0
halogenbond:ASP:39    0
Name: 20, dtype: object

>  <hydroph_interaction:LEU:40>  (21) 
hydroph_interaction:LEU:40    0
hydroph_interaction:LEU:40    0
Name: 20, dtype: object

>  <hydroph_interaction:TYR:63>  (21) 
hydroph_interaction:TYR:63    0
hydroph_interaction:TYR:63    0
Name: 20, dtype: object

>  <pistack:TYR:63>  (21) 
pistack:TYR:63    0
pistack:TYR:63    0
Name: 20, dtype: object

>  <hbond:TYR:63>  (21) 
hbond:TYR:63    0
hbond:TYR:63    0
Name: 20, dtype: object

>  <hbond:TYR:64>  (21) 
hbond:TYR:64    0
hbond:TYR:64    0
Name: 20, dtype: object

>  <halogenbond:TYR:64>  (21) 
halogenbond:TYR:64    0
halogenbond:TYR:64    0
Name: 20, dtype: object

>  <hydroph_interaction:TYR:64>  (21) 
hydroph_interaction:TYR:64    0
hydroph_interaction:TYR:64    0
Name: 20, dtype: object

>  <hbond:CYS:65>  (21) 
hbond:CYS:65    0
hbond:CYS:65    0
Name: 20, dtype: object

>  <halogenbond:CYS:65>  (21) 
halogenbond:CYS:65    0
halogenbond:CYS:65    0
Name: 20, dtype: object

>  <hbond:SER:66>  (21) 
hbond:SER:66    0
hbond:SER:66    0
Name: 20, dtype: object

>  <hbond:SER:67>  (21) 
hbond:SER:67    0
hbond:SER:67    0
Name: 20, dtype: object

>  <halogenbond:SER:67>  (21) 
halogenbond:SER:67    0
halogenbond:SER:67    0
Name: 20, dtype: object

>  <hydroph_interaction:ARG:68>  (21) 
hydroph_interaction:ARG:68    0
hydroph_interaction:ARG:68    0
Name: 20, dtype: object

>  <hbond:ARG:68>  (21) 
hbond:ARG:68    0
hbond:ARG:68    0
Name: 20, dtype: object

>  <saltbridge:ARG:68>  (21) 
saltbridge:ARG:68    0
saltbridge:ARG:68    0
Name: 20, dtype: object

>  <pication:ARG:68>  (21) 
pication:ARG:68    0
pication:ARG:68    0
Name: 20, dtype: object

>  <hydroph_interaction:TYR:72>  (21) 
hydroph_interaction:TYR:72    0
hydroph_interaction:TYR:72    0
Name: 20, dtype: object

>  <hydroph_interaction:VAL:74>  (21) 
hydroph_interaction:VAL:74    0
hydroph_interaction:VAL:74    0
Name: 20, dtype: object

>  <hydroph_interaction:PHE:76>  (21) 
hydroph_interaction:PHE:76    0
hydroph_interaction:PHE:76    0
Name: 20, dtype: object

>  <hbond:SER:77>  (21) 
hbond:SER:77    0
hbond:SER:77    0
Name: 20, dtype: object

>  <hbond:SER:80>  (21) 
hbond:SER:80    0
hbond:SER:80    0
Name: 20, dtype: object

>  <hbond:LEU:81>  (21) 
hbond:LEU:81    0
hbond:LEU:81    0
Name: 20, dtype: object

>  <halogenbond:LEU:81>  (21) 
halogenbond:LEU:81    0
halogenbond:LEU:81    0
Name: 20, dtype: object

>  <hydroph_interaction:LEU:81>  (21) 
hydroph_interaction:LEU:81    0
hydroph_interaction:LEU:81    0
Name: 20, dtype: object

>  <hydroph_interaction:ILE:82>  (21) 
hydroph_interaction:ILE:82    0
hydroph_interaction:ILE:82    0
Name: 20, dtype: object

>  <hbond:ILE:82>  (21) 
hbond:ILE:82    0
hbond:ILE:82    0
Name: 20, dtype: object

>  <hydroph_interaction:PHE:83>  (21) 
hydroph_interaction:PHE:83    0
hydroph_interaction:PHE:83    0
Name: 20, dtype: object

>  <hbond:PHE:83>  (21) 
hbond:PHE:83    0
hbond:PHE:83    0
Name: 20, dtype: object

>  <halogenbond:PHE:83>  (21) 
halogenbond:PHE:83    0
halogenbond:PHE:83    0
Name: 20, dtype: object

>  <pistack:PHE:83>  (21) 
pistack:PHE:83    0
pistack:PHE:83    0
Name: 20, dtype: object

>  <hydroph_interaction:VAL:84>  (21) 
hydroph_interaction:VAL:84    0
hydroph_interaction:VAL:84    0
Name: 20, dtype: object

>  <hbond:VAL:84>  (21) 
hbond:VAL:84    0
hbond:VAL:84    0
Name: 20, dtype: object

>  <halogenbond:VAL:84>  (21) 
halogenbond:VAL:84    0
halogenbond:VAL:84    0
Name: 20, dtype: object

>  <hydroph_interaction:GLU:85>  (21) 
hydroph_interaction:GLU:85    0
hydroph_interaction:GLU:85    0
Name: 20, dtype: object

>  <hbond:GLU:85>  (21) 
hbond:GLU:85    0
hbond:GLU:85    0
Name: 20, dtype: object

>  <saltbridge:GLU:85>  (21) 
saltbridge:GLU:85    0
saltbridge:GLU:85    0
Name: 20, dtype: object

>  <halogenbond:GLU:85>  (21) 
halogenbond:GLU:85    0
halogenbond:GLU:85    0
Name: 20, dtype: object

>  <hbond:ALA:86>  (21) 
hbond:ALA:86    0
hbond:ALA:86    0
Name: 20, dtype: object

>  <halogenbond:ALA:86>  (21) 
halogenbond:ALA:86    0
halogenbond:ALA:86    0
Name: 20, dtype: object

>  <hydroph_interaction:ALA:86>  (21) 
hydroph_interaction:ALA:86    0
hydroph_interaction:ALA:86    0
Name: 20, dtype: object

>  <hbond:SER:87>  (21) 
hbond:SER:87    0
hbond:SER:87    0
Name: 20, dtype: object

>  <halogenbond:SER:87>  (21) 
halogenbond:SER:87    0
halogenbond:SER:87    0
Name: 20, dtype: object

>  <hbond:GLU:88>  (21) 
hbond:GLU:88    0
hbond:GLU:88    0
Name: 20, dtype: object

>  <hydroph_interaction:GLU:88>  (21) 
hydroph_interaction:GLU:88    0
hydroph_interaction:GLU:88    0
Name: 20, dtype: object

>  <halogenbond:GLU:88>  (21) 
halogenbond:GLU:88    0
halogenbond:GLU:88    0
Name: 20, dtype: object

>  <saltbridge:GLU:88>  (21) 
saltbridge:GLU:88    0
saltbridge:GLU:88    0
Name: 20, dtype: object

>  <hydroph_interaction:TYR:89>  (21) 
hydroph_interaction:TYR:89    0
hydroph_interaction:TYR:89    0
Name: 20, dtype: object

>  <pistack:TYR:89>  (21) 
pistack:TYR:89    0
pistack:TYR:89    0
Name: 20, dtype: object

>  <hbond:TYR:89>  (21) 
hbond:TYR:89    0
hbond:TYR:89    0
Name: 20, dtype: object

>  <halogenbond:TYR:89>  (21) 
halogenbond:TYR:89    0
halogenbond:TYR:89    0
Name: 20, dtype: object

>  <hbond:TYR:90>  (21) 
hbond:TYR:90    0
hbond:TYR:90    0
Name: 20, dtype: object

>  <hydroph_interaction:TYR:90>  (21) 
hydroph_interaction:TYR:90    0
hydroph_interaction:TYR:90    0
Name: 20, dtype: object

>  <pistack:TYR:90>  (21) 
pistack:TYR:90    0
pistack:TYR:90    0
Name: 20, dtype: object

>  <halogenbond:TYR:90>  (21) 
halogenbond:TYR:90    0
halogenbond:TYR:90    0
Name: 20, dtype: object

>  <pication:TYR:90>  (21) 
pication:TYR:90    0
pication:TYR:90    0
Name: 20, dtype: object

>  <hydroph_interaction:PRO:91>  (21) 
hydroph_interaction:PRO:91    0
hydroph_interaction:PRO:91    0
Name: 20, dtype: object

>  <halogenbond:PRO:91>  (21) 
halogenbond:PRO:91    0
halogenbond:PRO:91    0
Name: 20, dtype: object

>  <hbond:PRO:91>  (21) 
hbond:PRO:91    0
hbond:PRO:91    0
Name: 20, dtype: object

>  <hydroph_interaction:ALA:92>  (21) 
hydroph_interaction:ALA:92    0
hydroph_interaction:ALA:92    0
Name: 20, dtype: object

>  <hbond:ARG:93>  (21) 
hbond:ARG:93    0
hbond:ARG:93    0
Name: 20, dtype: object

>  <pication:ARG:93>  (21) 
pication:ARG:93    0
pication:ARG:93    0
Name: 20, dtype: object

>  <saltbridge:ARG:93>  (21) 
saltbridge:ARG:93    0
saltbridge:ARG:93    0
Name: 20, dtype: object

>  <hydroph_interaction:ARG:93>  (21) 
hydroph_interaction:ARG:93    0
hydroph_interaction:ARG:93    0
Name: 20, dtype: object

>  <halogenbond:ARG:93>  (21) 
halogenbond:ARG:93    0
halogenbond:ARG:93    0
Name: 20, dtype: object

>  <hydroph_interaction:TYR:94>  (21) 
hydroph_interaction:TYR:94    0
hydroph_interaction:TYR:94    0
Name: 20, dtype: object

>  <hbond:TYR:94>  (21) 
hbond:TYR:94    0
hbond:TYR:94    0
Name: 20, dtype: object

>  <halogenbond:GLN:95>  (21) 
halogenbond:GLN:95    0
halogenbond:GLN:95    0
Name: 20, dtype: object

>  <hbond:GLN:95>  (21) 
hbond:GLN:95    0
hbond:GLN:95    0
Name: 20, dtype: object

>  <hydroph_interaction:GLN:95>  (21) 
hydroph_interaction:GLN:95    0
hydroph_interaction:GLN:95    0
Name: 20, dtype: object

>  <hbond:SER:96>  (21) 
hbond:SER:96    0
hbond:SER:96    0
Name: 20, dtype: object

>  <hydroph_interaction:LEU:98>  (21) 
hydroph_interaction:LEU:98    0
hydroph_interaction:LEU:98    0
Name: 20, dtype: object

>  <hbond:LEU:98>  (21) 
hbond:LEU:98    0
hbond:LEU:98    0
Name: 20, dtype: object

>  <hbond:MET:99>  (21) 
hbond:MET:99    0
hbond:MET:99    0
Name: 20, dtype: object

>  <hydroph_interaction:MET:99>  (21) 
hydroph_interaction:MET:99    0
hydroph_interaction:MET:99    0
Name: 20, dtype: object

>  <halogenbond:MET:99>  (21) 
halogenbond:MET:99    0
halogenbond:MET:99    0
Name: 20, dtype: object

>  <hydroph_interaction:LEU:100>  (21) 
hydroph_interaction:LEU:100    0
hydroph_interaction:LEU:100    0
Name: 20, dtype: object

>  <hbond:LEU:100>  (21) 
hbond:LEU:100    0
hbond:LEU:100    0
Name: 20, dtype: object

>  <hbond:ALA:101>  (21) 
hbond:ALA:101    0
hbond:ALA:101    0
Name: 20, dtype: object

>  <hydroph_interaction:ALA:101>  (21) 
hydroph_interaction:ALA:101    0
hydroph_interaction:ALA:101    0
Name: 20, dtype: object

>  <hydroph_interaction:VAL:102>  (21) 
hydroph_interaction:VAL:102    0
hydroph_interaction:VAL:102    0
Name: 20, dtype: object

>  <hbond:VAL:102>  (21) 
hbond:VAL:102    0
hbond:VAL:102    0
Name: 20, dtype: object

>  <hbond:GLY:103>  (21) 
hbond:GLY:103    0
hbond:GLY:103    0
Name: 20, dtype: object

>  <halogenbond:GLY:103>  (21) 
halogenbond:GLY:103    0
halogenbond:GLY:103    0
Name: 20, dtype: object

>  <hydroph_interaction:HIS:104>  (21) 
hydroph_interaction:HIS:104    0
hydroph_interaction:HIS:104    0
Name: 20, dtype: object

>  <hbond:HIS:104>  (21) 
hbond:HIS:104    0
hbond:HIS:104    0
Name: 20, dtype: object

>  <saltbridge:HIS:104>  (21) 
saltbridge:HIS:104    0
saltbridge:HIS:104    0
Name: 20, dtype: object

>  <pication:HIS:104>  (21) 
pication:HIS:104    0
pication:HIS:104    0
Name: 20, dtype: object

>  <pistack:HIS:104>  (21) 
pistack:HIS:104    0
pistack:HIS:104    0
Name: 20, dtype: object

>  <halogenbond:HIS:104>  (21) 
halogenbond:HIS:104    0
halogenbond:HIS:104    0
Name: 20, dtype: object

>  <hbond:SER:105>  (21) 
hbond:SER:105    0
hbond:SER:105    0
Name: 20, dtype: object

>  <halogenbond:SER:105>  (21) 
halogenbond:SER:105    0
halogenbond:SER:105    0
Name: 20, dtype: object

>  <hbond:GLU:106>  (21) 
hbond:GLU:106    0
hbond:GLU:106    0
Name: 20, dtype: object

>  <hydroph_interaction:GLU:106>  (21) 
hydroph_interaction:GLU:106    0
hydroph_interaction:GLU:106    0
Name: 20, dtype: object

>  <saltbridge:GLU:106>  (21) 
saltbridge:GLU:106    0
saltbridge:GLU:106    0
Name: 20, dtype: object

>  <halogenbond:GLU:106>  (21) 
halogenbond:GLU:106    0
halogenbond:GLU:106    0
Name: 20, dtype: object

>  <hydroph_interaction:PRO:107>  (21) 
hydroph_interaction:PRO:107    0
hydroph_interaction:PRO:107    0
Name: 20, dtype: object

>  <hbond:PRO:107>  (21) 
hbond:PRO:107    0
hbond:PRO:107    0
Name: 20, dtype: object

>  <halogenbond:PRO:107>  (21) 
halogenbond:PRO:107    0
halogenbond:PRO:107    0
Name: 20, dtype: object

>  <hbond:GLY:108>  (21) 
hbond:GLY:108    0
hbond:GLY:108    0
Name: 20, dtype: object

>  <halogenbond:GLY:108>  (21) 
halogenbond:GLY:108    0
halogenbond:GLY:108    0
Name: 20, dtype: object

>  <hbond:ASP:109>  (21) 
hbond:ASP:109    0
hbond:ASP:109    0
Name: 20, dtype: object

>  <hydroph_interaction:ASP:109>  (21) 
hydroph_interaction:ASP:109    0
hydroph_interaction:ASP:109    0
Name: 20, dtype: object

>  <saltbridge:ASP:109>  (21) 
saltbridge:ASP:109    0
saltbridge:ASP:109    0
Name: 20, dtype: object

>  <hbond:CYS:110>  (21) 
hbond:CYS:110    0
hbond:CYS:110    0
Name: 20, dtype: object

>  <halogenbond:CYS:110>  (21) 
halogenbond:CYS:110    0
halogenbond:CYS:110    0
Name: 20, dtype: object

>  <hbond:GLY:111>  (21) 
hbond:GLY:111    0
hbond:GLY:111    0
Name: 20, dtype: object

>  <hbond:GLY:112>  (21) 
hbond:GLY:112    0
hbond:GLY:112    0
Name: 20, dtype: object

>  <hbond:ILE:113>  (21) 
hbond:ILE:113    0
hbond:ILE:113    0
Name: 20, dtype: object

>  <hydroph_interaction:LEU:114>  (21) 
hydroph_interaction:LEU:114    0
hydroph_interaction:LEU:114    0
Name: 20, dtype: object

>  <hbond:LEU:114>  (21) 
hbond:LEU:114    0
hbond:LEU:114    0
Name: 20, dtype: object

>  <hydroph_interaction:ILE:123>  (21) 
hydroph_interaction:ILE:123    0
hydroph_interaction:ILE:123    0
Name: 20, dtype: object

>  <hbond:ILE:123>  (21) 
hbond:ILE:123    0
hbond:ILE:123    0
Name: 20, dtype: object

>  <hydroph_interaction:VAL:124>  (21) 
hydroph_interaction:VAL:124    1
hydroph_interaction:VAL:124    1
Name: 20, dtype: object

>  <hbond:VAL:124>  (21) 
hbond:VAL:124    0
hbond:VAL:124    0
Name: 20, dtype: object

>  <halogenbond:VAL:124>  (21) 
halogenbond:VAL:124    0
halogenbond:VAL:124    0
Name: 20, dtype: object

>  <hbond:SER:125>  (21) 
hbond:SER:125    1
hbond:SER:125    1
Name: 20, dtype: object

>  <halogenbond:SER:125>  (21) 
halogenbond:SER:125    0
halogenbond:SER:125    0
Name: 20, dtype: object

>  <hydroph_interaction:THR:126>  (21) 
hydroph_interaction:THR:126    0
hydroph_interaction:THR:126    0
Name: 20, dtype: object

>  <hbond:THR:126>  (21) 
hbond:THR:126    0
hbond:THR:126    0
Name: 20, dtype: object

>  <halogenbond:THR:126>  (21) 
halogenbond:THR:126    0
halogenbond:THR:126    0
Name: 20, dtype: object

>  <hbond:GLY:127>  (21) 
hbond:GLY:127    0
hbond:GLY:127    0
Name: 20, dtype: object

>  <halogenbond:GLY:127>  (21) 
halogenbond:GLY:127    0
halogenbond:GLY:127    0
Name: 20, dtype: object

>  <hydroph_interaction:GLY:127>  (21) 
hydroph_interaction:GLY:127    0
hydroph_interaction:GLY:127    0
Name: 20, dtype: object

>  <hbond:GLY:128>  (21) 
hbond:GLY:128    0
hbond:GLY:128    0
Name: 20, dtype: object

>  <halogenbond:GLY:128>  (21) 
halogenbond:GLY:128    0
halogenbond:GLY:128    0
Name: 20, dtype: object

>  <hydroph_interaction:GLY:128>  (21) 
hydroph_interaction:GLY:128    0
hydroph_interaction:GLY:128    0
Name: 20, dtype: object

>  <hbond:ASN:129>  (21) 
hbond:ASN:129    0
hbond:ASN:129    0
Name: 20, dtype: object

>  <hydroph_interaction:ASN:129>  (21) 
hydroph_interaction:ASN:129    0
hydroph_interaction:ASN:129    0
Name: 20, dtype: object

>  <halogenbond:ASN:129>  (21) 
halogenbond:ASN:129    0
halogenbond:ASN:129    0
Name: 20, dtype: object

>  <hbond:GLY:130>  (21) 
hbond:GLY:130    0
hbond:GLY:130    0
Name: 20, dtype: object

>  <hydroph_interaction:LEU:131>  (21) 
hydroph_interaction:LEU:131    0
hydroph_interaction:LEU:131    0
Name: 20, dtype: object

>  <hbond:LEU:131>  (21) 
hbond:LEU:131    0
hbond:LEU:131    0
Name: 20, dtype: object

>  <halogenbond:LEU:131>  (21) 
halogenbond:LEU:131    0
halogenbond:LEU:131    0
Name: 20, dtype: object

>  <hydroph_interaction:VAL:132>  (21) 
hydroph_interaction:VAL:132    0
hydroph_interaction:VAL:132    0
Name: 20, dtype: object

>  <hbond:VAL:132>  (21) 
hbond:VAL:132    0
hbond:VAL:132    0
Name: 20, dtype: object

>  <hbond:GLY:133>  (21) 
hbond:GLY:133    0
hbond:GLY:133    0
Name: 20, dtype: object

>  <halogenbond:GLY:133>  (21) 
halogenbond:GLY:133    0
halogenbond:GLY:133    0
Name: 20, dtype: object

>  <hydroph_interaction:PHE:134>  (21) 
hydroph_interaction:PHE:134    0
hydroph_interaction:PHE:134    0
Name: 20, dtype: object

>  <hbond:PHE:134>  (21) 
hbond:PHE:134    0
hbond:PHE:134    0
Name: 20, dtype: object

>  <pistack:PHE:134>  (21) 
pistack:PHE:134    0
pistack:PHE:134    0
Name: 20, dtype: object

>  <pication:PHE:134>  (21) 
pication:PHE:134    0
pication:PHE:134    0
Name: 20, dtype: object

>  <hydroph_interaction:ALA:135>  (21) 
hydroph_interaction:ALA:135    0
hydroph_interaction:ALA:135    0
Name: 20, dtype: object

>  <hbond:ALA:135>  (21) 
hbond:ALA:135    0
hbond:ALA:135    0
Name: 20, dtype: object

$$$$
PV_002894369647
     RDKit          3D

 30 31  0  0  0  0  0  0  0  0999 V2000
   12.2170   15.3450   22.0660 C   0  0  0  0  0  0  0  0  0  0  0  0
   11.4920   14.2370   22.8100 C   0  0  0  0  0  0  0  0  0  0  0  0
   11.9180   14.0830   24.1040 C   0  0  0  0  0  0  0  0  0  0  0  0
   10.5340   13.4590   22.3070 C   0  0  0  0  0  0  0  0  0  0  0  0
    9.8430   12.3630   23.0210 C   0  0  0  0  0  0  0  0  0  0  0  0
    8.8620   12.5450   23.9740 C   0  0  0  0  0  0  0  0  0  0  0  0
    8.3940   13.8750   24.3870 C   0  0  0  0  0  0  0  0  0  0  0  0
    7.4520   14.1130   25.2990 N   0  0  0  0  0  0  0  0  0  0  0  0
    6.9130   13.0090   25.8560 C   0  0  0  0  0  0  0  0  0  0  0  0
    7.2760   11.6940   25.5440 C   0  0  0  0  0  0  0  0  0  0  0  0
    8.2560   11.4490   24.5980 C   0  0  0  0  0  0  0  0  0  0  0  0
    8.6620   10.1580   24.2430 C   0  0  0  0  0  0  0  0  0  0  0  0
    9.6540    9.9940   23.2810 C   0  0  0  0  0  0  0  0  0  0  0  0
   10.1790    8.7060   22.8090 C   0  0  0  0  0  0  0  0  0  0  0  0
   10.2150   11.0870   22.6980 C   0  0  0  0  0  0  0  0  0  0  0  0
   12.3060   16.2310   22.7050 H   0  0  0  0  0  0  0  0  0  0  0  0
   13.2320   15.0370   21.8010 H   0  0  0  0  0  0  0  0  0  0  0  0
   11.6990   15.5920   21.1330 H   0  0  0  0  0  0  0  0  0  0  0  0
   12.3810   14.9330   24.5900 H   0  0  0  0  0  0  0  0  0  0  0  0
   11.0660   13.7940   24.7230 H   0  0  0  0  0  0  0  0  0  0  0  0
   12.6490   13.2680   24.1370 H   0  0  0  0  0  0  0  0  0  0  0  0
   10.2040   13.6020   21.2830 H   0  0  0  0  0  0  0  0  0  0  0  0
    8.8720   14.7180   23.8930 H   0  0  0  0  0  0  0  0  0  0  0  0
    6.1390   13.2050   26.6030 H   0  0  0  0  0  0  0  0  0  0  0  0
    6.7790   10.8740   26.0520 H   0  0  0  0  0  0  0  0  0  0  0  0
    8.2090    9.2920   24.7110 H   0  0  0  0  0  0  0  0  0  0  0  0
    9.5400    8.3090   22.0180 H   0  0  0  0  0  0  0  0  0  0  0  0
   11.1840    8.8530   22.4230 H   0  0  0  0  0  0  0  0  0  0  0  0
   10.2610    7.9910   23.6060 H   0  0  0  0  0  0  0  0  0  0  0  0
   10.9740   10.9370   21.9580 H   0  0  0  0  0  0  0  0  0  0  0  0
  1  2  1  0
  2  3  1  0
  2  4  2  3
  4  5  1  0
  5  6  2  0
  6  7  1  0
  7  8  2  0
  8  9  1  0
  9 10  2  0
 10 11  1  0
 11 12  2  0
 12 13  1  0
 13 14  1  0
 13 15  2  0
 15  5  1  0
 11  6  1  0
  1 16  1  0
  1 17  1  0
  1 18  1  0
  3 19  1  0
  3 20  1  0
  3 21  1  0
  4 22  1  0
  7 23  1  0
  9 24  1  0
 10 25  1  0
 12 26  1  0
 14 27  1  0
 14 28  1  0
 14 29  1  0
 15 30  1  0
A    1
 C1 
A    2
 C2 
A    3
 C3 
A    4
 C4 
A    5
 C5 
A    6
 C6 
A    7
 C7 
A    8
 N1 
A    9
 C8 
A   10
 C9 
A   11
 C10
A   12
 C11
A   13
 C12
A   14
 C13
A   15
 C14
A   16
 H1 
A   17
 H2 
A   18
 H3 
A   19
 H4 
A   20
 H5 
A   21
 H6 
A   22
 H7 
A   23
 H8 
A   24
 H9 
A   25
 H10
A   26
 H11
A   27
 H12
A   28
 H13
A   29
 H14
A   30
 H15
M  END
>  <ref_pdb>  (22) 
x0310_0A

>  <ref_mols>  (22) 
x0554_0A,x0739_0A

>  <original SMILES>  (22) 
CC(C)=Cc1cc(C)cc2ccncc12

>  <rationale>  (22) 
info hydroph_interaction:P107+V124; 

>  <intxn_cluster>  (22) 
103

>  <intxn_cluster_rank>  (22) 
68

>  <N_interactions>  (22) 
2

>  <∆∆G>  (22) 
-12.313433

>  <$/mg>  (22) 
163.0

>  <comRMSD>  (22) 
0.853598

>  <N_rotatable_bonds>  (22) 
4

>  <hbond:SER:7>  (22) 
hbond:SER:7    0
hbond:SER:7    0
Name: 21, dtype: object

>  <halogenbond:SER:7>  (22) 
halogenbond:SER:7    0
halogenbond:SER:7    0
Name: 21, dtype: object

>  <hbond:GLY:8>  (22) 
hbond:GLY:8    0
hbond:GLY:8    0
Name: 21, dtype: object

>  <hydroph_interaction:ASN:19>  (22) 
hydroph_interaction:ASN:19    0
hydroph_interaction:ASN:19    0
Name: 21, dtype: object

>  <hbond:ASN:19>  (22) 
hbond:ASN:19    0
hbond:ASN:19    0
Name: 21, dtype: object

>  <halogenbond:ASN:19>  (22) 
halogenbond:ASN:19    0
halogenbond:ASN:19    0
Name: 21, dtype: object

>  <hbond:ARG:20>  (22) 
hbond:ARG:20    0
hbond:ARG:20    0
Name: 21, dtype: object

>  <hydroph_interaction:ARG:20>  (22) 
hydroph_interaction:ARG:20    0
hydroph_interaction:ARG:20    0
Name: 21, dtype: object

>  <saltbridge:ARG:20>  (22) 
saltbridge:ARG:20    0
saltbridge:ARG:20    0
Name: 21, dtype: object

>  <halogenbond:ARG:20>  (22) 
halogenbond:ARG:20    0
halogenbond:ARG:20    0
Name: 21, dtype: object

>  <pication:ARG:20>  (22) 
pication:ARG:20    0
pication:ARG:20    0
Name: 21, dtype: object

>  <hbond:HIS:21>  (22) 
hbond:HIS:21    0
hbond:HIS:21    0
Name: 21, dtype: object

>  <hydroph_interaction:HIS:21>  (22) 
hydroph_interaction:HIS:21    0
hydroph_interaction:HIS:21    0
Name: 21, dtype: object

>  <saltbridge:HIS:21>  (22) 
saltbridge:HIS:21    0
saltbridge:HIS:21    0
Name: 21, dtype: object

>  <pistack:HIS:21>  (22) 
pistack:HIS:21    0
pistack:HIS:21    0
Name: 21, dtype: object

>  <pication:HIS:21>  (22) 
pication:HIS:21    0
pication:HIS:21    0
Name: 21, dtype: object

>  <halogenbond:HIS:21>  (22) 
halogenbond:HIS:21    0
halogenbond:HIS:21    0
Name: 21, dtype: object

>  <hydroph_interaction:LEU:22>  (22) 
hydroph_interaction:LEU:22    0
hydroph_interaction:LEU:22    0
Name: 21, dtype: object

>  <hbond:LEU:22>  (22) 
hbond:LEU:22    0
hbond:LEU:22    0
Name: 21, dtype: object

>  <hydroph_interaction:TRP:28>  (22) 
hydroph_interaction:TRP:28    0
hydroph_interaction:TRP:28    0
Name: 21, dtype: object

>  <hbond:SER:36>  (22) 
hbond:SER:36    0
hbond:SER:36    0
Name: 21, dtype: object

>  <halogenbond:SER:36>  (22) 
halogenbond:SER:36    0
halogenbond:SER:36    0
Name: 21, dtype: object

>  <hbond:ARG:38>  (22) 
hbond:ARG:38    0
hbond:ARG:38    0
Name: 21, dtype: object

>  <halogenbond:ARG:38>  (22) 
halogenbond:ARG:38    0
halogenbond:ARG:38    0
Name: 21, dtype: object

>  <hbond:ASP:39>  (22) 
hbond:ASP:39    0
hbond:ASP:39    0
Name: 21, dtype: object

>  <saltbridge:ASP:39>  (22) 
saltbridge:ASP:39    0
saltbridge:ASP:39    0
Name: 21, dtype: object

>  <hydroph_interaction:ASP:39>  (22) 
hydroph_interaction:ASP:39    0
hydroph_interaction:ASP:39    0
Name: 21, dtype: object

>  <halogenbond:ASP:39>  (22) 
halogenbond:ASP:39    0
halogenbond:ASP:39    0
Name: 21, dtype: object

>  <hydroph_interaction:LEU:40>  (22) 
hydroph_interaction:LEU:40    0
hydroph_interaction:LEU:40    0
Name: 21, dtype: object

>  <hydroph_interaction:TYR:63>  (22) 
hydroph_interaction:TYR:63    0
hydroph_interaction:TYR:63    0
Name: 21, dtype: object

>  <pistack:TYR:63>  (22) 
pistack:TYR:63    0
pistack:TYR:63    0
Name: 21, dtype: object

>  <hbond:TYR:63>  (22) 
hbond:TYR:63    0
hbond:TYR:63    0
Name: 21, dtype: object

>  <hbond:TYR:64>  (22) 
hbond:TYR:64    0
hbond:TYR:64    0
Name: 21, dtype: object

>  <halogenbond:TYR:64>  (22) 
halogenbond:TYR:64    0
halogenbond:TYR:64    0
Name: 21, dtype: object

>  <hydroph_interaction:TYR:64>  (22) 
hydroph_interaction:TYR:64    0
hydroph_interaction:TYR:64    0
Name: 21, dtype: object

>  <hbond:CYS:65>  (22) 
hbond:CYS:65    0
hbond:CYS:65    0
Name: 21, dtype: object

>  <halogenbond:CYS:65>  (22) 
halogenbond:CYS:65    0
halogenbond:CYS:65    0
Name: 21, dtype: object

>  <hbond:SER:66>  (22) 
hbond:SER:66    0
hbond:SER:66    0
Name: 21, dtype: object

>  <hbond:SER:67>  (22) 
hbond:SER:67    0
hbond:SER:67    0
Name: 21, dtype: object

>  <halogenbond:SER:67>  (22) 
halogenbond:SER:67    0
halogenbond:SER:67    0
Name: 21, dtype: object

>  <hydroph_interaction:ARG:68>  (22) 
hydroph_interaction:ARG:68    0
hydroph_interaction:ARG:68    0
Name: 21, dtype: object

>  <hbond:ARG:68>  (22) 
hbond:ARG:68    0
hbond:ARG:68    0
Name: 21, dtype: object

>  <saltbridge:ARG:68>  (22) 
saltbridge:ARG:68    0
saltbridge:ARG:68    0
Name: 21, dtype: object

>  <pication:ARG:68>  (22) 
pication:ARG:68    0
pication:ARG:68    0
Name: 21, dtype: object

>  <hydroph_interaction:TYR:72>  (22) 
hydroph_interaction:TYR:72    0
hydroph_interaction:TYR:72    0
Name: 21, dtype: object

>  <hydroph_interaction:VAL:74>  (22) 
hydroph_interaction:VAL:74    0
hydroph_interaction:VAL:74    0
Name: 21, dtype: object

>  <hydroph_interaction:PHE:76>  (22) 
hydroph_interaction:PHE:76    0
hydroph_interaction:PHE:76    0
Name: 21, dtype: object

>  <hbond:SER:77>  (22) 
hbond:SER:77    0
hbond:SER:77    0
Name: 21, dtype: object

>  <hbond:SER:80>  (22) 
hbond:SER:80    0
hbond:SER:80    0
Name: 21, dtype: object

>  <hbond:LEU:81>  (22) 
hbond:LEU:81    0
hbond:LEU:81    0
Name: 21, dtype: object

>  <halogenbond:LEU:81>  (22) 
halogenbond:LEU:81    0
halogenbond:LEU:81    0
Name: 21, dtype: object

>  <hydroph_interaction:LEU:81>  (22) 
hydroph_interaction:LEU:81    0
hydroph_interaction:LEU:81    0
Name: 21, dtype: object

>  <hydroph_interaction:ILE:82>  (22) 
hydroph_interaction:ILE:82    0
hydroph_interaction:ILE:82    0
Name: 21, dtype: object

>  <hbond:ILE:82>  (22) 
hbond:ILE:82    0
hbond:ILE:82    0
Name: 21, dtype: object

>  <hydroph_interaction:PHE:83>  (22) 
hydroph_interaction:PHE:83    0
hydroph_interaction:PHE:83    0
Name: 21, dtype: object

>  <hbond:PHE:83>  (22) 
hbond:PHE:83    0
hbond:PHE:83    0
Name: 21, dtype: object

>  <halogenbond:PHE:83>  (22) 
halogenbond:PHE:83    0
halogenbond:PHE:83    0
Name: 21, dtype: object

>  <pistack:PHE:83>  (22) 
pistack:PHE:83    0
pistack:PHE:83    0
Name: 21, dtype: object

>  <hydroph_interaction:VAL:84>  (22) 
hydroph_interaction:VAL:84    0
hydroph_interaction:VAL:84    0
Name: 21, dtype: object

>  <hbond:VAL:84>  (22) 
hbond:VAL:84    0
hbond:VAL:84    0
Name: 21, dtype: object

>  <halogenbond:VAL:84>  (22) 
halogenbond:VAL:84    0
halogenbond:VAL:84    0
Name: 21, dtype: object

>  <hydroph_interaction:GLU:85>  (22) 
hydroph_interaction:GLU:85    0
hydroph_interaction:GLU:85    0
Name: 21, dtype: object

>  <hbond:GLU:85>  (22) 
hbond:GLU:85    0
hbond:GLU:85    0
Name: 21, dtype: object

>  <saltbridge:GLU:85>  (22) 
saltbridge:GLU:85    0
saltbridge:GLU:85    0
Name: 21, dtype: object

>  <halogenbond:GLU:85>  (22) 
halogenbond:GLU:85    0
halogenbond:GLU:85    0
Name: 21, dtype: object

>  <hbond:ALA:86>  (22) 
hbond:ALA:86    0
hbond:ALA:86    0
Name: 21, dtype: object

>  <halogenbond:ALA:86>  (22) 
halogenbond:ALA:86    0
halogenbond:ALA:86    0
Name: 21, dtype: object

>  <hydroph_interaction:ALA:86>  (22) 
hydroph_interaction:ALA:86    0
hydroph_interaction:ALA:86    0
Name: 21, dtype: object

>  <hbond:SER:87>  (22) 
hbond:SER:87    0
hbond:SER:87    0
Name: 21, dtype: object

>  <halogenbond:SER:87>  (22) 
halogenbond:SER:87    0
halogenbond:SER:87    0
Name: 21, dtype: object

>  <hbond:GLU:88>  (22) 
hbond:GLU:88    0
hbond:GLU:88    0
Name: 21, dtype: object

>  <hydroph_interaction:GLU:88>  (22) 
hydroph_interaction:GLU:88    0
hydroph_interaction:GLU:88    0
Name: 21, dtype: object

>  <halogenbond:GLU:88>  (22) 
halogenbond:GLU:88    0
halogenbond:GLU:88    0
Name: 21, dtype: object

>  <saltbridge:GLU:88>  (22) 
saltbridge:GLU:88    0
saltbridge:GLU:88    0
Name: 21, dtype: object

>  <hydroph_interaction:TYR:89>  (22) 
hydroph_interaction:TYR:89    0
hydroph_interaction:TYR:89    0
Name: 21, dtype: object

>  <pistack:TYR:89>  (22) 
pistack:TYR:89    0
pistack:TYR:89    0
Name: 21, dtype: object

>  <hbond:TYR:89>  (22) 
hbond:TYR:89    0
hbond:TYR:89    0
Name: 21, dtype: object

>  <halogenbond:TYR:89>  (22) 
halogenbond:TYR:89    0
halogenbond:TYR:89    0
Name: 21, dtype: object

>  <hbond:TYR:90>  (22) 
hbond:TYR:90    0
hbond:TYR:90    0
Name: 21, dtype: object

>  <hydroph_interaction:TYR:90>  (22) 
hydroph_interaction:TYR:90    0
hydroph_interaction:TYR:90    0
Name: 21, dtype: object

>  <pistack:TYR:90>  (22) 
pistack:TYR:90    0
pistack:TYR:90    0
Name: 21, dtype: object

>  <halogenbond:TYR:90>  (22) 
halogenbond:TYR:90    0
halogenbond:TYR:90    0
Name: 21, dtype: object

>  <pication:TYR:90>  (22) 
pication:TYR:90    0
pication:TYR:90    0
Name: 21, dtype: object

>  <hydroph_interaction:PRO:91>  (22) 
hydroph_interaction:PRO:91    0
hydroph_interaction:PRO:91    0
Name: 21, dtype: object

>  <halogenbond:PRO:91>  (22) 
halogenbond:PRO:91    0
halogenbond:PRO:91    0
Name: 21, dtype: object

>  <hbond:PRO:91>  (22) 
hbond:PRO:91    0
hbond:PRO:91    0
Name: 21, dtype: object

>  <hydroph_interaction:ALA:92>  (22) 
hydroph_interaction:ALA:92    0
hydroph_interaction:ALA:92    0
Name: 21, dtype: object

>  <hbond:ARG:93>  (22) 
hbond:ARG:93    0
hbond:ARG:93    0
Name: 21, dtype: object

>  <pication:ARG:93>  (22) 
pication:ARG:93    0
pication:ARG:93    0
Name: 21, dtype: object

>  <saltbridge:ARG:93>  (22) 
saltbridge:ARG:93    0
saltbridge:ARG:93    0
Name: 21, dtype: object

>  <hydroph_interaction:ARG:93>  (22) 
hydroph_interaction:ARG:93    0
hydroph_interaction:ARG:93    0
Name: 21, dtype: object

>  <halogenbond:ARG:93>  (22) 
halogenbond:ARG:93    0
halogenbond:ARG:93    0
Name: 21, dtype: object

>  <hydroph_interaction:TYR:94>  (22) 
hydroph_interaction:TYR:94    0
hydroph_interaction:TYR:94    0
Name: 21, dtype: object

>  <hbond:TYR:94>  (22) 
hbond:TYR:94    0
hbond:TYR:94    0
Name: 21, dtype: object

>  <halogenbond:GLN:95>  (22) 
halogenbond:GLN:95    0
halogenbond:GLN:95    0
Name: 21, dtype: object

>  <hbond:GLN:95>  (22) 
hbond:GLN:95    0
hbond:GLN:95    0
Name: 21, dtype: object

>  <hydroph_interaction:GLN:95>  (22) 
hydroph_interaction:GLN:95    0
hydroph_interaction:GLN:95    0
Name: 21, dtype: object

>  <hbond:SER:96>  (22) 
hbond:SER:96    0
hbond:SER:96    0
Name: 21, dtype: object

>  <hydroph_interaction:LEU:98>  (22) 
hydroph_interaction:LEU:98    0
hydroph_interaction:LEU:98    0
Name: 21, dtype: object

>  <hbond:LEU:98>  (22) 
hbond:LEU:98    0
hbond:LEU:98    0
Name: 21, dtype: object

>  <hbond:MET:99>  (22) 
hbond:MET:99    0
hbond:MET:99    0
Name: 21, dtype: object

>  <hydroph_interaction:MET:99>  (22) 
hydroph_interaction:MET:99    0
hydroph_interaction:MET:99    0
Name: 21, dtype: object

>  <halogenbond:MET:99>  (22) 
halogenbond:MET:99    0
halogenbond:MET:99    0
Name: 21, dtype: object

>  <hydroph_interaction:LEU:100>  (22) 
hydroph_interaction:LEU:100    0
hydroph_interaction:LEU:100    0
Name: 21, dtype: object

>  <hbond:LEU:100>  (22) 
hbond:LEU:100    0
hbond:LEU:100    0
Name: 21, dtype: object

>  <hbond:ALA:101>  (22) 
hbond:ALA:101    0
hbond:ALA:101    0
Name: 21, dtype: object

>  <hydroph_interaction:ALA:101>  (22) 
hydroph_interaction:ALA:101    0
hydroph_interaction:ALA:101    0
Name: 21, dtype: object

>  <hydroph_interaction:VAL:102>  (22) 
hydroph_interaction:VAL:102    0
hydroph_interaction:VAL:102    0
Name: 21, dtype: object

>  <hbond:VAL:102>  (22) 
hbond:VAL:102    0
hbond:VAL:102    0
Name: 21, dtype: object

>  <hbond:GLY:103>  (22) 
hbond:GLY:103    0
hbond:GLY:103    0
Name: 21, dtype: object

>  <halogenbond:GLY:103>  (22) 
halogenbond:GLY:103    0
halogenbond:GLY:103    0
Name: 21, dtype: object

>  <hydroph_interaction:HIS:104>  (22) 
hydroph_interaction:HIS:104    0
hydroph_interaction:HIS:104    0
Name: 21, dtype: object

>  <hbond:HIS:104>  (22) 
hbond:HIS:104    0
hbond:HIS:104    0
Name: 21, dtype: object

>  <saltbridge:HIS:104>  (22) 
saltbridge:HIS:104    0
saltbridge:HIS:104    0
Name: 21, dtype: object

>  <pication:HIS:104>  (22) 
pication:HIS:104    0
pication:HIS:104    0
Name: 21, dtype: object

>  <pistack:HIS:104>  (22) 
pistack:HIS:104    0
pistack:HIS:104    0
Name: 21, dtype: object

>  <halogenbond:HIS:104>  (22) 
halogenbond:HIS:104    0
halogenbond:HIS:104    0
Name: 21, dtype: object

>  <hbond:SER:105>  (22) 
hbond:SER:105    0
hbond:SER:105    0
Name: 21, dtype: object

>  <halogenbond:SER:105>  (22) 
halogenbond:SER:105    0
halogenbond:SER:105    0
Name: 21, dtype: object

>  <hbond:GLU:106>  (22) 
hbond:GLU:106    0
hbond:GLU:106    0
Name: 21, dtype: object

>  <hydroph_interaction:GLU:106>  (22) 
hydroph_interaction:GLU:106    0
hydroph_interaction:GLU:106    0
Name: 21, dtype: object

>  <saltbridge:GLU:106>  (22) 
saltbridge:GLU:106    0
saltbridge:GLU:106    0
Name: 21, dtype: object

>  <halogenbond:GLU:106>  (22) 
halogenbond:GLU:106    0
halogenbond:GLU:106    0
Name: 21, dtype: object

>  <hydroph_interaction:PRO:107>  (22) 
hydroph_interaction:PRO:107    1
hydroph_interaction:PRO:107    1
Name: 21, dtype: object

>  <hbond:PRO:107>  (22) 
hbond:PRO:107    0
hbond:PRO:107    0
Name: 21, dtype: object

>  <halogenbond:PRO:107>  (22) 
halogenbond:PRO:107    0
halogenbond:PRO:107    0
Name: 21, dtype: object

>  <hbond:GLY:108>  (22) 
hbond:GLY:108    0
hbond:GLY:108    0
Name: 21, dtype: object

>  <halogenbond:GLY:108>  (22) 
halogenbond:GLY:108    0
halogenbond:GLY:108    0
Name: 21, dtype: object

>  <hbond:ASP:109>  (22) 
hbond:ASP:109    0
hbond:ASP:109    0
Name: 21, dtype: object

>  <hydroph_interaction:ASP:109>  (22) 
hydroph_interaction:ASP:109    0
hydroph_interaction:ASP:109    0
Name: 21, dtype: object

>  <saltbridge:ASP:109>  (22) 
saltbridge:ASP:109    0
saltbridge:ASP:109    0
Name: 21, dtype: object

>  <hbond:CYS:110>  (22) 
hbond:CYS:110    0
hbond:CYS:110    0
Name: 21, dtype: object

>  <halogenbond:CYS:110>  (22) 
halogenbond:CYS:110    0
halogenbond:CYS:110    0
Name: 21, dtype: object

>  <hbond:GLY:111>  (22) 
hbond:GLY:111    0
hbond:GLY:111    0
Name: 21, dtype: object

>  <hbond:GLY:112>  (22) 
hbond:GLY:112    0
hbond:GLY:112    0
Name: 21, dtype: object

>  <hbond:ILE:113>  (22) 
hbond:ILE:113    0
hbond:ILE:113    0
Name: 21, dtype: object

>  <hydroph_interaction:LEU:114>  (22) 
hydroph_interaction:LEU:114    0
hydroph_interaction:LEU:114    0
Name: 21, dtype: object

>  <hbond:LEU:114>  (22) 
hbond:LEU:114    0
hbond:LEU:114    0
Name: 21, dtype: object

>  <hydroph_interaction:ILE:123>  (22) 
hydroph_interaction:ILE:123    0
hydroph_interaction:ILE:123    0
Name: 21, dtype: object

>  <hbond:ILE:123>  (22) 
hbond:ILE:123    0
hbond:ILE:123    0
Name: 21, dtype: object

>  <hydroph_interaction:VAL:124>  (22) 
hydroph_interaction:VAL:124    1
hydroph_interaction:VAL:124    1
Name: 21, dtype: object

>  <hbond:VAL:124>  (22) 
hbond:VAL:124    0
hbond:VAL:124    0
Name: 21, dtype: object

>  <halogenbond:VAL:124>  (22) 
halogenbond:VAL:124    0
halogenbond:VAL:124    0
Name: 21, dtype: object

>  <hbond:SER:125>  (22) 
hbond:SER:125    0
hbond:SER:125    0
Name: 21, dtype: object

>  <halogenbond:SER:125>  (22) 
halogenbond:SER:125    0
halogenbond:SER:125    0
Name: 21, dtype: object

>  <hydroph_interaction:THR:126>  (22) 
hydroph_interaction:THR:126    0
hydroph_interaction:THR:126    0
Name: 21, dtype: object

>  <hbond:THR:126>  (22) 
hbond:THR:126    0
hbond:THR:126    0
Name: 21, dtype: object

>  <halogenbond:THR:126>  (22) 
halogenbond:THR:126    0
halogenbond:THR:126    0
Name: 21, dtype: object

>  <hbond:GLY:127>  (22) 
hbond:GLY:127    0
hbond:GLY:127    0
Name: 21, dtype: object

>  <halogenbond:GLY:127>  (22) 
halogenbond:GLY:127    0
halogenbond:GLY:127    0
Name: 21, dtype: object

>  <hydroph_interaction:GLY:127>  (22) 
hydroph_interaction:GLY:127    0
hydroph_interaction:GLY:127    0
Name: 21, dtype: object

>  <hbond:GLY:128>  (22) 
hbond:GLY:128    0
hbond:GLY:128    0
Name: 21, dtype: object

>  <halogenbond:GLY:128>  (22) 
halogenbond:GLY:128    0
halogenbond:GLY:128    0
Name: 21, dtype: object

>  <hydroph_interaction:GLY:128>  (22) 
hydroph_interaction:GLY:128    0
hydroph_interaction:GLY:128    0
Name: 21, dtype: object

>  <hbond:ASN:129>  (22) 
hbond:ASN:129    0
hbond:ASN:129    0
Name: 21, dtype: object

>  <hydroph_interaction:ASN:129>  (22) 
hydroph_interaction:ASN:129    0
hydroph_interaction:ASN:129    0
Name: 21, dtype: object

>  <halogenbond:ASN:129>  (22) 
halogenbond:ASN:129    0
halogenbond:ASN:129    0
Name: 21, dtype: object

>  <hbond:GLY:130>  (22) 
hbond:GLY:130    0
hbond:GLY:130    0
Name: 21, dtype: object

>  <hydroph_interaction:LEU:131>  (22) 
hydroph_interaction:LEU:131    0
hydroph_interaction:LEU:131    0
Name: 21, dtype: object

>  <hbond:LEU:131>  (22) 
hbond:LEU:131    0
hbond:LEU:131    0
Name: 21, dtype: object

>  <halogenbond:LEU:131>  (22) 
halogenbond:LEU:131    0
halogenbond:LEU:131    0
Name: 21, dtype: object

>  <hydroph_interaction:VAL:132>  (22) 
hydroph_interaction:VAL:132    0
hydroph_interaction:VAL:132    0
Name: 21, dtype: object

>  <hbond:VAL:132>  (22) 
hbond:VAL:132    0
hbond:VAL:132    0
Name: 21, dtype: object

>  <hbond:GLY:133>  (22) 
hbond:GLY:133    0
hbond:GLY:133    0
Name: 21, dtype: object

>  <halogenbond:GLY:133>  (22) 
halogenbond:GLY:133    0
halogenbond:GLY:133    0
Name: 21, dtype: object

>  <hydroph_interaction:PHE:134>  (22) 
hydroph_interaction:PHE:134    0
hydroph_interaction:PHE:134    0
Name: 21, dtype: object

>  <hbond:PHE:134>  (22) 
hbond:PHE:134    0
hbond:PHE:134    0
Name: 21, dtype: object

>  <pistack:PHE:134>  (22) 
pistack:PHE:134    0
pistack:PHE:134    0
Name: 21, dtype: object

>  <pication:PHE:134>  (22) 
pication:PHE:134    0
pication:PHE:134    0
Name: 21, dtype: object

>  <hydroph_interaction:ALA:135>  (22) 
hydroph_interaction:ALA:135    0
hydroph_interaction:ALA:135    0
Name: 21, dtype: object

>  <hbond:ALA:135>  (22) 
hbond:ALA:135    0
hbond:ALA:135    0
Name: 21, dtype: object

$$$$
PV_002206406386
     RDKit          3D

 31 32  0  0  0  0  0  0  0  0999 V2000
   13.7330   16.3760   19.8540 C   0  0  0  0  0  0  0  0  0  0  0  0
   12.4080   16.8150   20.3930 C   0  0  0  0  0  0  0  0  0  0  0  0
   11.9750   16.0260   21.5170 N   0  0  0  0  0  0  0  0  0  0  0  0
   12.9970   15.4610   22.3260 O   0  0  0  0  0  0  0  0  0  0  0  0
   12.6170   14.0920   22.5000 C   0  0  0  0  0  0  0  0  0  0  0  0
   11.1220   14.0110   22.2790 C   0  0  0  0  0  0  0  0  0  0  0  0
   10.2060   14.2250   23.8290 S   0  0  0  0  0  0  0  0  0  0  0  0
    9.4880   12.6330   24.0050 C   0  0  0  0  0  0  0  0  0  0  0  0
   10.0710   11.5860   23.2980 C   0  0  0  0  0  0  0  0  0  0  0  0
    9.5810   10.3010   23.4160 C   0  0  0  0  0  0  0  0  0  0  0  0
   10.1770    9.2760   22.7100 C   0  0  0  0  0  0  0  0  0  0  0  0
    8.4920   10.0800   24.2540 C   0  0  0  0  0  0  0  0  0  0  0  0
    7.8880   11.1200   24.9520 C   0  0  0  0  0  0  0  0  0  0  0  0
    8.3890   12.4150   24.8230 C   0  0  0  0  0  0  0  0  0  0  0  0
    7.6240   13.7050   25.6960 Cl  0  0  0  0  0  0  0  0  0  0  0  0
   10.8830   15.2050   21.4230 C   0  0  0  0  0  0  0  0  0  0  0  0
    9.8840   15.4340   20.7590 O   0  0  0  0  0  0  0  0  0  0  0  0
   13.6210   15.6190   19.0750 H   0  0  0  0  0  0  0  0  0  0  0  0
   14.2770   17.2290   19.4370 H   0  0  0  0  0  0  0  0  0  0  0  0
   14.3180   15.9490   20.6590 H   0  0  0  0  0  0  0  0  0  0  0  0
   11.6380   16.7480   19.6190 H   0  0  0  0  0  0  0  0  0  0  0  0
   12.4810   17.8480   20.6940 H   0  0  0  0  0  0  0  0  0  0  0  0
   13.1950   13.4700   21.8170 H   0  0  0  0  0  0  0  0  0  0  0  0
   12.8830   13.7990   23.5210 H   0  0  0  0  0  0  0  0  0  0  0  0
   10.8470   13.0890   21.7790 H   0  0  0  0  0  0  0  0  0  0  0  0
   10.9260   11.7720   22.6520 H   0  0  0  0  0  0  0  0  0  0  0  0
    9.4260    8.5750   22.3400 H   0  0  0  0  0  0  0  0  0  0  0  0
   10.8830    8.7120   23.3260 H   0  0  0  0  0  0  0  0  0  0  0  0
   10.7090    9.6810   21.8480 H   0  0  0  0  0  0  0  0  0  0  0  0
    8.0990    9.0780   24.3640 H   0  0  0  0  0  0  0  0  0  0  0  0
    7.0340   10.9130   25.5910 H   0  0  0  0  0  0  0  0  0  0  0  0
  1  2  1  0
  2  3  1  0
  3  4  1  0
  4  5  1  0
  5  6  1  0
  6  7  1  0
  7  8  1  0
  8  9  2  0
  9 10  1  0
 10 11  1  0
 10 12  2  0
 12 13  1  0
 13 14  2  0
 14 15  1  0
  6 16  1  0
 16 17  2  0
 16  3  1  0
 14  8  1  0
  1 18  1  0
  1 19  1  0
  1 20  1  0
  2 21  1  0
  2 22  1  0
  5 23  1  0
  5 24  1  0
  6 25  1  0
  9 26  1  0
 11 27  1  0
 11 28  1  0
 11 29  1  0
 12 30  1  0
 13 31  1  0
A    1
 C1 
A    2
 C2 
A    3
 N1 
A    4
 O1 
A    5
 C3 
A    6
 C4 
A    7
 S1 
A    8
 C5 
A    9
 C6 
A   10
 C7 
A   11
 C8 
A   12
 C9 
A   13
 C10
A   14
 C11
A   15
CL1 
A   16
 C12
A   17
 O2 
A   18
 H1 
A   19
 H2 
A   20
 H3 
A   21
 H4 
A   22
 H5 
A   23
 H6 
A   24
 H7 
A   25
 H8 
A   26
 H9 
A   27
 H10
A   28
 H11
A   29
 H12
A   30
 H13
A   31
 H14
M  END
>  <ref_pdb>  (23) 
x0310_0A

>  <ref_mols>  (23) 
x0416_0A,x0528_0A

>  <original SMILES>  (23) 
CCN1OCC(Sc2cc(C)ccc2Cl)C1=O

>  <rationale>  (23) 
info hbond:S87; hydroph_interaction:V124+Y89+Y90+H21; 

>  <intxn_cluster>  (23) 
103

>  <intxn_cluster_rank>  (23) 
75

>  <N_interactions>  (23) 
5

>  <∆∆G>  (23) 
-10.866898

>  <$/mg>  (23) 
163.0

>  <comRMSD>  (23) 
0.570634

>  <N_rotatable_bonds>  (23) 
5

>  <hbond:SER:7>  (23) 
hbond:SER:7    0
hbond:SER:7    0
Name: 22, dtype: object

>  <halogenbond:SER:7>  (23) 
halogenbond:SER:7    0
halogenbond:SER:7    0
Name: 22, dtype: object

>  <hbond:GLY:8>  (23) 
hbond:GLY:8    0
hbond:GLY:8    0
Name: 22, dtype: object

>  <hydroph_interaction:ASN:19>  (23) 
hydroph_interaction:ASN:19    0
hydroph_interaction:ASN:19    0
Name: 22, dtype: object

>  <hbond:ASN:19>  (23) 
hbond:ASN:19    0
hbond:ASN:19    0
Name: 22, dtype: object

>  <halogenbond:ASN:19>  (23) 
halogenbond:ASN:19    0
halogenbond:ASN:19    0
Name: 22, dtype: object

>  <hbond:ARG:20>  (23) 
hbond:ARG:20    0
hbond:ARG:20    0
Name: 22, dtype: object

>  <hydroph_interaction:ARG:20>  (23) 
hydroph_interaction:ARG:20    0
hydroph_interaction:ARG:20    0
Name: 22, dtype: object

>  <saltbridge:ARG:20>  (23) 
saltbridge:ARG:20    0
saltbridge:ARG:20    0
Name: 22, dtype: object

>  <halogenbond:ARG:20>  (23) 
halogenbond:ARG:20    0
halogenbond:ARG:20    0
Name: 22, dtype: object

>  <pication:ARG:20>  (23) 
pication:ARG:20    0
pication:ARG:20    0
Name: 22, dtype: object

>  <hbond:HIS:21>  (23) 
hbond:HIS:21    0
hbond:HIS:21    0
Name: 22, dtype: object

>  <hydroph_interaction:HIS:21>  (23) 
hydroph_interaction:HIS:21    1
hydroph_interaction:HIS:21    1
Name: 22, dtype: object

>  <saltbridge:HIS:21>  (23) 
saltbridge:HIS:21    0
saltbridge:HIS:21    0
Name: 22, dtype: object

>  <pistack:HIS:21>  (23) 
pistack:HIS:21    0
pistack:HIS:21    0
Name: 22, dtype: object

>  <pication:HIS:21>  (23) 
pication:HIS:21    0
pication:HIS:21    0
Name: 22, dtype: object

>  <halogenbond:HIS:21>  (23) 
halogenbond:HIS:21    0
halogenbond:HIS:21    0
Name: 22, dtype: object

>  <hydroph_interaction:LEU:22>  (23) 
hydroph_interaction:LEU:22    0
hydroph_interaction:LEU:22    0
Name: 22, dtype: object

>  <hbond:LEU:22>  (23) 
hbond:LEU:22    0
hbond:LEU:22    0
Name: 22, dtype: object

>  <hydroph_interaction:TRP:28>  (23) 
hydroph_interaction:TRP:28    0
hydroph_interaction:TRP:28    0
Name: 22, dtype: object

>  <hbond:SER:36>  (23) 
hbond:SER:36    0
hbond:SER:36    0
Name: 22, dtype: object

>  <halogenbond:SER:36>  (23) 
halogenbond:SER:36    0
halogenbond:SER:36    0
Name: 22, dtype: object

>  <hbond:ARG:38>  (23) 
hbond:ARG:38    0
hbond:ARG:38    0
Name: 22, dtype: object

>  <halogenbond:ARG:38>  (23) 
halogenbond:ARG:38    0
halogenbond:ARG:38    0
Name: 22, dtype: object

>  <hbond:ASP:39>  (23) 
hbond:ASP:39    0
hbond:ASP:39    0
Name: 22, dtype: object

>  <saltbridge:ASP:39>  (23) 
saltbridge:ASP:39    0
saltbridge:ASP:39    0
Name: 22, dtype: object

>  <hydroph_interaction:ASP:39>  (23) 
hydroph_interaction:ASP:39    0
hydroph_interaction:ASP:39    0
Name: 22, dtype: object

>  <halogenbond:ASP:39>  (23) 
halogenbond:ASP:39    0
halogenbond:ASP:39    0
Name: 22, dtype: object

>  <hydroph_interaction:LEU:40>  (23) 
hydroph_interaction:LEU:40    0
hydroph_interaction:LEU:40    0
Name: 22, dtype: object

>  <hydroph_interaction:TYR:63>  (23) 
hydroph_interaction:TYR:63    0
hydroph_interaction:TYR:63    0
Name: 22, dtype: object

>  <pistack:TYR:63>  (23) 
pistack:TYR:63    0
pistack:TYR:63    0
Name: 22, dtype: object

>  <hbond:TYR:63>  (23) 
hbond:TYR:63    0
hbond:TYR:63    0
Name: 22, dtype: object

>  <hbond:TYR:64>  (23) 
hbond:TYR:64    0
hbond:TYR:64    0
Name: 22, dtype: object

>  <halogenbond:TYR:64>  (23) 
halogenbond:TYR:64    0
halogenbond:TYR:64    0
Name: 22, dtype: object

>  <hydroph_interaction:TYR:64>  (23) 
hydroph_interaction:TYR:64    0
hydroph_interaction:TYR:64    0
Name: 22, dtype: object

>  <hbond:CYS:65>  (23) 
hbond:CYS:65    0
hbond:CYS:65    0
Name: 22, dtype: object

>  <halogenbond:CYS:65>  (23) 
halogenbond:CYS:65    0
halogenbond:CYS:65    0
Name: 22, dtype: object

>  <hbond:SER:66>  (23) 
hbond:SER:66    0
hbond:SER:66    0
Name: 22, dtype: object

>  <hbond:SER:67>  (23) 
hbond:SER:67    0
hbond:SER:67    0
Name: 22, dtype: object

>  <halogenbond:SER:67>  (23) 
halogenbond:SER:67    0
halogenbond:SER:67    0
Name: 22, dtype: object

>  <hydroph_interaction:ARG:68>  (23) 
hydroph_interaction:ARG:68    0
hydroph_interaction:ARG:68    0
Name: 22, dtype: object

>  <hbond:ARG:68>  (23) 
hbond:ARG:68    0
hbond:ARG:68    0
Name: 22, dtype: object

>  <saltbridge:ARG:68>  (23) 
saltbridge:ARG:68    0
saltbridge:ARG:68    0
Name: 22, dtype: object

>  <pication:ARG:68>  (23) 
pication:ARG:68    0
pication:ARG:68    0
Name: 22, dtype: object

>  <hydroph_interaction:TYR:72>  (23) 
hydroph_interaction:TYR:72    0
hydroph_interaction:TYR:72    0
Name: 22, dtype: object

>  <hydroph_interaction:VAL:74>  (23) 
hydroph_interaction:VAL:74    0
hydroph_interaction:VAL:74    0
Name: 22, dtype: object

>  <hydroph_interaction:PHE:76>  (23) 
hydroph_interaction:PHE:76    0
hydroph_interaction:PHE:76    0
Name: 22, dtype: object

>  <hbond:SER:77>  (23) 
hbond:SER:77    0
hbond:SER:77    0
Name: 22, dtype: object

>  <hbond:SER:80>  (23) 
hbond:SER:80    0
hbond:SER:80    0
Name: 22, dtype: object

>  <hbond:LEU:81>  (23) 
hbond:LEU:81    0
hbond:LEU:81    0
Name: 22, dtype: object

>  <halogenbond:LEU:81>  (23) 
halogenbond:LEU:81    0
halogenbond:LEU:81    0
Name: 22, dtype: object

>  <hydroph_interaction:LEU:81>  (23) 
hydroph_interaction:LEU:81    0
hydroph_interaction:LEU:81    0
Name: 22, dtype: object

>  <hydroph_interaction:ILE:82>  (23) 
hydroph_interaction:ILE:82    0
hydroph_interaction:ILE:82    0
Name: 22, dtype: object

>  <hbond:ILE:82>  (23) 
hbond:ILE:82    0
hbond:ILE:82    0
Name: 22, dtype: object

>  <hydroph_interaction:PHE:83>  (23) 
hydroph_interaction:PHE:83    0
hydroph_interaction:PHE:83    0
Name: 22, dtype: object

>  <hbond:PHE:83>  (23) 
hbond:PHE:83    0
hbond:PHE:83    0
Name: 22, dtype: object

>  <halogenbond:PHE:83>  (23) 
halogenbond:PHE:83    0
halogenbond:PHE:83    0
Name: 22, dtype: object

>  <pistack:PHE:83>  (23) 
pistack:PHE:83    0
pistack:PHE:83    0
Name: 22, dtype: object

>  <hydroph_interaction:VAL:84>  (23) 
hydroph_interaction:VAL:84    0
hydroph_interaction:VAL:84    0
Name: 22, dtype: object

>  <hbond:VAL:84>  (23) 
hbond:VAL:84    0
hbond:VAL:84    0
Name: 22, dtype: object

>  <halogenbond:VAL:84>  (23) 
halogenbond:VAL:84    0
halogenbond:VAL:84    0
Name: 22, dtype: object

>  <hydroph_interaction:GLU:85>  (23) 
hydroph_interaction:GLU:85    0
hydroph_interaction:GLU:85    0
Name: 22, dtype: object

>  <hbond:GLU:85>  (23) 
hbond:GLU:85    0
hbond:GLU:85    0
Name: 22, dtype: object

>  <saltbridge:GLU:85>  (23) 
saltbridge:GLU:85    0
saltbridge:GLU:85    0
Name: 22, dtype: object

>  <halogenbond:GLU:85>  (23) 
halogenbond:GLU:85    0
halogenbond:GLU:85    0
Name: 22, dtype: object

>  <hbond:ALA:86>  (23) 
hbond:ALA:86    0
hbond:ALA:86    0
Name: 22, dtype: object

>  <halogenbond:ALA:86>  (23) 
halogenbond:ALA:86    0
halogenbond:ALA:86    0
Name: 22, dtype: object

>  <hydroph_interaction:ALA:86>  (23) 
hydroph_interaction:ALA:86    0
hydroph_interaction:ALA:86    0
Name: 22, dtype: object

>  <hbond:SER:87>  (23) 
hbond:SER:87    1
hbond:SER:87    1
Name: 22, dtype: object

>  <halogenbond:SER:87>  (23) 
halogenbond:SER:87    0
halogenbond:SER:87    0
Name: 22, dtype: object

>  <hbond:GLU:88>  (23) 
hbond:GLU:88    0
hbond:GLU:88    0
Name: 22, dtype: object

>  <hydroph_interaction:GLU:88>  (23) 
hydroph_interaction:GLU:88    0
hydroph_interaction:GLU:88    0
Name: 22, dtype: object

>  <halogenbond:GLU:88>  (23) 
halogenbond:GLU:88    0
halogenbond:GLU:88    0
Name: 22, dtype: object

>  <saltbridge:GLU:88>  (23) 
saltbridge:GLU:88    0
saltbridge:GLU:88    0
Name: 22, dtype: object

>  <hydroph_interaction:TYR:89>  (23) 
hydroph_interaction:TYR:89    1
hydroph_interaction:TYR:89    1
Name: 22, dtype: object

>  <pistack:TYR:89>  (23) 
pistack:TYR:89    0
pistack:TYR:89    0
Name: 22, dtype: object

>  <hbond:TYR:89>  (23) 
hbond:TYR:89    0
hbond:TYR:89    0
Name: 22, dtype: object

>  <halogenbond:TYR:89>  (23) 
halogenbond:TYR:89    0
halogenbond:TYR:89    0
Name: 22, dtype: object

>  <hbond:TYR:90>  (23) 
hbond:TYR:90    0
hbond:TYR:90    0
Name: 22, dtype: object

>  <hydroph_interaction:TYR:90>  (23) 
hydroph_interaction:TYR:90    1
hydroph_interaction:TYR:90    1
Name: 22, dtype: object

>  <pistack:TYR:90>  (23) 
pistack:TYR:90    0
pistack:TYR:90    0
Name: 22, dtype: object

>  <halogenbond:TYR:90>  (23) 
halogenbond:TYR:90    0
halogenbond:TYR:90    0
Name: 22, dtype: object

>  <pication:TYR:90>  (23) 
pication:TYR:90    0
pication:TYR:90    0
Name: 22, dtype: object

>  <hydroph_interaction:PRO:91>  (23) 
hydroph_interaction:PRO:91    0
hydroph_interaction:PRO:91    0
Name: 22, dtype: object

>  <halogenbond:PRO:91>  (23) 
halogenbond:PRO:91    0
halogenbond:PRO:91    0
Name: 22, dtype: object

>  <hbond:PRO:91>  (23) 
hbond:PRO:91    0
hbond:PRO:91    0
Name: 22, dtype: object

>  <hydroph_interaction:ALA:92>  (23) 
hydroph_interaction:ALA:92    0
hydroph_interaction:ALA:92    0
Name: 22, dtype: object

>  <hbond:ARG:93>  (23) 
hbond:ARG:93    0
hbond:ARG:93    0
Name: 22, dtype: object

>  <pication:ARG:93>  (23) 
pication:ARG:93    0
pication:ARG:93    0
Name: 22, dtype: object

>  <saltbridge:ARG:93>  (23) 
saltbridge:ARG:93    0
saltbridge:ARG:93    0
Name: 22, dtype: object

>  <hydroph_interaction:ARG:93>  (23) 
hydroph_interaction:ARG:93    0
hydroph_interaction:ARG:93    0
Name: 22, dtype: object

>  <halogenbond:ARG:93>  (23) 
halogenbond:ARG:93    0
halogenbond:ARG:93    0
Name: 22, dtype: object

>  <hydroph_interaction:TYR:94>  (23) 
hydroph_interaction:TYR:94    0
hydroph_interaction:TYR:94    0
Name: 22, dtype: object

>  <hbond:TYR:94>  (23) 
hbond:TYR:94    0
hbond:TYR:94    0
Name: 22, dtype: object

>  <halogenbond:GLN:95>  (23) 
halogenbond:GLN:95    0
halogenbond:GLN:95    0
Name: 22, dtype: object

>  <hbond:GLN:95>  (23) 
hbond:GLN:95    0
hbond:GLN:95    0
Name: 22, dtype: object

>  <hydroph_interaction:GLN:95>  (23) 
hydroph_interaction:GLN:95    0
hydroph_interaction:GLN:95    0
Name: 22, dtype: object

>  <hbond:SER:96>  (23) 
hbond:SER:96    0
hbond:SER:96    0
Name: 22, dtype: object

>  <hydroph_interaction:LEU:98>  (23) 
hydroph_interaction:LEU:98    0
hydroph_interaction:LEU:98    0
Name: 22, dtype: object

>  <hbond:LEU:98>  (23) 
hbond:LEU:98    0
hbond:LEU:98    0
Name: 22, dtype: object

>  <hbond:MET:99>  (23) 
hbond:MET:99    0
hbond:MET:99    0
Name: 22, dtype: object

>  <hydroph_interaction:MET:99>  (23) 
hydroph_interaction:MET:99    0
hydroph_interaction:MET:99    0
Name: 22, dtype: object

>  <halogenbond:MET:99>  (23) 
halogenbond:MET:99    0
halogenbond:MET:99    0
Name: 22, dtype: object

>  <hydroph_interaction:LEU:100>  (23) 
hydroph_interaction:LEU:100    0
hydroph_interaction:LEU:100    0
Name: 22, dtype: object

>  <hbond:LEU:100>  (23) 
hbond:LEU:100    0
hbond:LEU:100    0
Name: 22, dtype: object

>  <hbond:ALA:101>  (23) 
hbond:ALA:101    0
hbond:ALA:101    0
Name: 22, dtype: object

>  <hydroph_interaction:ALA:101>  (23) 
hydroph_interaction:ALA:101    0
hydroph_interaction:ALA:101    0
Name: 22, dtype: object

>  <hydroph_interaction:VAL:102>  (23) 
hydroph_interaction:VAL:102    0
hydroph_interaction:VAL:102    0
Name: 22, dtype: object

>  <hbond:VAL:102>  (23) 
hbond:VAL:102    0
hbond:VAL:102    0
Name: 22, dtype: object

>  <hbond:GLY:103>  (23) 
hbond:GLY:103    0
hbond:GLY:103    0
Name: 22, dtype: object

>  <halogenbond:GLY:103>  (23) 
halogenbond:GLY:103    0
halogenbond:GLY:103    0
Name: 22, dtype: object

>  <hydroph_interaction:HIS:104>  (23) 
hydroph_interaction:HIS:104    0
hydroph_interaction:HIS:104    0
Name: 22, dtype: object

>  <hbond:HIS:104>  (23) 
hbond:HIS:104    0
hbond:HIS:104    0
Name: 22, dtype: object

>  <saltbridge:HIS:104>  (23) 
saltbridge:HIS:104    0
saltbridge:HIS:104    0
Name: 22, dtype: object

>  <pication:HIS:104>  (23) 
pication:HIS:104    0
pication:HIS:104    0
Name: 22, dtype: object

>  <pistack:HIS:104>  (23) 
pistack:HIS:104    0
pistack:HIS:104    0
Name: 22, dtype: object

>  <halogenbond:HIS:104>  (23) 
halogenbond:HIS:104    0
halogenbond:HIS:104    0
Name: 22, dtype: object

>  <hbond:SER:105>  (23) 
hbond:SER:105    0
hbond:SER:105    0
Name: 22, dtype: object

>  <halogenbond:SER:105>  (23) 
halogenbond:SER:105    0
halogenbond:SER:105    0
Name: 22, dtype: object

>  <hbond:GLU:106>  (23) 
hbond:GLU:106    0
hbond:GLU:106    0
Name: 22, dtype: object

>  <hydroph_interaction:GLU:106>  (23) 
hydroph_interaction:GLU:106    0
hydroph_interaction:GLU:106    0
Name: 22, dtype: object

>  <saltbridge:GLU:106>  (23) 
saltbridge:GLU:106    0
saltbridge:GLU:106    0
Name: 22, dtype: object

>  <halogenbond:GLU:106>  (23) 
halogenbond:GLU:106    0
halogenbond:GLU:106    0
Name: 22, dtype: object

>  <hydroph_interaction:PRO:107>  (23) 
hydroph_interaction:PRO:107    0
hydroph_interaction:PRO:107    0
Name: 22, dtype: object

>  <hbond:PRO:107>  (23) 
hbond:PRO:107    0
hbond:PRO:107    0
Name: 22, dtype: object

>  <halogenbond:PRO:107>  (23) 
halogenbond:PRO:107    0
halogenbond:PRO:107    0
Name: 22, dtype: object

>  <hbond:GLY:108>  (23) 
hbond:GLY:108    0
hbond:GLY:108    0
Name: 22, dtype: object

>  <halogenbond:GLY:108>  (23) 
halogenbond:GLY:108    0
halogenbond:GLY:108    0
Name: 22, dtype: object

>  <hbond:ASP:109>  (23) 
hbond:ASP:109    0
hbond:ASP:109    0
Name: 22, dtype: object

>  <hydroph_interaction:ASP:109>  (23) 
hydroph_interaction:ASP:109    0
hydroph_interaction:ASP:109    0
Name: 22, dtype: object

>  <saltbridge:ASP:109>  (23) 
saltbridge:ASP:109    0
saltbridge:ASP:109    0
Name: 22, dtype: object

>  <hbond:CYS:110>  (23) 
hbond:CYS:110    0
hbond:CYS:110    0
Name: 22, dtype: object

>  <halogenbond:CYS:110>  (23) 
halogenbond:CYS:110    0
halogenbond:CYS:110    0
Name: 22, dtype: object

>  <hbond:GLY:111>  (23) 
hbond:GLY:111    0
hbond:GLY:111    0
Name: 22, dtype: object

>  <hbond:GLY:112>  (23) 
hbond:GLY:112    0
hbond:GLY:112    0
Name: 22, dtype: object

>  <hbond:ILE:113>  (23) 
hbond:ILE:113    0
hbond:ILE:113    0
Name: 22, dtype: object

>  <hydroph_interaction:LEU:114>  (23) 
hydroph_interaction:LEU:114    0
hydroph_interaction:LEU:114    0
Name: 22, dtype: object

>  <hbond:LEU:114>  (23) 
hbond:LEU:114    0
hbond:LEU:114    0
Name: 22, dtype: object

>  <hydroph_interaction:ILE:123>  (23) 
hydroph_interaction:ILE:123    0
hydroph_interaction:ILE:123    0
Name: 22, dtype: object

>  <hbond:ILE:123>  (23) 
hbond:ILE:123    0
hbond:ILE:123    0
Name: 22, dtype: object

>  <hydroph_interaction:VAL:124>  (23) 
hydroph_interaction:VAL:124    1
hydroph_interaction:VAL:124    1
Name: 22, dtype: object

>  <hbond:VAL:124>  (23) 
hbond:VAL:124    0
hbond:VAL:124    0
Name: 22, dtype: object

>  <halogenbond:VAL:124>  (23) 
halogenbond:VAL:124    0
halogenbond:VAL:124    0
Name: 22, dtype: object

>  <hbond:SER:125>  (23) 
hbond:SER:125    0
hbond:SER:125    0
Name: 22, dtype: object

>  <halogenbond:SER:125>  (23) 
halogenbond:SER:125    0
halogenbond:SER:125    0
Name: 22, dtype: object

>  <hydroph_interaction:THR:126>  (23) 
hydroph_interaction:THR:126    0
hydroph_interaction:THR:126    0
Name: 22, dtype: object

>  <hbond:THR:126>  (23) 
hbond:THR:126    0
hbond:THR:126    0
Name: 22, dtype: object

>  <halogenbond:THR:126>  (23) 
halogenbond:THR:126    0
halogenbond:THR:126    0
Name: 22, dtype: object

>  <hbond:GLY:127>  (23) 
hbond:GLY:127    0
hbond:GLY:127    0
Name: 22, dtype: object

>  <halogenbond:GLY:127>  (23) 
halogenbond:GLY:127    0
halogenbond:GLY:127    0
Name: 22, dtype: object

>  <hydroph_interaction:GLY:127>  (23) 
hydroph_interaction:GLY:127    0
hydroph_interaction:GLY:127    0
Name: 22, dtype: object

>  <hbond:GLY:128>  (23) 
hbond:GLY:128    0
hbond:GLY:128    0
Name: 22, dtype: object

>  <halogenbond:GLY:128>  (23) 
halogenbond:GLY:128    0
halogenbond:GLY:128    0
Name: 22, dtype: object

>  <hydroph_interaction:GLY:128>  (23) 
hydroph_interaction:GLY:128    0
hydroph_interaction:GLY:128    0
Name: 22, dtype: object

>  <hbond:ASN:129>  (23) 
hbond:ASN:129    0
hbond:ASN:129    0
Name: 22, dtype: object

>  <hydroph_interaction:ASN:129>  (23) 
hydroph_interaction:ASN:129    0
hydroph_interaction:ASN:129    0
Name: 22, dtype: object

>  <halogenbond:ASN:129>  (23) 
halogenbond:ASN:129    0
halogenbond:ASN:129    0
Name: 22, dtype: object

>  <hbond:GLY:130>  (23) 
hbond:GLY:130    0
hbond:GLY:130    0
Name: 22, dtype: object

>  <hydroph_interaction:LEU:131>  (23) 
hydroph_interaction:LEU:131    0
hydroph_interaction:LEU:131    0
Name: 22, dtype: object

>  <hbond:LEU:131>  (23) 
hbond:LEU:131    0
hbond:LEU:131    0
Name: 22, dtype: object

>  <halogenbond:LEU:131>  (23) 
halogenbond:LEU:131    0
halogenbond:LEU:131    0
Name: 22, dtype: object

>  <hydroph_interaction:VAL:132>  (23) 
hydroph_interaction:VAL:132    0
hydroph_interaction:VAL:132    0
Name: 22, dtype: object

>  <hbond:VAL:132>  (23) 
hbond:VAL:132    0
hbond:VAL:132    0
Name: 22, dtype: object

>  <hbond:GLY:133>  (23) 
hbond:GLY:133    0
hbond:GLY:133    0
Name: 22, dtype: object

>  <halogenbond:GLY:133>  (23) 
halogenbond:GLY:133    0
halogenbond:GLY:133    0
Name: 22, dtype: object

>  <hydroph_interaction:PHE:134>  (23) 
hydroph_interaction:PHE:134    0
hydroph_interaction:PHE:134    0
Name: 22, dtype: object

>  <hbond:PHE:134>  (23) 
hbond:PHE:134    0
hbond:PHE:134    0
Name: 22, dtype: object

>  <pistack:PHE:134>  (23) 
pistack:PHE:134    0
pistack:PHE:134    0
Name: 22, dtype: object

>  <pication:PHE:134>  (23) 
pication:PHE:134    0
pication:PHE:134    0
Name: 22, dtype: object

>  <hydroph_interaction:ALA:135>  (23) 
hydroph_interaction:ALA:135    0
hydroph_interaction:ALA:135    0
Name: 22, dtype: object

>  <hbond:ALA:135>  (23) 
hbond:ALA:135    0
hbond:ALA:135    0
Name: 22, dtype: object

$$$$
PV_002777747718
     RDKit          3D

 27 28  0  0  0  0  0  0  0  0999 V2000
   12.1300   15.1870   21.9480 C   0  0  0  0  0  0  0  0  0  0  0  0
   11.4300   14.1460   22.7870 C   0  0  0  0  0  0  0  0  0  0  0  0
   11.9000   14.0990   24.1980 C   0  0  0  0  0  0  0  0  0  0  0  0
   10.4730   13.3170   22.3510 C   0  0  0  0  0  0  0  0  0  0  0  0
    9.7910   12.3120   23.0650 C   0  0  0  0  0  0  0  0  0  0  0  0
   10.1110   10.8620   22.8150 C   0  0  0  0  0  0  0  0  0  0  0  0
    9.3370    9.9370   23.6080 C   0  0  0  0  0  0  0  0  0  0  0  0
    8.3760   10.2720   24.5240 C   0  0  0  0  0  0  0  0  0  0  0  0
    8.1210   11.6100   24.7100 C   0  0  0  0  0  0  0  0  0  0  0  0
    8.8040   12.5920   24.0090 C   0  0  0  0  0  0  0  0  0  0  0  0
    8.3920   13.8560   24.3530 O   0  0  0  0  0  0  0  0  0  0  0  0
    7.1350   13.6310   25.0280 C   0  0  0  0  0  0  0  0  0  0  0  0
    7.1400   12.2300   25.6210 C   0  0  0  0  0  0  0  0  0  0  0  0
   12.4180   16.0530   22.5540 H   0  0  0  0  0  0  0  0  0  0  0  0
   13.0390   14.7580   21.5210 H   0  0  0  0  0  0  0  0  0  0  0  0
   11.4670   15.5100   21.1410 H   0  0  0  0  0  0  0  0  0  0  0  0
   12.3150   15.0580   24.5320 H   0  0  0  0  0  0  0  0  0  0  0  0
   12.7000   13.3530   24.2950 H   0  0  0  0  0  0  0  0  0  0  0  0
   11.0740   13.8350   24.8630 H   0  0  0  0  0  0  0  0  0  0  0  0
   10.1830   13.4270   21.3180 H   0  0  0  0  0  0  0  0  0  0  0  0
   10.8520   10.5260   22.1040 H   0  0  0  0  0  0  0  0  0  0  0  0
    9.6020    8.9060   23.3960 H   0  0  0  0  0  0  0  0  0  0  0  0
    7.8380    9.5180   25.0750 H   0  0  0  0  0  0  0  0  0  0  0  0
    6.3100   13.7620   24.3170 H   0  0  0  0  0  0  0  0  0  0  0  0
    7.0300   14.3940   25.8120 H   0  0  0  0  0  0  0  0  0  0  0  0
    6.1500   11.7680   25.5880 H   0  0  0  0  0  0  0  0  0  0  0  0
    7.5120   12.2430   26.6430 H   0  0  0  0  0  0  0  0  0  0  0  0
  1  2  1  0
  2  3  1  0
  2  4  2  3
  4  5  1  0
  5  6  2  0
  6  7  1  0
  7  8  2  0
  8  9  1  0
  9 10  2  0
 10 11  1  0
 11 12  1  0
 12 13  1  0
 10  5  1  0
 13  9  1  0
  1 14  1  0
  1 15  1  0
  1 16  1  0
  3 17  1  0
  3 18  1  0
  3 19  1  0
  4 20  1  0
  6 21  1  0
  7 22  1  0
  8 23  1  0
 12 24  1  0
 12 25  1  0
 13 26  1  0
 13 27  1  0
A    1
 C1 
A    2
 C2 
A    3
 C3 
A    4
 C4 
A    5
 C5 
A    6
 C6 
A    7
 C7 
A    8
 C8 
A    9
 C9 
A   10
 C10
A   11
 O1 
A   12
 C11
A   13
 C12
A   14
 H1 
A   15
 H2 
A   16
 H3 
A   17
 H4 
A   18
 H5 
A   19
 H6 
A   20
 H7 
A   21
 H8 
A   22
 H9 
A   23
 H10
A   24
 H11
A   25
 H12
A   26
 H13
A   27
 H14
M  END
>  <ref_pdb>  (24) 
x0310_0A

>  <ref_mols>  (24) 
x0554_0A,x0739_0A

>  <original SMILES>  (24) 
CC(C)=Cc1cccc2c1OCC2

>  <rationale>  (24) 
info hydroph_interaction:P107; 

>  <intxn_cluster>  (24) 
208

>  <intxn_cluster_rank>  (24) 
75

>  <N_interactions>  (24) 
2

>  <∆∆G>  (24) 
-9.349327

>  <$/mg>  (24) 
163.0

>  <comRMSD>  (24) 
0.747471

>  <N_rotatable_bonds>  (24) 
3

>  <hbond:SER:7>  (24) 
hbond:SER:7    0
hbond:SER:7    0
Name: 23, dtype: object

>  <halogenbond:SER:7>  (24) 
halogenbond:SER:7    0
halogenbond:SER:7    0
Name: 23, dtype: object

>  <hbond:GLY:8>  (24) 
hbond:GLY:8    0
hbond:GLY:8    0
Name: 23, dtype: object

>  <hydroph_interaction:ASN:19>  (24) 
hydroph_interaction:ASN:19    0
hydroph_interaction:ASN:19    0
Name: 23, dtype: object

>  <hbond:ASN:19>  (24) 
hbond:ASN:19    0
hbond:ASN:19    0
Name: 23, dtype: object

>  <halogenbond:ASN:19>  (24) 
halogenbond:ASN:19    0
halogenbond:ASN:19    0
Name: 23, dtype: object

>  <hbond:ARG:20>  (24) 
hbond:ARG:20    0
hbond:ARG:20    0
Name: 23, dtype: object

>  <hydroph_interaction:ARG:20>  (24) 
hydroph_interaction:ARG:20    0
hydroph_interaction:ARG:20    0
Name: 23, dtype: object

>  <saltbridge:ARG:20>  (24) 
saltbridge:ARG:20    0
saltbridge:ARG:20    0
Name: 23, dtype: object

>  <halogenbond:ARG:20>  (24) 
halogenbond:ARG:20    0
halogenbond:ARG:20    0
Name: 23, dtype: object

>  <pication:ARG:20>  (24) 
pication:ARG:20    0
pication:ARG:20    0
Name: 23, dtype: object

>  <hbond:HIS:21>  (24) 
hbond:HIS:21    0
hbond:HIS:21    0
Name: 23, dtype: object

>  <hydroph_interaction:HIS:21>  (24) 
hydroph_interaction:HIS:21    0
hydroph_interaction:HIS:21    0
Name: 23, dtype: object

>  <saltbridge:HIS:21>  (24) 
saltbridge:HIS:21    0
saltbridge:HIS:21    0
Name: 23, dtype: object

>  <pistack:HIS:21>  (24) 
pistack:HIS:21    0
pistack:HIS:21    0
Name: 23, dtype: object

>  <pication:HIS:21>  (24) 
pication:HIS:21    0
pication:HIS:21    0
Name: 23, dtype: object

>  <halogenbond:HIS:21>  (24) 
halogenbond:HIS:21    0
halogenbond:HIS:21    0
Name: 23, dtype: object

>  <hydroph_interaction:LEU:22>  (24) 
hydroph_interaction:LEU:22    0
hydroph_interaction:LEU:22    0
Name: 23, dtype: object

>  <hbond:LEU:22>  (24) 
hbond:LEU:22    0
hbond:LEU:22    0
Name: 23, dtype: object

>  <hydroph_interaction:TRP:28>  (24) 
hydroph_interaction:TRP:28    0
hydroph_interaction:TRP:28    0
Name: 23, dtype: object

>  <hbond:SER:36>  (24) 
hbond:SER:36    0
hbond:SER:36    0
Name: 23, dtype: object

>  <halogenbond:SER:36>  (24) 
halogenbond:SER:36    0
halogenbond:SER:36    0
Name: 23, dtype: object

>  <hbond:ARG:38>  (24) 
hbond:ARG:38    0
hbond:ARG:38    0
Name: 23, dtype: object

>  <halogenbond:ARG:38>  (24) 
halogenbond:ARG:38    0
halogenbond:ARG:38    0
Name: 23, dtype: object

>  <hbond:ASP:39>  (24) 
hbond:ASP:39    0
hbond:ASP:39    0
Name: 23, dtype: object

>  <saltbridge:ASP:39>  (24) 
saltbridge:ASP:39    0
saltbridge:ASP:39    0
Name: 23, dtype: object

>  <hydroph_interaction:ASP:39>  (24) 
hydroph_interaction:ASP:39    0
hydroph_interaction:ASP:39    0
Name: 23, dtype: object

>  <halogenbond:ASP:39>  (24) 
halogenbond:ASP:39    0
halogenbond:ASP:39    0
Name: 23, dtype: object

>  <hydroph_interaction:LEU:40>  (24) 
hydroph_interaction:LEU:40    0
hydroph_interaction:LEU:40    0
Name: 23, dtype: object

>  <hydroph_interaction:TYR:63>  (24) 
hydroph_interaction:TYR:63    0
hydroph_interaction:TYR:63    0
Name: 23, dtype: object

>  <pistack:TYR:63>  (24) 
pistack:TYR:63    0
pistack:TYR:63    0
Name: 23, dtype: object

>  <hbond:TYR:63>  (24) 
hbond:TYR:63    0
hbond:TYR:63    0
Name: 23, dtype: object

>  <hbond:TYR:64>  (24) 
hbond:TYR:64    0
hbond:TYR:64    0
Name: 23, dtype: object

>  <halogenbond:TYR:64>  (24) 
halogenbond:TYR:64    0
halogenbond:TYR:64    0
Name: 23, dtype: object

>  <hydroph_interaction:TYR:64>  (24) 
hydroph_interaction:TYR:64    0
hydroph_interaction:TYR:64    0
Name: 23, dtype: object

>  <hbond:CYS:65>  (24) 
hbond:CYS:65    0
hbond:CYS:65    0
Name: 23, dtype: object

>  <halogenbond:CYS:65>  (24) 
halogenbond:CYS:65    0
halogenbond:CYS:65    0
Name: 23, dtype: object

>  <hbond:SER:66>  (24) 
hbond:SER:66    0
hbond:SER:66    0
Name: 23, dtype: object

>  <hbond:SER:67>  (24) 
hbond:SER:67    0
hbond:SER:67    0
Name: 23, dtype: object

>  <halogenbond:SER:67>  (24) 
halogenbond:SER:67    0
halogenbond:SER:67    0
Name: 23, dtype: object

>  <hydroph_interaction:ARG:68>  (24) 
hydroph_interaction:ARG:68    0
hydroph_interaction:ARG:68    0
Name: 23, dtype: object

>  <hbond:ARG:68>  (24) 
hbond:ARG:68    0
hbond:ARG:68    0
Name: 23, dtype: object

>  <saltbridge:ARG:68>  (24) 
saltbridge:ARG:68    0
saltbridge:ARG:68    0
Name: 23, dtype: object

>  <pication:ARG:68>  (24) 
pication:ARG:68    0
pication:ARG:68    0
Name: 23, dtype: object

>  <hydroph_interaction:TYR:72>  (24) 
hydroph_interaction:TYR:72    0
hydroph_interaction:TYR:72    0
Name: 23, dtype: object

>  <hydroph_interaction:VAL:74>  (24) 
hydroph_interaction:VAL:74    0
hydroph_interaction:VAL:74    0
Name: 23, dtype: object

>  <hydroph_interaction:PHE:76>  (24) 
hydroph_interaction:PHE:76    0
hydroph_interaction:PHE:76    0
Name: 23, dtype: object

>  <hbond:SER:77>  (24) 
hbond:SER:77    0
hbond:SER:77    0
Name: 23, dtype: object

>  <hbond:SER:80>  (24) 
hbond:SER:80    0
hbond:SER:80    0
Name: 23, dtype: object

>  <hbond:LEU:81>  (24) 
hbond:LEU:81    0
hbond:LEU:81    0
Name: 23, dtype: object

>  <halogenbond:LEU:81>  (24) 
halogenbond:LEU:81    0
halogenbond:LEU:81    0
Name: 23, dtype: object

>  <hydroph_interaction:LEU:81>  (24) 
hydroph_interaction:LEU:81    0
hydroph_interaction:LEU:81    0
Name: 23, dtype: object

>  <hydroph_interaction:ILE:82>  (24) 
hydroph_interaction:ILE:82    0
hydroph_interaction:ILE:82    0
Name: 23, dtype: object

>  <hbond:ILE:82>  (24) 
hbond:ILE:82    0
hbond:ILE:82    0
Name: 23, dtype: object

>  <hydroph_interaction:PHE:83>  (24) 
hydroph_interaction:PHE:83    0
hydroph_interaction:PHE:83    0
Name: 23, dtype: object

>  <hbond:PHE:83>  (24) 
hbond:PHE:83    0
hbond:PHE:83    0
Name: 23, dtype: object

>  <halogenbond:PHE:83>  (24) 
halogenbond:PHE:83    0
halogenbond:PHE:83    0
Name: 23, dtype: object

>  <pistack:PHE:83>  (24) 
pistack:PHE:83    0
pistack:PHE:83    0
Name: 23, dtype: object

>  <hydroph_interaction:VAL:84>  (24) 
hydroph_interaction:VAL:84    0
hydroph_interaction:VAL:84    0
Name: 23, dtype: object

>  <hbond:VAL:84>  (24) 
hbond:VAL:84    0
hbond:VAL:84    0
Name: 23, dtype: object

>  <halogenbond:VAL:84>  (24) 
halogenbond:VAL:84    0
halogenbond:VAL:84    0
Name: 23, dtype: object

>  <hydroph_interaction:GLU:85>  (24) 
hydroph_interaction:GLU:85    0
hydroph_interaction:GLU:85    0
Name: 23, dtype: object

>  <hbond:GLU:85>  (24) 
hbond:GLU:85    0
hbond:GLU:85    0
Name: 23, dtype: object

>  <saltbridge:GLU:85>  (24) 
saltbridge:GLU:85    0
saltbridge:GLU:85    0
Name: 23, dtype: object

>  <halogenbond:GLU:85>  (24) 
halogenbond:GLU:85    0
halogenbond:GLU:85    0
Name: 23, dtype: object

>  <hbond:ALA:86>  (24) 
hbond:ALA:86    0
hbond:ALA:86    0
Name: 23, dtype: object

>  <halogenbond:ALA:86>  (24) 
halogenbond:ALA:86    0
halogenbond:ALA:86    0
Name: 23, dtype: object

>  <hydroph_interaction:ALA:86>  (24) 
hydroph_interaction:ALA:86    0
hydroph_interaction:ALA:86    0
Name: 23, dtype: object

>  <hbond:SER:87>  (24) 
hbond:SER:87    0
hbond:SER:87    0
Name: 23, dtype: object

>  <halogenbond:SER:87>  (24) 
halogenbond:SER:87    0
halogenbond:SER:87    0
Name: 23, dtype: object

>  <hbond:GLU:88>  (24) 
hbond:GLU:88    0
hbond:GLU:88    0
Name: 23, dtype: object

>  <hydroph_interaction:GLU:88>  (24) 
hydroph_interaction:GLU:88    0
hydroph_interaction:GLU:88    0
Name: 23, dtype: object

>  <halogenbond:GLU:88>  (24) 
halogenbond:GLU:88    0
halogenbond:GLU:88    0
Name: 23, dtype: object

>  <saltbridge:GLU:88>  (24) 
saltbridge:GLU:88    0
saltbridge:GLU:88    0
Name: 23, dtype: object

>  <hydroph_interaction:TYR:89>  (24) 
hydroph_interaction:TYR:89    0
hydroph_interaction:TYR:89    0
Name: 23, dtype: object

>  <pistack:TYR:89>  (24) 
pistack:TYR:89    0
pistack:TYR:89    0
Name: 23, dtype: object

>  <hbond:TYR:89>  (24) 
hbond:TYR:89    0
hbond:TYR:89    0
Name: 23, dtype: object

>  <halogenbond:TYR:89>  (24) 
halogenbond:TYR:89    0
halogenbond:TYR:89    0
Name: 23, dtype: object

>  <hbond:TYR:90>  (24) 
hbond:TYR:90    0
hbond:TYR:90    0
Name: 23, dtype: object

>  <hydroph_interaction:TYR:90>  (24) 
hydroph_interaction:TYR:90    0
hydroph_interaction:TYR:90    0
Name: 23, dtype: object

>  <pistack:TYR:90>  (24) 
pistack:TYR:90    0
pistack:TYR:90    0
Name: 23, dtype: object

>  <halogenbond:TYR:90>  (24) 
halogenbond:TYR:90    0
halogenbond:TYR:90    0
Name: 23, dtype: object

>  <pication:TYR:90>  (24) 
pication:TYR:90    0
pication:TYR:90    0
Name: 23, dtype: object

>  <hydroph_interaction:PRO:91>  (24) 
hydroph_interaction:PRO:91    0
hydroph_interaction:PRO:91    0
Name: 23, dtype: object

>  <halogenbond:PRO:91>  (24) 
halogenbond:PRO:91    0
halogenbond:PRO:91    0
Name: 23, dtype: object

>  <hbond:PRO:91>  (24) 
hbond:PRO:91    0
hbond:PRO:91    0
Name: 23, dtype: object

>  <hydroph_interaction:ALA:92>  (24) 
hydroph_interaction:ALA:92    0
hydroph_interaction:ALA:92    0
Name: 23, dtype: object

>  <hbond:ARG:93>  (24) 
hbond:ARG:93    0
hbond:ARG:93    0
Name: 23, dtype: object

>  <pication:ARG:93>  (24) 
pication:ARG:93    0
pication:ARG:93    0
Name: 23, dtype: object

>  <saltbridge:ARG:93>  (24) 
saltbridge:ARG:93    0
saltbridge:ARG:93    0
Name: 23, dtype: object

>  <hydroph_interaction:ARG:93>  (24) 
hydroph_interaction:ARG:93    0
hydroph_interaction:ARG:93    0
Name: 23, dtype: object

>  <halogenbond:ARG:93>  (24) 
halogenbond:ARG:93    0
halogenbond:ARG:93    0
Name: 23, dtype: object

>  <hydroph_interaction:TYR:94>  (24) 
hydroph_interaction:TYR:94    0
hydroph_interaction:TYR:94    0
Name: 23, dtype: object

>  <hbond:TYR:94>  (24) 
hbond:TYR:94    0
hbond:TYR:94    0
Name: 23, dtype: object

>  <halogenbond:GLN:95>  (24) 
halogenbond:GLN:95    0
halogenbond:GLN:95    0
Name: 23, dtype: object

>  <hbond:GLN:95>  (24) 
hbond:GLN:95    0
hbond:GLN:95    0
Name: 23, dtype: object

>  <hydroph_interaction:GLN:95>  (24) 
hydroph_interaction:GLN:95    0
hydroph_interaction:GLN:95    0
Name: 23, dtype: object

>  <hbond:SER:96>  (24) 
hbond:SER:96    0
hbond:SER:96    0
Name: 23, dtype: object

>  <hydroph_interaction:LEU:98>  (24) 
hydroph_interaction:LEU:98    0
hydroph_interaction:LEU:98    0
Name: 23, dtype: object

>  <hbond:LEU:98>  (24) 
hbond:LEU:98    0
hbond:LEU:98    0
Name: 23, dtype: object

>  <hbond:MET:99>  (24) 
hbond:MET:99    0
hbond:MET:99    0
Name: 23, dtype: object

>  <hydroph_interaction:MET:99>  (24) 
hydroph_interaction:MET:99    0
hydroph_interaction:MET:99    0
Name: 23, dtype: object

>  <halogenbond:MET:99>  (24) 
halogenbond:MET:99    0
halogenbond:MET:99    0
Name: 23, dtype: object

>  <hydroph_interaction:LEU:100>  (24) 
hydroph_interaction:LEU:100    0
hydroph_interaction:LEU:100    0
Name: 23, dtype: object

>  <hbond:LEU:100>  (24) 
hbond:LEU:100    0
hbond:LEU:100    0
Name: 23, dtype: object

>  <hbond:ALA:101>  (24) 
hbond:ALA:101    0
hbond:ALA:101    0
Name: 23, dtype: object

>  <hydroph_interaction:ALA:101>  (24) 
hydroph_interaction:ALA:101    0
hydroph_interaction:ALA:101    0
Name: 23, dtype: object

>  <hydroph_interaction:VAL:102>  (24) 
hydroph_interaction:VAL:102    0
hydroph_interaction:VAL:102    0
Name: 23, dtype: object

>  <hbond:VAL:102>  (24) 
hbond:VAL:102    0
hbond:VAL:102    0
Name: 23, dtype: object

>  <hbond:GLY:103>  (24) 
hbond:GLY:103    0
hbond:GLY:103    0
Name: 23, dtype: object

>  <halogenbond:GLY:103>  (24) 
halogenbond:GLY:103    0
halogenbond:GLY:103    0
Name: 23, dtype: object

>  <hydroph_interaction:HIS:104>  (24) 
hydroph_interaction:HIS:104    0
hydroph_interaction:HIS:104    0
Name: 23, dtype: object

>  <hbond:HIS:104>  (24) 
hbond:HIS:104    0
hbond:HIS:104    0
Name: 23, dtype: object

>  <saltbridge:HIS:104>  (24) 
saltbridge:HIS:104    0
saltbridge:HIS:104    0
Name: 23, dtype: object

>  <pication:HIS:104>  (24) 
pication:HIS:104    0
pication:HIS:104    0
Name: 23, dtype: object

>  <pistack:HIS:104>  (24) 
pistack:HIS:104    0
pistack:HIS:104    0
Name: 23, dtype: object

>  <halogenbond:HIS:104>  (24) 
halogenbond:HIS:104    0
halogenbond:HIS:104    0
Name: 23, dtype: object

>  <hbond:SER:105>  (24) 
hbond:SER:105    0
hbond:SER:105    0
Name: 23, dtype: object

>  <halogenbond:SER:105>  (24) 
halogenbond:SER:105    0
halogenbond:SER:105    0
Name: 23, dtype: object

>  <hbond:GLU:106>  (24) 
hbond:GLU:106    0
hbond:GLU:106    0
Name: 23, dtype: object

>  <hydroph_interaction:GLU:106>  (24) 
hydroph_interaction:GLU:106    0
hydroph_interaction:GLU:106    0
Name: 23, dtype: object

>  <saltbridge:GLU:106>  (24) 
saltbridge:GLU:106    0
saltbridge:GLU:106    0
Name: 23, dtype: object

>  <halogenbond:GLU:106>  (24) 
halogenbond:GLU:106    0
halogenbond:GLU:106    0
Name: 23, dtype: object

>  <hydroph_interaction:PRO:107>  (24) 
hydroph_interaction:PRO:107    2
hydroph_interaction:PRO:107    2
Name: 23, dtype: object

>  <hbond:PRO:107>  (24) 
hbond:PRO:107    0
hbond:PRO:107    0
Name: 23, dtype: object

>  <halogenbond:PRO:107>  (24) 
halogenbond:PRO:107    0
halogenbond:PRO:107    0
Name: 23, dtype: object

>  <hbond:GLY:108>  (24) 
hbond:GLY:108    0
hbond:GLY:108    0
Name: 23, dtype: object

>  <halogenbond:GLY:108>  (24) 
halogenbond:GLY:108    0
halogenbond:GLY:108    0
Name: 23, dtype: object

>  <hbond:ASP:109>  (24) 
hbond:ASP:109    0
hbond:ASP:109    0
Name: 23, dtype: object

>  <hydroph_interaction:ASP:109>  (24) 
hydroph_interaction:ASP:109    0
hydroph_interaction:ASP:109    0
Name: 23, dtype: object

>  <saltbridge:ASP:109>  (24) 
saltbridge:ASP:109    0
saltbridge:ASP:109    0
Name: 23, dtype: object

>  <hbond:CYS:110>  (24) 
hbond:CYS:110    0
hbond:CYS:110    0
Name: 23, dtype: object

>  <halogenbond:CYS:110>  (24) 
halogenbond:CYS:110    0
halogenbond:CYS:110    0
Name: 23, dtype: object

>  <hbond:GLY:111>  (24) 
hbond:GLY:111    0
hbond:GLY:111    0
Name: 23, dtype: object

>  <hbond:GLY:112>  (24) 
hbond:GLY:112    0
hbond:GLY:112    0
Name: 23, dtype: object

>  <hbond:ILE:113>  (24) 
hbond:ILE:113    0
hbond:ILE:113    0
Name: 23, dtype: object

>  <hydroph_interaction:LEU:114>  (24) 
hydroph_interaction:LEU:114    0
hydroph_interaction:LEU:114    0
Name: 23, dtype: object

>  <hbond:LEU:114>  (24) 
hbond:LEU:114    0
hbond:LEU:114    0
Name: 23, dtype: object

>  <hydroph_interaction:ILE:123>  (24) 
hydroph_interaction:ILE:123    0
hydroph_interaction:ILE:123    0
Name: 23, dtype: object

>  <hbond:ILE:123>  (24) 
hbond:ILE:123    0
hbond:ILE:123    0
Name: 23, dtype: object

>  <hydroph_interaction:VAL:124>  (24) 
hydroph_interaction:VAL:124    0
hydroph_interaction:VAL:124    0
Name: 23, dtype: object

>  <hbond:VAL:124>  (24) 
hbond:VAL:124    0
hbond:VAL:124    0
Name: 23, dtype: object

>  <halogenbond:VAL:124>  (24) 
halogenbond:VAL:124    0
halogenbond:VAL:124    0
Name: 23, dtype: object

>  <hbond:SER:125>  (24) 
hbond:SER:125    0
hbond:SER:125    0
Name: 23, dtype: object

>  <halogenbond:SER:125>  (24) 
halogenbond:SER:125    0
halogenbond:SER:125    0
Name: 23, dtype: object

>  <hydroph_interaction:THR:126>  (24) 
hydroph_interaction:THR:126    0
hydroph_interaction:THR:126    0
Name: 23, dtype: object

>  <hbond:THR:126>  (24) 
hbond:THR:126    0
hbond:THR:126    0
Name: 23, dtype: object

>  <halogenbond:THR:126>  (24) 
halogenbond:THR:126    0
halogenbond:THR:126    0
Name: 23, dtype: object

>  <hbond:GLY:127>  (24) 
hbond:GLY:127    0
hbond:GLY:127    0
Name: 23, dtype: object

>  <halogenbond:GLY:127>  (24) 
halogenbond:GLY:127    0
halogenbond:GLY:127    0
Name: 23, dtype: object

>  <hydroph_interaction:GLY:127>  (24) 
hydroph_interaction:GLY:127    0
hydroph_interaction:GLY:127    0
Name: 23, dtype: object

>  <hbond:GLY:128>  (24) 
hbond:GLY:128    0
hbond:GLY:128    0
Name: 23, dtype: object

>  <halogenbond:GLY:128>  (24) 
halogenbond:GLY:128    0
halogenbond:GLY:128    0
Name: 23, dtype: object

>  <hydroph_interaction:GLY:128>  (24) 
hydroph_interaction:GLY:128    0
hydroph_interaction:GLY:128    0
Name: 23, dtype: object

>  <hbond:ASN:129>  (24) 
hbond:ASN:129    0
hbond:ASN:129    0
Name: 23, dtype: object

>  <hydroph_interaction:ASN:129>  (24) 
hydroph_interaction:ASN:129    0
hydroph_interaction:ASN:129    0
Name: 23, dtype: object

>  <halogenbond:ASN:129>  (24) 
halogenbond:ASN:129    0
halogenbond:ASN:129    0
Name: 23, dtype: object

>  <hbond:GLY:130>  (24) 
hbond:GLY:130    0
hbond:GLY:130    0
Name: 23, dtype: object

>  <hydroph_interaction:LEU:131>  (24) 
hydroph_interaction:LEU:131    0
hydroph_interaction:LEU:131    0
Name: 23, dtype: object

>  <hbond:LEU:131>  (24) 
hbond:LEU:131    0
hbond:LEU:131    0
Name: 23, dtype: object

>  <halogenbond:LEU:131>  (24) 
halogenbond:LEU:131    0
halogenbond:LEU:131    0
Name: 23, dtype: object

>  <hydroph_interaction:VAL:132>  (24) 
hydroph_interaction:VAL:132    0
hydroph_interaction:VAL:132    0
Name: 23, dtype: object

>  <hbond:VAL:132>  (24) 
hbond:VAL:132    0
hbond:VAL:132    0
Name: 23, dtype: object

>  <hbond:GLY:133>  (24) 
hbond:GLY:133    0
hbond:GLY:133    0
Name: 23, dtype: object

>  <halogenbond:GLY:133>  (24) 
halogenbond:GLY:133    0
halogenbond:GLY:133    0
Name: 23, dtype: object

>  <hydroph_interaction:PHE:134>  (24) 
hydroph_interaction:PHE:134    0
hydroph_interaction:PHE:134    0
Name: 23, dtype: object

>  <hbond:PHE:134>  (24) 
hbond:PHE:134    0
hbond:PHE:134    0
Name: 23, dtype: object

>  <pistack:PHE:134>  (24) 
pistack:PHE:134    0
pistack:PHE:134    0
Name: 23, dtype: object

>  <pication:PHE:134>  (24) 
pication:PHE:134    0
pication:PHE:134    0
Name: 23, dtype: object

>  <hydroph_interaction:ALA:135>  (24) 
hydroph_interaction:ALA:135    0
hydroph_interaction:ALA:135    0
Name: 23, dtype: object

>  <hbond:ALA:135>  (24) 
hbond:ALA:135    0
hbond:ALA:135    0
Name: 23, dtype: object

$$$$
Z1368610414
     RDKit          3D

 39 41  0  0  0  0  0  0  0  0999 V2000
   13.2220   16.3270   20.6100 C   0  0  0  0  0  0  0  0  0  0  0  0
   12.3000   16.0570   21.7160 C   0  0  0  0  0  0  0  0  0  0  0  0
   13.0340   15.2470   22.7770 C   0  0  0  0  0  0  0  0  0  0  0  0
   12.5510   13.8680   22.4670 C   0  0  0  0  0  0  0  0  0  0  0  0
   11.1580   14.1230   22.3230 N   0  0  0  0  0  0  0  0  0  0  0  0
   10.4880   13.9600   23.5020 C   0  0  0  0  0  0  0  0  0  0  0  0
   10.4950   14.7740   24.4180 O   0  0  0  0  0  0  0  0  0  0  0  0
    9.8210   12.6880   23.6810 C   0  0  0  0  0  0  0  0  0  0  0  0
   10.2140   11.5640   23.0230 C   0  0  0  0  0  0  0  0  0  0  0  0
    9.4290   10.5570   23.4250 N   0  0  0  0  0  0  0  0  0  0  0  0
    9.5890    9.2200   22.9280 C   0  0  0  0  0  0  0  0  0  0  0  0
    8.5050   11.0210   24.3440 C   0  0  0  0  0  0  0  0  0  0  0  0
    7.5020   10.4020   25.0410 C   0  0  0  0  0  0  0  0  0  0  0  0
    6.6900   11.1090   25.9180 C   0  0  0  0  0  0  0  0  0  0  0  0
    6.8870   12.4770   26.1040 C   0  0  0  0  0  0  0  0  0  0  0  0
    7.9200   13.1120   25.3950 C   0  0  0  0  0  0  0  0  0  0  0  0
    8.7310   12.3690   24.5110 C   0  0  0  0  0  0  0  0  0  0  0  0
   11.0410   15.2270   21.3820 C   0  0  0  0  0  0  0  0  0  0  0  0
   10.8650   14.8150   19.9450 C   0  0  0  0  0  0  0  0  0  0  0  0
   13.2420   17.3970   20.4370 H   0  0  0  0  0  0  0  0  0  0  0  0
   12.9010   15.7870   19.7180 H   0  0  0  0  0  0  0  0  0  0  0  0
   14.2230   16.0000   20.8620 H   0  0  0  0  0  0  0  0  0  0  0  0
   11.9940   17.0160   22.1590 H   0  0  0  0  0  0  0  0  0  0  0  0
   14.1120   15.3170   22.6810 H   0  0  0  0  0  0  0  0  0  0  0  0
   12.7260   15.5400   23.7830 H   0  0  0  0  0  0  0  0  0  0  0  0
   12.7010   13.1750   23.3020 H   0  0  0  0  0  0  0  0  0  0  0  0
   12.9820   13.4540   21.5520 H   0  0  0  0  0  0  0  0  0  0  0  0
   11.0080   11.4190   22.3010 H   0  0  0  0  0  0  0  0  0  0  0  0
    8.6270    8.7320   22.9750 H   0  0  0  0  0  0  0  0  0  0  0  0
    9.9400    9.2490   21.8930 H   0  0  0  0  0  0  0  0  0  0  0  0
   10.3250    8.7060   23.5340 H   0  0  0  0  0  0  0  0  0  0  0  0
    7.3530    9.3530   24.8920 H   0  0  0  0  0  0  0  0  0  0  0  0
    5.9000   10.5940   26.4570 H   0  0  0  0  0  0  0  0  0  0  0  0
    6.2500   13.0280   26.7890 H   0  0  0  0  0  0  0  0  0  0  0  0
    8.0930   14.1760   25.5300 H   0  0  0  0  0  0  0  0  0  0  0  0
   10.1580   15.7590   21.5790 H   0  0  0  0  0  0  0  0  0  0  0  0
   10.5360   15.6450   19.3180 H   0  0  0  0  0  0  0  0  0  0  0  0
   10.1110   14.0360   19.8780 H   0  0  0  0  0  0  0  0  0  0  0  0
   11.7910   14.4170   19.5130 H   0  0  0  0  0  0  0  0  0  0  0  0
  1  2  1  0
  2  3  1  0
  3  4  1  0
  4  5  1  0
  5  6  1  0
  6  7  2  0
  6  8  1  0
  8  9  2  0
  9 10  1  0
 10 11  1  0
 10 12  1  0
 12 13  2  0
 13 14  1  0
 14 15  2  0
 15 16  1  0
 16 17  2  0
  5 18  1  0
 18 19  1  0
 18  2  1  0
 17  8  1  0
 17 12  1  0
  1 20  1  0
  1 21  1  0
  1 22  1  0
  2 23  1  0
  3 24  1  0
  3 25  1  0
  4 26  1  0
  4 27  1  0
  9 28  1  0
 11 29  1  0
 11 30  1  0
 11 31  1  0
 13 32  1  0
 14 33  1  0
 15 34  1  0
 16 35  1  0
 18 36  1  0
 19 37  1  0
 19 38  1  0
 19 39  1  0
A    1
 C1 
A    2
 C2 
A    3
 C3 
A    4
 C4 
A    5
 N1 
A    6
 C5 
A    7
 O1 
A    8
 C6 
A    9
 C7 
A   10
 N2 
A   11
 C8 
A   12
 C9 
A   13
 C10
A   14
 C11
A   15
 C12
A   16
 C13
A   17
 C14
A   18
 C15
A   19
 C16
A   20
 H1 
A   21
 H2 
A   22
 H3 
A   23
 H4 
A   24
 H5 
A   25
 H6 
A   26
 H7 
A   27
 H8 
A   28
 H9 
A   29
 H10
A   30
 H11
A   31
 H12
A   32
 H13
A   33
 H14
A   34
 H15
A   35
 H16
A   36
 H17
A   37
 H18
A   38
 H19
A   39
 H20
M  END
>  <ref_pdb>  (25) 
x0310_0A

>  <ref_mols>  (25) 
x0451_0A,x0528_0A

>  <original SMILES>  (25) 
CC1CCN(C(=O)c2cn(C)c3ccccc23)C1C

>  <rationale>  (25) 
info hbond:E88; hydroph_interaction:P107+Y89; 

>  <intxn_cluster>  (25) 
208

>  <intxn_cluster_rank>  (25) 
78

>  <N_interactions>  (25) 
4

>  <∆∆G>  (25) 
-10.569089

>  <$/mg>  (25) 
163.0

>  <comRMSD>  (25) 
0.746595

>  <N_rotatable_bonds>  (25) 
4

>  <hbond:SER:7>  (25) 
hbond:SER:7    0
hbond:SER:7    0
Name: 24, dtype: object

>  <halogenbond:SER:7>  (25) 
halogenbond:SER:7    0
halogenbond:SER:7    0
Name: 24, dtype: object

>  <hbond:GLY:8>  (25) 
hbond:GLY:8    0
hbond:GLY:8    0
Name: 24, dtype: object

>  <hydroph_interaction:ASN:19>  (25) 
hydroph_interaction:ASN:19    0
hydroph_interaction:ASN:19    0
Name: 24, dtype: object

>  <hbond:ASN:19>  (25) 
hbond:ASN:19    0
hbond:ASN:19    0
Name: 24, dtype: object

>  <halogenbond:ASN:19>  (25) 
halogenbond:ASN:19    0
halogenbond:ASN:19    0
Name: 24, dtype: object

>  <hbond:ARG:20>  (25) 
hbond:ARG:20    0
hbond:ARG:20    0
Name: 24, dtype: object

>  <hydroph_interaction:ARG:20>  (25) 
hydroph_interaction:ARG:20    0
hydroph_interaction:ARG:20    0
Name: 24, dtype: object

>  <saltbridge:ARG:20>  (25) 
saltbridge:ARG:20    0
saltbridge:ARG:20    0
Name: 24, dtype: object

>  <halogenbond:ARG:20>  (25) 
halogenbond:ARG:20    0
halogenbond:ARG:20    0
Name: 24, dtype: object

>  <pication:ARG:20>  (25) 
pication:ARG:20    0
pication:ARG:20    0
Name: 24, dtype: object

>  <hbond:HIS:21>  (25) 
hbond:HIS:21    0
hbond:HIS:21    0
Name: 24, dtype: object

>  <hydroph_interaction:HIS:21>  (25) 
hydroph_interaction:HIS:21    0
hydroph_interaction:HIS:21    0
Name: 24, dtype: object

>  <saltbridge:HIS:21>  (25) 
saltbridge:HIS:21    0
saltbridge:HIS:21    0
Name: 24, dtype: object

>  <pistack:HIS:21>  (25) 
pistack:HIS:21    0
pistack:HIS:21    0
Name: 24, dtype: object

>  <pication:HIS:21>  (25) 
pication:HIS:21    0
pication:HIS:21    0
Name: 24, dtype: object

>  <halogenbond:HIS:21>  (25) 
halogenbond:HIS:21    0
halogenbond:HIS:21    0
Name: 24, dtype: object

>  <hydroph_interaction:LEU:22>  (25) 
hydroph_interaction:LEU:22    0
hydroph_interaction:LEU:22    0
Name: 24, dtype: object

>  <hbond:LEU:22>  (25) 
hbond:LEU:22    0
hbond:LEU:22    0
Name: 24, dtype: object

>  <hydroph_interaction:TRP:28>  (25) 
hydroph_interaction:TRP:28    0
hydroph_interaction:TRP:28    0
Name: 24, dtype: object

>  <hbond:SER:36>  (25) 
hbond:SER:36    0
hbond:SER:36    0
Name: 24, dtype: object

>  <halogenbond:SER:36>  (25) 
halogenbond:SER:36    0
halogenbond:SER:36    0
Name: 24, dtype: object

>  <hbond:ARG:38>  (25) 
hbond:ARG:38    0
hbond:ARG:38    0
Name: 24, dtype: object

>  <halogenbond:ARG:38>  (25) 
halogenbond:ARG:38    0
halogenbond:ARG:38    0
Name: 24, dtype: object

>  <hbond:ASP:39>  (25) 
hbond:ASP:39    0
hbond:ASP:39    0
Name: 24, dtype: object

>  <saltbridge:ASP:39>  (25) 
saltbridge:ASP:39    0
saltbridge:ASP:39    0
Name: 24, dtype: object

>  <hydroph_interaction:ASP:39>  (25) 
hydroph_interaction:ASP:39    0
hydroph_interaction:ASP:39    0
Name: 24, dtype: object

>  <halogenbond:ASP:39>  (25) 
halogenbond:ASP:39    0
halogenbond:ASP:39    0
Name: 24, dtype: object

>  <hydroph_interaction:LEU:40>  (25) 
hydroph_interaction:LEU:40    0
hydroph_interaction:LEU:40    0
Name: 24, dtype: object

>  <hydroph_interaction:TYR:63>  (25) 
hydroph_interaction:TYR:63    0
hydroph_interaction:TYR:63    0
Name: 24, dtype: object

>  <pistack:TYR:63>  (25) 
pistack:TYR:63    0
pistack:TYR:63    0
Name: 24, dtype: object

>  <hbond:TYR:63>  (25) 
hbond:TYR:63    0
hbond:TYR:63    0
Name: 24, dtype: object

>  <hbond:TYR:64>  (25) 
hbond:TYR:64    0
hbond:TYR:64    0
Name: 24, dtype: object

>  <halogenbond:TYR:64>  (25) 
halogenbond:TYR:64    0
halogenbond:TYR:64    0
Name: 24, dtype: object

>  <hydroph_interaction:TYR:64>  (25) 
hydroph_interaction:TYR:64    0
hydroph_interaction:TYR:64    0
Name: 24, dtype: object

>  <hbond:CYS:65>  (25) 
hbond:CYS:65    0
hbond:CYS:65    0
Name: 24, dtype: object

>  <halogenbond:CYS:65>  (25) 
halogenbond:CYS:65    0
halogenbond:CYS:65    0
Name: 24, dtype: object

>  <hbond:SER:66>  (25) 
hbond:SER:66    0
hbond:SER:66    0
Name: 24, dtype: object

>  <hbond:SER:67>  (25) 
hbond:SER:67    0
hbond:SER:67    0
Name: 24, dtype: object

>  <halogenbond:SER:67>  (25) 
halogenbond:SER:67    0
halogenbond:SER:67    0
Name: 24, dtype: object

>  <hydroph_interaction:ARG:68>  (25) 
hydroph_interaction:ARG:68    0
hydroph_interaction:ARG:68    0
Name: 24, dtype: object

>  <hbond:ARG:68>  (25) 
hbond:ARG:68    0
hbond:ARG:68    0
Name: 24, dtype: object

>  <saltbridge:ARG:68>  (25) 
saltbridge:ARG:68    0
saltbridge:ARG:68    0
Name: 24, dtype: object

>  <pication:ARG:68>  (25) 
pication:ARG:68    0
pication:ARG:68    0
Name: 24, dtype: object

>  <hydroph_interaction:TYR:72>  (25) 
hydroph_interaction:TYR:72    0
hydroph_interaction:TYR:72    0
Name: 24, dtype: object

>  <hydroph_interaction:VAL:74>  (25) 
hydroph_interaction:VAL:74    0
hydroph_interaction:VAL:74    0
Name: 24, dtype: object

>  <hydroph_interaction:PHE:76>  (25) 
hydroph_interaction:PHE:76    0
hydroph_interaction:PHE:76    0
Name: 24, dtype: object

>  <hbond:SER:77>  (25) 
hbond:SER:77    0
hbond:SER:77    0
Name: 24, dtype: object

>  <hbond:SER:80>  (25) 
hbond:SER:80    0
hbond:SER:80    0
Name: 24, dtype: object

>  <hbond:LEU:81>  (25) 
hbond:LEU:81    0
hbond:LEU:81    0
Name: 24, dtype: object

>  <halogenbond:LEU:81>  (25) 
halogenbond:LEU:81    0
halogenbond:LEU:81    0
Name: 24, dtype: object

>  <hydroph_interaction:LEU:81>  (25) 
hydroph_interaction:LEU:81    0
hydroph_interaction:LEU:81    0
Name: 24, dtype: object

>  <hydroph_interaction:ILE:82>  (25) 
hydroph_interaction:ILE:82    0
hydroph_interaction:ILE:82    0
Name: 24, dtype: object

>  <hbond:ILE:82>  (25) 
hbond:ILE:82    0
hbond:ILE:82    0
Name: 24, dtype: object

>  <hydroph_interaction:PHE:83>  (25) 
hydroph_interaction:PHE:83    0
hydroph_interaction:PHE:83    0
Name: 24, dtype: object

>  <hbond:PHE:83>  (25) 
hbond:PHE:83    0
hbond:PHE:83    0
Name: 24, dtype: object

>  <halogenbond:PHE:83>  (25) 
halogenbond:PHE:83    0
halogenbond:PHE:83    0
Name: 24, dtype: object

>  <pistack:PHE:83>  (25) 
pistack:PHE:83    0
pistack:PHE:83    0
Name: 24, dtype: object

>  <hydroph_interaction:VAL:84>  (25) 
hydroph_interaction:VAL:84    0
hydroph_interaction:VAL:84    0
Name: 24, dtype: object

>  <hbond:VAL:84>  (25) 
hbond:VAL:84    0
hbond:VAL:84    0
Name: 24, dtype: object

>  <halogenbond:VAL:84>  (25) 
halogenbond:VAL:84    0
halogenbond:VAL:84    0
Name: 24, dtype: object

>  <hydroph_interaction:GLU:85>  (25) 
hydroph_interaction:GLU:85    0
hydroph_interaction:GLU:85    0
Name: 24, dtype: object

>  <hbond:GLU:85>  (25) 
hbond:GLU:85    0
hbond:GLU:85    0
Name: 24, dtype: object

>  <saltbridge:GLU:85>  (25) 
saltbridge:GLU:85    0
saltbridge:GLU:85    0
Name: 24, dtype: object

>  <halogenbond:GLU:85>  (25) 
halogenbond:GLU:85    0
halogenbond:GLU:85    0
Name: 24, dtype: object

>  <hbond:ALA:86>  (25) 
hbond:ALA:86    0
hbond:ALA:86    0
Name: 24, dtype: object

>  <halogenbond:ALA:86>  (25) 
halogenbond:ALA:86    0
halogenbond:ALA:86    0
Name: 24, dtype: object

>  <hydroph_interaction:ALA:86>  (25) 
hydroph_interaction:ALA:86    0
hydroph_interaction:ALA:86    0
Name: 24, dtype: object

>  <hbond:SER:87>  (25) 
hbond:SER:87    0
hbond:SER:87    0
Name: 24, dtype: object

>  <halogenbond:SER:87>  (25) 
halogenbond:SER:87    0
halogenbond:SER:87    0
Name: 24, dtype: object

>  <hbond:GLU:88>  (25) 
hbond:GLU:88    1
hbond:GLU:88    1
Name: 24, dtype: object

>  <hydroph_interaction:GLU:88>  (25) 
hydroph_interaction:GLU:88    0
hydroph_interaction:GLU:88    0
Name: 24, dtype: object

>  <halogenbond:GLU:88>  (25) 
halogenbond:GLU:88    0
halogenbond:GLU:88    0
Name: 24, dtype: object

>  <saltbridge:GLU:88>  (25) 
saltbridge:GLU:88    0
saltbridge:GLU:88    0
Name: 24, dtype: object

>  <hydroph_interaction:TYR:89>  (25) 
hydroph_interaction:TYR:89    2
hydroph_interaction:TYR:89    2
Name: 24, dtype: object

>  <pistack:TYR:89>  (25) 
pistack:TYR:89    0
pistack:TYR:89    0
Name: 24, dtype: object

>  <hbond:TYR:89>  (25) 
hbond:TYR:89    0
hbond:TYR:89    0
Name: 24, dtype: object

>  <halogenbond:TYR:89>  (25) 
halogenbond:TYR:89    0
halogenbond:TYR:89    0
Name: 24, dtype: object

>  <hbond:TYR:90>  (25) 
hbond:TYR:90    0
hbond:TYR:90    0
Name: 24, dtype: object

>  <hydroph_interaction:TYR:90>  (25) 
hydroph_interaction:TYR:90    0
hydroph_interaction:TYR:90    0
Name: 24, dtype: object

>  <pistack:TYR:90>  (25) 
pistack:TYR:90    0
pistack:TYR:90    0
Name: 24, dtype: object

>  <halogenbond:TYR:90>  (25) 
halogenbond:TYR:90    0
halogenbond:TYR:90    0
Name: 24, dtype: object

>  <pication:TYR:90>  (25) 
pication:TYR:90    0
pication:TYR:90    0
Name: 24, dtype: object

>  <hydroph_interaction:PRO:91>  (25) 
hydroph_interaction:PRO:91    0
hydroph_interaction:PRO:91    0
Name: 24, dtype: object

>  <halogenbond:PRO:91>  (25) 
halogenbond:PRO:91    0
halogenbond:PRO:91    0
Name: 24, dtype: object

>  <hbond:PRO:91>  (25) 
hbond:PRO:91    0
hbond:PRO:91    0
Name: 24, dtype: object

>  <hydroph_interaction:ALA:92>  (25) 
hydroph_interaction:ALA:92    0
hydroph_interaction:ALA:92    0
Name: 24, dtype: object

>  <hbond:ARG:93>  (25) 
hbond:ARG:93    0
hbond:ARG:93    0
Name: 24, dtype: object

>  <pication:ARG:93>  (25) 
pication:ARG:93    0
pication:ARG:93    0
Name: 24, dtype: object

>  <saltbridge:ARG:93>  (25) 
saltbridge:ARG:93    0
saltbridge:ARG:93    0
Name: 24, dtype: object

>  <hydroph_interaction:ARG:93>  (25) 
hydroph_interaction:ARG:93    0
hydroph_interaction:ARG:93    0
Name: 24, dtype: object

>  <halogenbond:ARG:93>  (25) 
halogenbond:ARG:93    0
halogenbond:ARG:93    0
Name: 24, dtype: object

>  <hydroph_interaction:TYR:94>  (25) 
hydroph_interaction:TYR:94    0
hydroph_interaction:TYR:94    0
Name: 24, dtype: object

>  <hbond:TYR:94>  (25) 
hbond:TYR:94    0
hbond:TYR:94    0
Name: 24, dtype: object

>  <halogenbond:GLN:95>  (25) 
halogenbond:GLN:95    0
halogenbond:GLN:95    0
Name: 24, dtype: object

>  <hbond:GLN:95>  (25) 
hbond:GLN:95    0
hbond:GLN:95    0
Name: 24, dtype: object

>  <hydroph_interaction:GLN:95>  (25) 
hydroph_interaction:GLN:95    0
hydroph_interaction:GLN:95    0
Name: 24, dtype: object

>  <hbond:SER:96>  (25) 
hbond:SER:96    0
hbond:SER:96    0
Name: 24, dtype: object

>  <hydroph_interaction:LEU:98>  (25) 
hydroph_interaction:LEU:98    0
hydroph_interaction:LEU:98    0
Name: 24, dtype: object

>  <hbond:LEU:98>  (25) 
hbond:LEU:98    0
hbond:LEU:98    0
Name: 24, dtype: object

>  <hbond:MET:99>  (25) 
hbond:MET:99    0
hbond:MET:99    0
Name: 24, dtype: object

>  <hydroph_interaction:MET:99>  (25) 
hydroph_interaction:MET:99    0
hydroph_interaction:MET:99    0
Name: 24, dtype: object

>  <halogenbond:MET:99>  (25) 
halogenbond:MET:99    0
halogenbond:MET:99    0
Name: 24, dtype: object

>  <hydroph_interaction:LEU:100>  (25) 
hydroph_interaction:LEU:100    0
hydroph_interaction:LEU:100    0
Name: 24, dtype: object

>  <hbond:LEU:100>  (25) 
hbond:LEU:100    0
hbond:LEU:100    0
Name: 24, dtype: object

>  <hbond:ALA:101>  (25) 
hbond:ALA:101    0
hbond:ALA:101    0
Name: 24, dtype: object

>  <hydroph_interaction:ALA:101>  (25) 
hydroph_interaction:ALA:101    0
hydroph_interaction:ALA:101    0
Name: 24, dtype: object

>  <hydroph_interaction:VAL:102>  (25) 
hydroph_interaction:VAL:102    0
hydroph_interaction:VAL:102    0
Name: 24, dtype: object

>  <hbond:VAL:102>  (25) 
hbond:VAL:102    0
hbond:VAL:102    0
Name: 24, dtype: object

>  <hbond:GLY:103>  (25) 
hbond:GLY:103    0
hbond:GLY:103    0
Name: 24, dtype: object

>  <halogenbond:GLY:103>  (25) 
halogenbond:GLY:103    0
halogenbond:GLY:103    0
Name: 24, dtype: object

>  <hydroph_interaction:HIS:104>  (25) 
hydroph_interaction:HIS:104    0
hydroph_interaction:HIS:104    0
Name: 24, dtype: object

>  <hbond:HIS:104>  (25) 
hbond:HIS:104    0
hbond:HIS:104    0
Name: 24, dtype: object

>  <saltbridge:HIS:104>  (25) 
saltbridge:HIS:104    0
saltbridge:HIS:104    0
Name: 24, dtype: object

>  <pication:HIS:104>  (25) 
pication:HIS:104    0
pication:HIS:104    0
Name: 24, dtype: object

>  <pistack:HIS:104>  (25) 
pistack:HIS:104    0
pistack:HIS:104    0
Name: 24, dtype: object

>  <halogenbond:HIS:104>  (25) 
halogenbond:HIS:104    0
halogenbond:HIS:104    0
Name: 24, dtype: object

>  <hbond:SER:105>  (25) 
hbond:SER:105    0
hbond:SER:105    0
Name: 24, dtype: object

>  <halogenbond:SER:105>  (25) 
halogenbond:SER:105    0
halogenbond:SER:105    0
Name: 24, dtype: object

>  <hbond:GLU:106>  (25) 
hbond:GLU:106    0
hbond:GLU:106    0
Name: 24, dtype: object

>  <hydroph_interaction:GLU:106>  (25) 
hydroph_interaction:GLU:106    0
hydroph_interaction:GLU:106    0
Name: 24, dtype: object

>  <saltbridge:GLU:106>  (25) 
saltbridge:GLU:106    0
saltbridge:GLU:106    0
Name: 24, dtype: object

>  <halogenbond:GLU:106>  (25) 
halogenbond:GLU:106    0
halogenbond:GLU:106    0
Name: 24, dtype: object

>  <hydroph_interaction:PRO:107>  (25) 
hydroph_interaction:PRO:107    1
hydroph_interaction:PRO:107    1
Name: 24, dtype: object

>  <hbond:PRO:107>  (25) 
hbond:PRO:107    0
hbond:PRO:107    0
Name: 24, dtype: object

>  <halogenbond:PRO:107>  (25) 
halogenbond:PRO:107    0
halogenbond:PRO:107    0
Name: 24, dtype: object

>  <hbond:GLY:108>  (25) 
hbond:GLY:108    0
hbond:GLY:108    0
Name: 24, dtype: object

>  <halogenbond:GLY:108>  (25) 
halogenbond:GLY:108    0
halogenbond:GLY:108    0
Name: 24, dtype: object

>  <hbond:ASP:109>  (25) 
hbond:ASP:109    0
hbond:ASP:109    0
Name: 24, dtype: object

>  <hydroph_interaction:ASP:109>  (25) 
hydroph_interaction:ASP:109    0
hydroph_interaction:ASP:109    0
Name: 24, dtype: object

>  <saltbridge:ASP:109>  (25) 
saltbridge:ASP:109    0
saltbridge:ASP:109    0
Name: 24, dtype: object

>  <hbond:CYS:110>  (25) 
hbond:CYS:110    0
hbond:CYS:110    0
Name: 24, dtype: object

>  <halogenbond:CYS:110>  (25) 
halogenbond:CYS:110    0
halogenbond:CYS:110    0
Name: 24, dtype: object

>  <hbond:GLY:111>  (25) 
hbond:GLY:111    0
hbond:GLY:111    0
Name: 24, dtype: object

>  <hbond:GLY:112>  (25) 
hbond:GLY:112    0
hbond:GLY:112    0
Name: 24, dtype: object

>  <hbond:ILE:113>  (25) 
hbond:ILE:113    0
hbond:ILE:113    0
Name: 24, dtype: object

>  <hydroph_interaction:LEU:114>  (25) 
hydroph_interaction:LEU:114    0
hydroph_interaction:LEU:114    0
Name: 24, dtype: object

>  <hbond:LEU:114>  (25) 
hbond:LEU:114    0
hbond:LEU:114    0
Name: 24, dtype: object

>  <hydroph_interaction:ILE:123>  (25) 
hydroph_interaction:ILE:123    0
hydroph_interaction:ILE:123    0
Name: 24, dtype: object

>  <hbond:ILE:123>  (25) 
hbond:ILE:123    0
hbond:ILE:123    0
Name: 24, dtype: object

>  <hydroph_interaction:VAL:124>  (25) 
hydroph_interaction:VAL:124    0
hydroph_interaction:VAL:124    0
Name: 24, dtype: object

>  <hbond:VAL:124>  (25) 
hbond:VAL:124    0
hbond:VAL:124    0
Name: 24, dtype: object

>  <halogenbond:VAL:124>  (25) 
halogenbond:VAL:124    0
halogenbond:VAL:124    0
Name: 24, dtype: object

>  <hbond:SER:125>  (25) 
hbond:SER:125    0
hbond:SER:125    0
Name: 24, dtype: object

>  <halogenbond:SER:125>  (25) 
halogenbond:SER:125    0
halogenbond:SER:125    0
Name: 24, dtype: object

>  <hydroph_interaction:THR:126>  (25) 
hydroph_interaction:THR:126    0
hydroph_interaction:THR:126    0
Name: 24, dtype: object

>  <hbond:THR:126>  (25) 
hbond:THR:126    0
hbond:THR:126    0
Name: 24, dtype: object

>  <halogenbond:THR:126>  (25) 
halogenbond:THR:126    0
halogenbond:THR:126    0
Name: 24, dtype: object

>  <hbond:GLY:127>  (25) 
hbond:GLY:127    0
hbond:GLY:127    0
Name: 24, dtype: object

>  <halogenbond:GLY:127>  (25) 
halogenbond:GLY:127    0
halogenbond:GLY:127    0
Name: 24, dtype: object

>  <hydroph_interaction:GLY:127>  (25) 
hydroph_interaction:GLY:127    0
hydroph_interaction:GLY:127    0
Name: 24, dtype: object

>  <hbond:GLY:128>  (25) 
hbond:GLY:128    0
hbond:GLY:128    0
Name: 24, dtype: object

>  <halogenbond:GLY:128>  (25) 
halogenbond:GLY:128    0
halogenbond:GLY:128    0
Name: 24, dtype: object

>  <hydroph_interaction:GLY:128>  (25) 
hydroph_interaction:GLY:128    0
hydroph_interaction:GLY:128    0
Name: 24, dtype: object

>  <hbond:ASN:129>  (25) 
hbond:ASN:129    0
hbond:ASN:129    0
Name: 24, dtype: object

>  <hydroph_interaction:ASN:129>  (25) 
hydroph_interaction:ASN:129    0
hydroph_interaction:ASN:129    0
Name: 24, dtype: object

>  <halogenbond:ASN:129>  (25) 
halogenbond:ASN:129    0
halogenbond:ASN:129    0
Name: 24, dtype: object

>  <hbond:GLY:130>  (25) 
hbond:GLY:130    0
hbond:GLY:130    0
Name: 24, dtype: object

>  <hydroph_interaction:LEU:131>  (25) 
hydroph_interaction:LEU:131    0
hydroph_interaction:LEU:131    0
Name: 24, dtype: object

>  <hbond:LEU:131>  (25) 
hbond:LEU:131    0
hbond:LEU:131    0
Name: 24, dtype: object

>  <halogenbond:LEU:131>  (25) 
halogenbond:LEU:131    0
halogenbond:LEU:131    0
Name: 24, dtype: object

>  <hydroph_interaction:VAL:132>  (25) 
hydroph_interaction:VAL:132    0
hydroph_interaction:VAL:132    0
Name: 24, dtype: object

>  <hbond:VAL:132>  (25) 
hbond:VAL:132    0
hbond:VAL:132    0
Name: 24, dtype: object

>  <hbond:GLY:133>  (25) 
hbond:GLY:133    0
hbond:GLY:133    0
Name: 24, dtype: object

>  <halogenbond:GLY:133>  (25) 
halogenbond:GLY:133    0
halogenbond:GLY:133    0
Name: 24, dtype: object

>  <hydroph_interaction:PHE:134>  (25) 
hydroph_interaction:PHE:134    0
hydroph_interaction:PHE:134    0
Name: 24, dtype: object

>  <hbond:PHE:134>  (25) 
hbond:PHE:134    0
hbond:PHE:134    0
Name: 24, dtype: object

>  <pistack:PHE:134>  (25) 
pistack:PHE:134    0
pistack:PHE:134    0
Name: 24, dtype: object

>  <pication:PHE:134>  (25) 
pication:PHE:134    0
pication:PHE:134    0
Name: 24, dtype: object

>  <hydroph_interaction:ALA:135>  (25) 
hydroph_interaction:ALA:135    0
hydroph_interaction:ALA:135    0
Name: 24, dtype: object

>  <hbond:ALA:135>  (25) 
hbond:ALA:135    0
hbond:ALA:135    0
Name: 24, dtype: object

$$$$
PV_002803505866
     RDKit          3D

 25 26  0  0  0  0  0  0  0  0999 V2000
   12.0560   15.1130   21.8820 C   0  0  0  0  0  0  0  0  0  0  0  0
   11.4660   14.1540   22.8720 C   0  0  0  0  0  0  0  0  0  0  0  0
   11.8620   14.1250   24.1950 C   0  0  0  0  0  0  0  0  0  0  0  0
   10.5280   13.3120   22.4080 C   0  0  0  0  0  0  0  0  0  0  0  0
    9.8370   12.3110   23.0870 C   0  0  0  0  0  0  0  0  0  0  0  0
   10.1320   10.9790   22.8210 C   0  0  0  0  0  0  0  0  0  0  0  0
    9.4370    9.8900   23.5070 C   0  0  0  0  0  0  0  0  0  0  0  0
    8.4020   10.2800   24.4950 C   0  0  0  0  0  0  0  0  0  0  0  0
    8.1220   11.6120   24.7410 C   0  0  0  0  0  0  0  0  0  0  0  0
    8.8390   12.5900   24.0390 C   0  0  0  0  0  0  0  0  0  0  0  0
    8.4110   13.8270   24.4270 O   0  0  0  0  0  0  0  0  0  0  0  0
    7.4400   13.6400   25.3580 C   0  0  0  0  0  0  0  0  0  0  0  0
    7.2270   12.3040   25.5860 C   0  0  0  0  0  0  0  0  0  0  0  0
   12.7260   14.5680   21.2090 H   0  0  0  0  0  0  0  0  0  0  0  0
   11.3120   15.6230   21.2640 H   0  0  0  0  0  0  0  0  0  0  0  0
   12.6670   15.8560   22.4080 H   0  0  0  0  0  0  0  0  0  0  0  0
   12.4070   14.9970   24.5570 H   0  0  0  0  0  0  0  0  0  0  0  0
   11.1030   13.9250   24.9380 H   0  0  0  0  0  0  0  0  0  0  0  0
   12.5550   13.2790   24.2690 H   0  0  0  0  0  0  0  0  0  0  0  0
   10.2510   13.3960   21.3580 H   0  0  0  0  0  0  0  0  0  0  0  0
   10.8880   10.7310   22.0940 H   0  0  0  0  0  0  0  0  0  0  0  0
    9.6770    8.8600   23.2960 H   0  0  0  0  0  0  0  0  0  0  0  0
    7.9030    9.4500   24.9850 H   0  0  0  0  0  0  0  0  0  0  0  0
    6.9950   14.5550   25.7660 H   0  0  0  0  0  0  0  0  0  0  0  0
    6.5120   11.8800   26.2750 H   0  0  0  0  0  0  0  0  0  0  0  0
  1  2  1  0
  2  3  1  0
  2  4  2  3
  4  5  1  0
  5  6  2  0
  6  7  1  0
  7  8  2  0
  8  9  1  0
  9 10  2  0
 10 11  1  0
 11 12  1  0
 12 13  2  0
 10  5  1  0
 13  9  1  0
  1 14  1  0
  1 15  1  0
  1 16  1  0
  3 17  1  0
  3 18  1  0
  3 19  1  0
  4 20  1  0
  6 21  1  0
  7 22  1  0
  8 23  1  0
 12 24  1  0
 13 25  1  0
A    1
 C1 
A    2
 C2 
A    3
 C3 
A    4
 C4 
A    5
 C5 
A    6
 C6 
A    7
 C7 
A    8
 C8 
A    9
 C9 
A   10
 C10
A   11
 O1 
A   12
 C11
A   13
 C12
A   14
 H1 
A   15
 H2 
A   16
 H3 
A   17
 H4 
A   18
 H5 
A   19
 H6 
A   20
 H7 
A   21
 H8 
A   22
 H9 
A   23
 H10
A   24
 H11
A   25
 H12
M  END
>  <ref_pdb>  (26) 
x0310_0A

>  <ref_mols>  (26) 
x0554_0A,x0739_0A

>  <original SMILES>  (26) 
CC(C)=Cc1cccc2ccoc12

>  <rationale>  (26) 
info hydroph_interaction:P107; 

>  <intxn_cluster>  (26) 
208

>  <intxn_cluster_rank>  (26) 
90

>  <N_interactions>  (26) 
2

>  <∆∆G>  (26) 
-9.723362

>  <$/mg>  (26) 
163.0

>  <comRMSD>  (26) 
0.740888

>  <N_rotatable_bonds>  (26) 
3

>  <hbond:SER:7>  (26) 
hbond:SER:7    0
hbond:SER:7    0
Name: 25, dtype: object

>  <halogenbond:SER:7>  (26) 
halogenbond:SER:7    0
halogenbond:SER:7    0
Name: 25, dtype: object

>  <hbond:GLY:8>  (26) 
hbond:GLY:8    0
hbond:GLY:8    0
Name: 25, dtype: object

>  <hydroph_interaction:ASN:19>  (26) 
hydroph_interaction:ASN:19    0
hydroph_interaction:ASN:19    0
Name: 25, dtype: object

>  <hbond:ASN:19>  (26) 
hbond:ASN:19    0
hbond:ASN:19    0
Name: 25, dtype: object

>  <halogenbond:ASN:19>  (26) 
halogenbond:ASN:19    0
halogenbond:ASN:19    0
Name: 25, dtype: object

>  <hbond:ARG:20>  (26) 
hbond:ARG:20    0
hbond:ARG:20    0
Name: 25, dtype: object

>  <hydroph_interaction:ARG:20>  (26) 
hydroph_interaction:ARG:20    0
hydroph_interaction:ARG:20    0
Name: 25, dtype: object

>  <saltbridge:ARG:20>  (26) 
saltbridge:ARG:20    0
saltbridge:ARG:20    0
Name: 25, dtype: object

>  <halogenbond:ARG:20>  (26) 
halogenbond:ARG:20    0
halogenbond:ARG:20    0
Name: 25, dtype: object

>  <pication:ARG:20>  (26) 
pication:ARG:20    0
pication:ARG:20    0
Name: 25, dtype: object

>  <hbond:HIS:21>  (26) 
hbond:HIS:21    0
hbond:HIS:21    0
Name: 25, dtype: object

>  <hydroph_interaction:HIS:21>  (26) 
hydroph_interaction:HIS:21    0
hydroph_interaction:HIS:21    0
Name: 25, dtype: object

>  <saltbridge:HIS:21>  (26) 
saltbridge:HIS:21    0
saltbridge:HIS:21    0
Name: 25, dtype: object

>  <pistack:HIS:21>  (26) 
pistack:HIS:21    0
pistack:HIS:21    0
Name: 25, dtype: object

>  <pication:HIS:21>  (26) 
pication:HIS:21    0
pication:HIS:21    0
Name: 25, dtype: object

>  <halogenbond:HIS:21>  (26) 
halogenbond:HIS:21    0
halogenbond:HIS:21    0
Name: 25, dtype: object

>  <hydroph_interaction:LEU:22>  (26) 
hydroph_interaction:LEU:22    0
hydroph_interaction:LEU:22    0
Name: 25, dtype: object

>  <hbond:LEU:22>  (26) 
hbond:LEU:22    0
hbond:LEU:22    0
Name: 25, dtype: object

>  <hydroph_interaction:TRP:28>  (26) 
hydroph_interaction:TRP:28    0
hydroph_interaction:TRP:28    0
Name: 25, dtype: object

>  <hbond:SER:36>  (26) 
hbond:SER:36    0
hbond:SER:36    0
Name: 25, dtype: object

>  <halogenbond:SER:36>  (26) 
halogenbond:SER:36    0
halogenbond:SER:36    0
Name: 25, dtype: object

>  <hbond:ARG:38>  (26) 
hbond:ARG:38    0
hbond:ARG:38    0
Name: 25, dtype: object

>  <halogenbond:ARG:38>  (26) 
halogenbond:ARG:38    0
halogenbond:ARG:38    0
Name: 25, dtype: object

>  <hbond:ASP:39>  (26) 
hbond:ASP:39    0
hbond:ASP:39    0
Name: 25, dtype: object

>  <saltbridge:ASP:39>  (26) 
saltbridge:ASP:39    0
saltbridge:ASP:39    0
Name: 25, dtype: object

>  <hydroph_interaction:ASP:39>  (26) 
hydroph_interaction:ASP:39    0
hydroph_interaction:ASP:39    0
Name: 25, dtype: object

>  <halogenbond:ASP:39>  (26) 
halogenbond:ASP:39    0
halogenbond:ASP:39    0
Name: 25, dtype: object

>  <hydroph_interaction:LEU:40>  (26) 
hydroph_interaction:LEU:40    0
hydroph_interaction:LEU:40    0
Name: 25, dtype: object

>  <hydroph_interaction:TYR:63>  (26) 
hydroph_interaction:TYR:63    0
hydroph_interaction:TYR:63    0
Name: 25, dtype: object

>  <pistack:TYR:63>  (26) 
pistack:TYR:63    0
pistack:TYR:63    0
Name: 25, dtype: object

>  <hbond:TYR:63>  (26) 
hbond:TYR:63    0
hbond:TYR:63    0
Name: 25, dtype: object

>  <hbond:TYR:64>  (26) 
hbond:TYR:64    0
hbond:TYR:64    0
Name: 25, dtype: object

>  <halogenbond:TYR:64>  (26) 
halogenbond:TYR:64    0
halogenbond:TYR:64    0
Name: 25, dtype: object

>  <hydroph_interaction:TYR:64>  (26) 
hydroph_interaction:TYR:64    0
hydroph_interaction:TYR:64    0
Name: 25, dtype: object

>  <hbond:CYS:65>  (26) 
hbond:CYS:65    0
hbond:CYS:65    0
Name: 25, dtype: object

>  <halogenbond:CYS:65>  (26) 
halogenbond:CYS:65    0
halogenbond:CYS:65    0
Name: 25, dtype: object

>  <hbond:SER:66>  (26) 
hbond:SER:66    0
hbond:SER:66    0
Name: 25, dtype: object

>  <hbond:SER:67>  (26) 
hbond:SER:67    0
hbond:SER:67    0
Name: 25, dtype: object

>  <halogenbond:SER:67>  (26) 
halogenbond:SER:67    0
halogenbond:SER:67    0
Name: 25, dtype: object

>  <hydroph_interaction:ARG:68>  (26) 
hydroph_interaction:ARG:68    0
hydroph_interaction:ARG:68    0
Name: 25, dtype: object

>  <hbond:ARG:68>  (26) 
hbond:ARG:68    0
hbond:ARG:68    0
Name: 25, dtype: object

>  <saltbridge:ARG:68>  (26) 
saltbridge:ARG:68    0
saltbridge:ARG:68    0
Name: 25, dtype: object

>  <pication:ARG:68>  (26) 
pication:ARG:68    0
pication:ARG:68    0
Name: 25, dtype: object

>  <hydroph_interaction:TYR:72>  (26) 
hydroph_interaction:TYR:72    0
hydroph_interaction:TYR:72    0
Name: 25, dtype: object

>  <hydroph_interaction:VAL:74>  (26) 
hydroph_interaction:VAL:74    0
hydroph_interaction:VAL:74    0
Name: 25, dtype: object

>  <hydroph_interaction:PHE:76>  (26) 
hydroph_interaction:PHE:76    0
hydroph_interaction:PHE:76    0
Name: 25, dtype: object

>  <hbond:SER:77>  (26) 
hbond:SER:77    0
hbond:SER:77    0
Name: 25, dtype: object

>  <hbond:SER:80>  (26) 
hbond:SER:80    0
hbond:SER:80    0
Name: 25, dtype: object

>  <hbond:LEU:81>  (26) 
hbond:LEU:81    0
hbond:LEU:81    0
Name: 25, dtype: object

>  <halogenbond:LEU:81>  (26) 
halogenbond:LEU:81    0
halogenbond:LEU:81    0
Name: 25, dtype: object

>  <hydroph_interaction:LEU:81>  (26) 
hydroph_interaction:LEU:81    0
hydroph_interaction:LEU:81    0
Name: 25, dtype: object

>  <hydroph_interaction:ILE:82>  (26) 
hydroph_interaction:ILE:82    0
hydroph_interaction:ILE:82    0
Name: 25, dtype: object

>  <hbond:ILE:82>  (26) 
hbond:ILE:82    0
hbond:ILE:82    0
Name: 25, dtype: object

>  <hydroph_interaction:PHE:83>  (26) 
hydroph_interaction:PHE:83    0
hydroph_interaction:PHE:83    0
Name: 25, dtype: object

>  <hbond:PHE:83>  (26) 
hbond:PHE:83    0
hbond:PHE:83    0
Name: 25, dtype: object

>  <halogenbond:PHE:83>  (26) 
halogenbond:PHE:83    0
halogenbond:PHE:83    0
Name: 25, dtype: object

>  <pistack:PHE:83>  (26) 
pistack:PHE:83    0
pistack:PHE:83    0
Name: 25, dtype: object

>  <hydroph_interaction:VAL:84>  (26) 
hydroph_interaction:VAL:84    0
hydroph_interaction:VAL:84    0
Name: 25, dtype: object

>  <hbond:VAL:84>  (26) 
hbond:VAL:84    0
hbond:VAL:84    0
Name: 25, dtype: object

>  <halogenbond:VAL:84>  (26) 
halogenbond:VAL:84    0
halogenbond:VAL:84    0
Name: 25, dtype: object

>  <hydroph_interaction:GLU:85>  (26) 
hydroph_interaction:GLU:85    0
hydroph_interaction:GLU:85    0
Name: 25, dtype: object

>  <hbond:GLU:85>  (26) 
hbond:GLU:85    0
hbond:GLU:85    0
Name: 25, dtype: object

>  <saltbridge:GLU:85>  (26) 
saltbridge:GLU:85    0
saltbridge:GLU:85    0
Name: 25, dtype: object

>  <halogenbond:GLU:85>  (26) 
halogenbond:GLU:85    0
halogenbond:GLU:85    0
Name: 25, dtype: object

>  <hbond:ALA:86>  (26) 
hbond:ALA:86    0
hbond:ALA:86    0
Name: 25, dtype: object

>  <halogenbond:ALA:86>  (26) 
halogenbond:ALA:86    0
halogenbond:ALA:86    0
Name: 25, dtype: object

>  <hydroph_interaction:ALA:86>  (26) 
hydroph_interaction:ALA:86    0
hydroph_interaction:ALA:86    0
Name: 25, dtype: object

>  <hbond:SER:87>  (26) 
hbond:SER:87    0
hbond:SER:87    0
Name: 25, dtype: object

>  <halogenbond:SER:87>  (26) 
halogenbond:SER:87    0
halogenbond:SER:87    0
Name: 25, dtype: object

>  <hbond:GLU:88>  (26) 
hbond:GLU:88    0
hbond:GLU:88    0
Name: 25, dtype: object

>  <hydroph_interaction:GLU:88>  (26) 
hydroph_interaction:GLU:88    0
hydroph_interaction:GLU:88    0
Name: 25, dtype: object

>  <halogenbond:GLU:88>  (26) 
halogenbond:GLU:88    0
halogenbond:GLU:88    0
Name: 25, dtype: object

>  <saltbridge:GLU:88>  (26) 
saltbridge:GLU:88    0
saltbridge:GLU:88    0
Name: 25, dtype: object

>  <hydroph_interaction:TYR:89>  (26) 
hydroph_interaction:TYR:89    0
hydroph_interaction:TYR:89    0
Name: 25, dtype: object

>  <pistack:TYR:89>  (26) 
pistack:TYR:89    0
pistack:TYR:89    0
Name: 25, dtype: object

>  <hbond:TYR:89>  (26) 
hbond:TYR:89    0
hbond:TYR:89    0
Name: 25, dtype: object

>  <halogenbond:TYR:89>  (26) 
halogenbond:TYR:89    0
halogenbond:TYR:89    0
Name: 25, dtype: object

>  <hbond:TYR:90>  (26) 
hbond:TYR:90    0
hbond:TYR:90    0
Name: 25, dtype: object

>  <hydroph_interaction:TYR:90>  (26) 
hydroph_interaction:TYR:90    0
hydroph_interaction:TYR:90    0
Name: 25, dtype: object

>  <pistack:TYR:90>  (26) 
pistack:TYR:90    0
pistack:TYR:90    0
Name: 25, dtype: object

>  <halogenbond:TYR:90>  (26) 
halogenbond:TYR:90    0
halogenbond:TYR:90    0
Name: 25, dtype: object

>  <pication:TYR:90>  (26) 
pication:TYR:90    0
pication:TYR:90    0
Name: 25, dtype: object

>  <hydroph_interaction:PRO:91>  (26) 
hydroph_interaction:PRO:91    0
hydroph_interaction:PRO:91    0
Name: 25, dtype: object

>  <halogenbond:PRO:91>  (26) 
halogenbond:PRO:91    0
halogenbond:PRO:91    0
Name: 25, dtype: object

>  <hbond:PRO:91>  (26) 
hbond:PRO:91    0
hbond:PRO:91    0
Name: 25, dtype: object

>  <hydroph_interaction:ALA:92>  (26) 
hydroph_interaction:ALA:92    0
hydroph_interaction:ALA:92    0
Name: 25, dtype: object

>  <hbond:ARG:93>  (26) 
hbond:ARG:93    0
hbond:ARG:93    0
Name: 25, dtype: object

>  <pication:ARG:93>  (26) 
pication:ARG:93    0
pication:ARG:93    0
Name: 25, dtype: object

>  <saltbridge:ARG:93>  (26) 
saltbridge:ARG:93    0
saltbridge:ARG:93    0
Name: 25, dtype: object

>  <hydroph_interaction:ARG:93>  (26) 
hydroph_interaction:ARG:93    0
hydroph_interaction:ARG:93    0
Name: 25, dtype: object

>  <halogenbond:ARG:93>  (26) 
halogenbond:ARG:93    0
halogenbond:ARG:93    0
Name: 25, dtype: object

>  <hydroph_interaction:TYR:94>  (26) 
hydroph_interaction:TYR:94    0
hydroph_interaction:TYR:94    0
Name: 25, dtype: object

>  <hbond:TYR:94>  (26) 
hbond:TYR:94    0
hbond:TYR:94    0
Name: 25, dtype: object

>  <halogenbond:GLN:95>  (26) 
halogenbond:GLN:95    0
halogenbond:GLN:95    0
Name: 25, dtype: object

>  <hbond:GLN:95>  (26) 
hbond:GLN:95    0
hbond:GLN:95    0
Name: 25, dtype: object

>  <hydroph_interaction:GLN:95>  (26) 
hydroph_interaction:GLN:95    0
hydroph_interaction:GLN:95    0
Name: 25, dtype: object

>  <hbond:SER:96>  (26) 
hbond:SER:96    0
hbond:SER:96    0
Name: 25, dtype: object

>  <hydroph_interaction:LEU:98>  (26) 
hydroph_interaction:LEU:98    0
hydroph_interaction:LEU:98    0
Name: 25, dtype: object

>  <hbond:LEU:98>  (26) 
hbond:LEU:98    0
hbond:LEU:98    0
Name: 25, dtype: object

>  <hbond:MET:99>  (26) 
hbond:MET:99    0
hbond:MET:99    0
Name: 25, dtype: object

>  <hydroph_interaction:MET:99>  (26) 
hydroph_interaction:MET:99    0
hydroph_interaction:MET:99    0
Name: 25, dtype: object

>  <halogenbond:MET:99>  (26) 
halogenbond:MET:99    0
halogenbond:MET:99    0
Name: 25, dtype: object

>  <hydroph_interaction:LEU:100>  (26) 
hydroph_interaction:LEU:100    0
hydroph_interaction:LEU:100    0
Name: 25, dtype: object

>  <hbond:LEU:100>  (26) 
hbond:LEU:100    0
hbond:LEU:100    0
Name: 25, dtype: object

>  <hbond:ALA:101>  (26) 
hbond:ALA:101    0
hbond:ALA:101    0
Name: 25, dtype: object

>  <hydroph_interaction:ALA:101>  (26) 
hydroph_interaction:ALA:101    0
hydroph_interaction:ALA:101    0
Name: 25, dtype: object

>  <hydroph_interaction:VAL:102>  (26) 
hydroph_interaction:VAL:102    0
hydroph_interaction:VAL:102    0
Name: 25, dtype: object

>  <hbond:VAL:102>  (26) 
hbond:VAL:102    0
hbond:VAL:102    0
Name: 25, dtype: object

>  <hbond:GLY:103>  (26) 
hbond:GLY:103    0
hbond:GLY:103    0
Name: 25, dtype: object

>  <halogenbond:GLY:103>  (26) 
halogenbond:GLY:103    0
halogenbond:GLY:103    0
Name: 25, dtype: object

>  <hydroph_interaction:HIS:104>  (26) 
hydroph_interaction:HIS:104    0
hydroph_interaction:HIS:104    0
Name: 25, dtype: object

>  <hbond:HIS:104>  (26) 
hbond:HIS:104    0
hbond:HIS:104    0
Name: 25, dtype: object

>  <saltbridge:HIS:104>  (26) 
saltbridge:HIS:104    0
saltbridge:HIS:104    0
Name: 25, dtype: object

>  <pication:HIS:104>  (26) 
pication:HIS:104    0
pication:HIS:104    0
Name: 25, dtype: object

>  <pistack:HIS:104>  (26) 
pistack:HIS:104    0
pistack:HIS:104    0
Name: 25, dtype: object

>  <halogenbond:HIS:104>  (26) 
halogenbond:HIS:104    0
halogenbond:HIS:104    0
Name: 25, dtype: object

>  <hbond:SER:105>  (26) 
hbond:SER:105    0
hbond:SER:105    0
Name: 25, dtype: object

>  <halogenbond:SER:105>  (26) 
halogenbond:SER:105    0
halogenbond:SER:105    0
Name: 25, dtype: object

>  <hbond:GLU:106>  (26) 
hbond:GLU:106    0
hbond:GLU:106    0
Name: 25, dtype: object

>  <hydroph_interaction:GLU:106>  (26) 
hydroph_interaction:GLU:106    0
hydroph_interaction:GLU:106    0
Name: 25, dtype: object

>  <saltbridge:GLU:106>  (26) 
saltbridge:GLU:106    0
saltbridge:GLU:106    0
Name: 25, dtype: object

>  <halogenbond:GLU:106>  (26) 
halogenbond:GLU:106    0
halogenbond:GLU:106    0
Name: 25, dtype: object

>  <hydroph_interaction:PRO:107>  (26) 
hydroph_interaction:PRO:107    2
hydroph_interaction:PRO:107    2
Name: 25, dtype: object

>  <hbond:PRO:107>  (26) 
hbond:PRO:107    0
hbond:PRO:107    0
Name: 25, dtype: object

>  <halogenbond:PRO:107>  (26) 
halogenbond:PRO:107    0
halogenbond:PRO:107    0
Name: 25, dtype: object

>  <hbond:GLY:108>  (26) 
hbond:GLY:108    0
hbond:GLY:108    0
Name: 25, dtype: object

>  <halogenbond:GLY:108>  (26) 
halogenbond:GLY:108    0
halogenbond:GLY:108    0
Name: 25, dtype: object

>  <hbond:ASP:109>  (26) 
hbond:ASP:109    0
hbond:ASP:109    0
Name: 25, dtype: object

>  <hydroph_interaction:ASP:109>  (26) 
hydroph_interaction:ASP:109    0
hydroph_interaction:ASP:109    0
Name: 25, dtype: object

>  <saltbridge:ASP:109>  (26) 
saltbridge:ASP:109    0
saltbridge:ASP:109    0
Name: 25, dtype: object

>  <hbond:CYS:110>  (26) 
hbond:CYS:110    0
hbond:CYS:110    0
Name: 25, dtype: object

>  <halogenbond:CYS:110>  (26) 
halogenbond:CYS:110    0
halogenbond:CYS:110    0
Name: 25, dtype: object

>  <hbond:GLY:111>  (26) 
hbond:GLY:111    0
hbond:GLY:111    0
Name: 25, dtype: object

>  <hbond:GLY:112>  (26) 
hbond:GLY:112    0
hbond:GLY:112    0
Name: 25, dtype: object

>  <hbond:ILE:113>  (26) 
hbond:ILE:113    0
hbond:ILE:113    0
Name: 25, dtype: object

>  <hydroph_interaction:LEU:114>  (26) 
hydroph_interaction:LEU:114    0
hydroph_interaction:LEU:114    0
Name: 25, dtype: object

>  <hbond:LEU:114>  (26) 
hbond:LEU:114    0
hbond:LEU:114    0
Name: 25, dtype: object

>  <hydroph_interaction:ILE:123>  (26) 
hydroph_interaction:ILE:123    0
hydroph_interaction:ILE:123    0
Name: 25, dtype: object

>  <hbond:ILE:123>  (26) 
hbond:ILE:123    0
hbond:ILE:123    0
Name: 25, dtype: object

>  <hydroph_interaction:VAL:124>  (26) 
hydroph_interaction:VAL:124    0
hydroph_interaction:VAL:124    0
Name: 25, dtype: object

>  <hbond:VAL:124>  (26) 
hbond:VAL:124    0
hbond:VAL:124    0
Name: 25, dtype: object

>  <halogenbond:VAL:124>  (26) 
halogenbond:VAL:124    0
halogenbond:VAL:124    0
Name: 25, dtype: object

>  <hbond:SER:125>  (26) 
hbond:SER:125    0
hbond:SER:125    0
Name: 25, dtype: object

>  <halogenbond:SER:125>  (26) 
halogenbond:SER:125    0
halogenbond:SER:125    0
Name: 25, dtype: object

>  <hydroph_interaction:THR:126>  (26) 
hydroph_interaction:THR:126    0
hydroph_interaction:THR:126    0
Name: 25, dtype: object

>  <hbond:THR:126>  (26) 
hbond:THR:126    0
hbond:THR:126    0
Name: 25, dtype: object

>  <halogenbond:THR:126>  (26) 
halogenbond:THR:126    0
halogenbond:THR:126    0
Name: 25, dtype: object

>  <hbond:GLY:127>  (26) 
hbond:GLY:127    0
hbond:GLY:127    0
Name: 25, dtype: object

>  <halogenbond:GLY:127>  (26) 
halogenbond:GLY:127    0
halogenbond:GLY:127    0
Name: 25, dtype: object

>  <hydroph_interaction:GLY:127>  (26) 
hydroph_interaction:GLY:127    0
hydroph_interaction:GLY:127    0
Name: 25, dtype: object

>  <hbond:GLY:128>  (26) 
hbond:GLY:128    0
hbond:GLY:128    0
Name: 25, dtype: object

>  <halogenbond:GLY:128>  (26) 
halogenbond:GLY:128    0
halogenbond:GLY:128    0
Name: 25, dtype: object

>  <hydroph_interaction:GLY:128>  (26) 
hydroph_interaction:GLY:128    0
hydroph_interaction:GLY:128    0
Name: 25, dtype: object

>  <hbond:ASN:129>  (26) 
hbond:ASN:129    0
hbond:ASN:129    0
Name: 25, dtype: object

>  <hydroph_interaction:ASN:129>  (26) 
hydroph_interaction:ASN:129    0
hydroph_interaction:ASN:129    0
Name: 25, dtype: object

>  <halogenbond:ASN:129>  (26) 
halogenbond:ASN:129    0
halogenbond:ASN:129    0
Name: 25, dtype: object

>  <hbond:GLY:130>  (26) 
hbond:GLY:130    0
hbond:GLY:130    0
Name: 25, dtype: object

>  <hydroph_interaction:LEU:131>  (26) 
hydroph_interaction:LEU:131    0
hydroph_interaction:LEU:131    0
Name: 25, dtype: object

>  <hbond:LEU:131>  (26) 
hbond:LEU:131    0
hbond:LEU:131    0
Name: 25, dtype: object

>  <halogenbond:LEU:131>  (26) 
halogenbond:LEU:131    0
halogenbond:LEU:131    0
Name: 25, dtype: object

>  <hydroph_interaction:VAL:132>  (26) 
hydroph_interaction:VAL:132    0
hydroph_interaction:VAL:132    0
Name: 25, dtype: object

>  <hbond:VAL:132>  (26) 
hbond:VAL:132    0
hbond:VAL:132    0
Name: 25, dtype: object

>  <hbond:GLY:133>  (26) 
hbond:GLY:133    0
hbond:GLY:133    0
Name: 25, dtype: object

>  <halogenbond:GLY:133>  (26) 
halogenbond:GLY:133    0
halogenbond:GLY:133    0
Name: 25, dtype: object

>  <hydroph_interaction:PHE:134>  (26) 
hydroph_interaction:PHE:134    0
hydroph_interaction:PHE:134    0
Name: 25, dtype: object

>  <hbond:PHE:134>  (26) 
hbond:PHE:134    0
hbond:PHE:134    0
Name: 25, dtype: object

>  <pistack:PHE:134>  (26) 
pistack:PHE:134    0
pistack:PHE:134    0
Name: 25, dtype: object

>  <pication:PHE:134>  (26) 
pication:PHE:134    0
pication:PHE:134    0
Name: 25, dtype: object

>  <hydroph_interaction:ALA:135>  (26) 
hydroph_interaction:ALA:135    0
hydroph_interaction:ALA:135    0
Name: 25, dtype: object

>  <hbond:ALA:135>  (26) 
hbond:ALA:135    0
hbond:ALA:135    0
Name: 25, dtype: object

$$$$
Z5134528938
     RDKit          3D

 37 38  0  0  0  0  0  0  0  0999 V2000
   10.2720    9.0990   22.5380 C   0  0  0  0  0  0  0  0  0  0  0  0
    9.6960   10.2520   23.2860 C   0  0  0  0  0  0  0  0  0  0  0  0
   10.2170   11.5280   23.1490 C   0  0  0  0  0  0  0  0  0  0  0  0
    9.6980   12.6220   23.8570 C   0  0  0  0  0  0  0  0  0  0  0  0
   10.4070   13.9250   23.6120 C   0  0  0  0  0  0  0  0  0  0  0  0
    8.5940   12.4230   24.7210 C   0  0  0  0  0  0  0  0  0  0  0  0
    7.9560   13.4230   25.5020 N   0  0  0  0  0  0  0  0  0  0  0  0
    7.3730   14.6110   25.1030 C   0  0  0  0  0  0  0  0  0  0  0  0
    6.9270   14.8540   23.9840 O   0  0  0  0  0  0  0  0  0  0  0  0
    7.3640   15.6400   26.2750 C   0  0  2  0  0  0  0  0  0  0  0  0
    8.7540   15.8260   26.9330 C   0  0  0  0  0  0  0  0  0  0  0  0
    8.7370   16.9230   27.8500 O   0  0  0  0  0  0  0  0  0  0  0  0
    7.4320   17.1660   28.3820 C   0  0  0  0  0  0  0  0  0  0  0  0
    6.6190   15.8600   28.5390 C   0  0  0  0  0  0  0  0  0  0  0  0
    6.4100   15.2140   27.2700 O   0  0  0  0  0  0  0  0  0  0  0  0
    8.0590   11.1270   24.8500 C   0  0  0  0  0  0  0  0  0  0  0  0
    6.8820   10.8330   25.7390 C   0  0  0  0  0  0  0  0  0  0  0  0
    8.6260   10.0660   24.1360 C   0  0  0  0  0  0  0  0  0  0  0  0
   10.9740    8.5330   23.1570 H   0  0  0  0  0  0  0  0  0  0  0  0
    9.4710    8.4380   22.2030 H   0  0  0  0  0  0  0  0  0  0  0  0
   10.8200    9.4470   21.6600 H   0  0  0  0  0  0  0  0  0  0  0  0
   11.0590   11.6900   22.4800 H   0  0  0  0  0  0  0  0  0  0  0  0
   11.4490   13.7460   23.3310 H   0  0  0  0  0  0  0  0  0  0  0  0
    9.9290   14.4670   22.7910 H   0  0  0  0  0  0  0  0  0  0  0  0
   10.3560   14.5840   24.4820 H   0  0  0  0  0  0  0  0  0  0  0  0
    7.6870   13.1370   26.4310 H   0  0  0  0  0  0  0  0  0  0  0  0
    6.9820   16.6130   25.9260 H   0  0  0  0  0  0  0  0  0  0  0  0
    9.5570   16.0340   26.2250 H   0  0  0  0  0  0  0  0  0  0  0  0
    9.0590   14.9550   27.5240 H   0  0  0  0  0  0  0  0  0  0  0  0
    7.5860   17.7060   29.3190 H   0  0  0  0  0  0  0  0  0  0  0  0
    6.9550   17.8590   27.6800 H   0  0  0  0  0  0  0  0  0  0  0  0
    5.6230   16.0480   28.9570 H   0  0  0  0  0  0  0  0  0  0  0  0
    7.1030   15.1180   29.1780 H   0  0  0  0  0  0  0  0  0  0  0  0
    6.1340   11.6310   25.6910 H   0  0  0  0  0  0  0  0  0  0  0  0
    7.1740   10.7370   26.7810 H   0  0  0  0  0  0  0  0  0  0  0  0
    6.3910    9.9160   25.4130 H   0  0  0  0  0  0  0  0  0  0  0  0
    8.2170    9.0680   24.2450 H   0  0  0  0  0  0  0  0  0  0  0  0
  1  2  1  0
  2  3  2  0
  3  4  1  0
  4  5  1  0
  4  6  2  0
  6  7  1  0
  7  8  1  0
  8  9  2  0
  8 10  1  0
 10 11  1  0
 11 12  1  0
 12 13  1  0
 13 14  1  0
 14 15  1  0
  6 16  1  0
 16 17  1  0
 16 18  2  0
 18  2  1  0
 15 10  1  0
  1 19  1  0
  1 20  1  0
  1 21  1  0
  3 22  1  0
  5 23  1  0
  5 24  1  0
  5 25  1  0
  7 26  1  0
 10 27  1  6
 11 28  1  0
 11 29  1  0
 13 30  1  0
 13 31  1  0
 14 32  1  0
 14 33  1  0
 17 34  1  0
 17 35  1  0
 17 36  1  0
 18 37  1  0
A    1
 C1 
A    2
 C2 
A    3
 C3 
A    4
 C4 
A    5
 C5 
A    6
 C6 
A    7
 N1 
A    8
 C7 
A    9
 O1 
A   10
 C8 
A   11
 C9 
A   12
 O2 
A   13
 C10
A   14
 C11
A   15
 O3 
A   16
 C12
A   17
 C13
A   18
 C14
A   19
 H1 
A   20
 H2 
A   21
 H3 
A   22
 H4 
A   23
 H5 
A   24
 H6 
A   25
 H7 
A   26
 H8 
A   27
 H9 
A   28
 H10
A   29
 H11
A   30
 H12
A   31
 H13
A   32
 H14
A   33
 H15
A   34
 H16
A   35
 H17
A   36
 H18
A   37
 H19
M  END
>  <ref_pdb>  (27) 
x0310_0A

>  <ref_mols>  (27) 
x0554_0A,x0812_0A,x0416_0A

>  <original SMILES>  (27) 
Cc1cc(C)c(NC(=O)[C@@H]2COCCO2)c(C)c1

>  <rationale>  (27) 
info hbond:E88; hydroph_interaction:P107+V124; 

>  <intxn_cluster>  (27) 
103

>  <intxn_cluster_rank>  (27) 
93

>  <N_interactions>  (27) 
3

>  <∆∆G>  (27) 
-10.797444

>  <$/mg>  (27) 
163.0

>  <comRMSD>  (27) 
0.908706

>  <N_rotatable_bonds>  (27) 
5

>  <hbond:SER:7>  (27) 
hbond:SER:7    0
hbond:SER:7    0
Name: 26, dtype: object

>  <halogenbond:SER:7>  (27) 
halogenbond:SER:7    0
halogenbond:SER:7    0
Name: 26, dtype: object

>  <hbond:GLY:8>  (27) 
hbond:GLY:8    0
hbond:GLY:8    0
Name: 26, dtype: object

>  <hydroph_interaction:ASN:19>  (27) 
hydroph_interaction:ASN:19    0
hydroph_interaction:ASN:19    0
Name: 26, dtype: object

>  <hbond:ASN:19>  (27) 
hbond:ASN:19    0
hbond:ASN:19    0
Name: 26, dtype: object

>  <halogenbond:ASN:19>  (27) 
halogenbond:ASN:19    0
halogenbond:ASN:19    0
Name: 26, dtype: object

>  <hbond:ARG:20>  (27) 
hbond:ARG:20    0
hbond:ARG:20    0
Name: 26, dtype: object

>  <hydroph_interaction:ARG:20>  (27) 
hydroph_interaction:ARG:20    0
hydroph_interaction:ARG:20    0
Name: 26, dtype: object

>  <saltbridge:ARG:20>  (27) 
saltbridge:ARG:20    0
saltbridge:ARG:20    0
Name: 26, dtype: object

>  <halogenbond:ARG:20>  (27) 
halogenbond:ARG:20    0
halogenbond:ARG:20    0
Name: 26, dtype: object

>  <pication:ARG:20>  (27) 
pication:ARG:20    0
pication:ARG:20    0
Name: 26, dtype: object

>  <hbond:HIS:21>  (27) 
hbond:HIS:21    0
hbond:HIS:21    0
Name: 26, dtype: object

>  <hydroph_interaction:HIS:21>  (27) 
hydroph_interaction:HIS:21    0
hydroph_interaction:HIS:21    0
Name: 26, dtype: object

>  <saltbridge:HIS:21>  (27) 
saltbridge:HIS:21    0
saltbridge:HIS:21    0
Name: 26, dtype: object

>  <pistack:HIS:21>  (27) 
pistack:HIS:21    0
pistack:HIS:21    0
Name: 26, dtype: object

>  <pication:HIS:21>  (27) 
pication:HIS:21    0
pication:HIS:21    0
Name: 26, dtype: object

>  <halogenbond:HIS:21>  (27) 
halogenbond:HIS:21    0
halogenbond:HIS:21    0
Name: 26, dtype: object

>  <hydroph_interaction:LEU:22>  (27) 
hydroph_interaction:LEU:22    0
hydroph_interaction:LEU:22    0
Name: 26, dtype: object

>  <hbond:LEU:22>  (27) 
hbond:LEU:22    0
hbond:LEU:22    0
Name: 26, dtype: object

>  <hydroph_interaction:TRP:28>  (27) 
hydroph_interaction:TRP:28    0
hydroph_interaction:TRP:28    0
Name: 26, dtype: object

>  <hbond:SER:36>  (27) 
hbond:SER:36    0
hbond:SER:36    0
Name: 26, dtype: object

>  <halogenbond:SER:36>  (27) 
halogenbond:SER:36    0
halogenbond:SER:36    0
Name: 26, dtype: object

>  <hbond:ARG:38>  (27) 
hbond:ARG:38    0
hbond:ARG:38    0
Name: 26, dtype: object

>  <halogenbond:ARG:38>  (27) 
halogenbond:ARG:38    0
halogenbond:ARG:38    0
Name: 26, dtype: object

>  <hbond:ASP:39>  (27) 
hbond:ASP:39    0
hbond:ASP:39    0
Name: 26, dtype: object

>  <saltbridge:ASP:39>  (27) 
saltbridge:ASP:39    0
saltbridge:ASP:39    0
Name: 26, dtype: object

>  <hydroph_interaction:ASP:39>  (27) 
hydroph_interaction:ASP:39    0
hydroph_interaction:ASP:39    0
Name: 26, dtype: object

>  <halogenbond:ASP:39>  (27) 
halogenbond:ASP:39    0
halogenbond:ASP:39    0
Name: 26, dtype: object

>  <hydroph_interaction:LEU:40>  (27) 
hydroph_interaction:LEU:40    0
hydroph_interaction:LEU:40    0
Name: 26, dtype: object

>  <hydroph_interaction:TYR:63>  (27) 
hydroph_interaction:TYR:63    0
hydroph_interaction:TYR:63    0
Name: 26, dtype: object

>  <pistack:TYR:63>  (27) 
pistack:TYR:63    0
pistack:TYR:63    0
Name: 26, dtype: object

>  <hbond:TYR:63>  (27) 
hbond:TYR:63    0
hbond:TYR:63    0
Name: 26, dtype: object

>  <hbond:TYR:64>  (27) 
hbond:TYR:64    0
hbond:TYR:64    0
Name: 26, dtype: object

>  <halogenbond:TYR:64>  (27) 
halogenbond:TYR:64    0
halogenbond:TYR:64    0
Name: 26, dtype: object

>  <hydroph_interaction:TYR:64>  (27) 
hydroph_interaction:TYR:64    0
hydroph_interaction:TYR:64    0
Name: 26, dtype: object

>  <hbond:CYS:65>  (27) 
hbond:CYS:65    0
hbond:CYS:65    0
Name: 26, dtype: object

>  <halogenbond:CYS:65>  (27) 
halogenbond:CYS:65    0
halogenbond:CYS:65    0
Name: 26, dtype: object

>  <hbond:SER:66>  (27) 
hbond:SER:66    0
hbond:SER:66    0
Name: 26, dtype: object

>  <hbond:SER:67>  (27) 
hbond:SER:67    0
hbond:SER:67    0
Name: 26, dtype: object

>  <halogenbond:SER:67>  (27) 
halogenbond:SER:67    0
halogenbond:SER:67    0
Name: 26, dtype: object

>  <hydroph_interaction:ARG:68>  (27) 
hydroph_interaction:ARG:68    0
hydroph_interaction:ARG:68    0
Name: 26, dtype: object

>  <hbond:ARG:68>  (27) 
hbond:ARG:68    0
hbond:ARG:68    0
Name: 26, dtype: object

>  <saltbridge:ARG:68>  (27) 
saltbridge:ARG:68    0
saltbridge:ARG:68    0
Name: 26, dtype: object

>  <pication:ARG:68>  (27) 
pication:ARG:68    0
pication:ARG:68    0
Name: 26, dtype: object

>  <hydroph_interaction:TYR:72>  (27) 
hydroph_interaction:TYR:72    0
hydroph_interaction:TYR:72    0
Name: 26, dtype: object

>  <hydroph_interaction:VAL:74>  (27) 
hydroph_interaction:VAL:74    0
hydroph_interaction:VAL:74    0
Name: 26, dtype: object

>  <hydroph_interaction:PHE:76>  (27) 
hydroph_interaction:PHE:76    0
hydroph_interaction:PHE:76    0
Name: 26, dtype: object

>  <hbond:SER:77>  (27) 
hbond:SER:77    0
hbond:SER:77    0
Name: 26, dtype: object

>  <hbond:SER:80>  (27) 
hbond:SER:80    0
hbond:SER:80    0
Name: 26, dtype: object

>  <hbond:LEU:81>  (27) 
hbond:LEU:81    0
hbond:LEU:81    0
Name: 26, dtype: object

>  <halogenbond:LEU:81>  (27) 
halogenbond:LEU:81    0
halogenbond:LEU:81    0
Name: 26, dtype: object

>  <hydroph_interaction:LEU:81>  (27) 
hydroph_interaction:LEU:81    0
hydroph_interaction:LEU:81    0
Name: 26, dtype: object

>  <hydroph_interaction:ILE:82>  (27) 
hydroph_interaction:ILE:82    0
hydroph_interaction:ILE:82    0
Name: 26, dtype: object

>  <hbond:ILE:82>  (27) 
hbond:ILE:82    0
hbond:ILE:82    0
Name: 26, dtype: object

>  <hydroph_interaction:PHE:83>  (27) 
hydroph_interaction:PHE:83    0
hydroph_interaction:PHE:83    0
Name: 26, dtype: object

>  <hbond:PHE:83>  (27) 
hbond:PHE:83    0
hbond:PHE:83    0
Name: 26, dtype: object

>  <halogenbond:PHE:83>  (27) 
halogenbond:PHE:83    0
halogenbond:PHE:83    0
Name: 26, dtype: object

>  <pistack:PHE:83>  (27) 
pistack:PHE:83    0
pistack:PHE:83    0
Name: 26, dtype: object

>  <hydroph_interaction:VAL:84>  (27) 
hydroph_interaction:VAL:84    0
hydroph_interaction:VAL:84    0
Name: 26, dtype: object

>  <hbond:VAL:84>  (27) 
hbond:VAL:84    0
hbond:VAL:84    0
Name: 26, dtype: object

>  <halogenbond:VAL:84>  (27) 
halogenbond:VAL:84    0
halogenbond:VAL:84    0
Name: 26, dtype: object

>  <hydroph_interaction:GLU:85>  (27) 
hydroph_interaction:GLU:85    0
hydroph_interaction:GLU:85    0
Name: 26, dtype: object

>  <hbond:GLU:85>  (27) 
hbond:GLU:85    0
hbond:GLU:85    0
Name: 26, dtype: object

>  <saltbridge:GLU:85>  (27) 
saltbridge:GLU:85    0
saltbridge:GLU:85    0
Name: 26, dtype: object

>  <halogenbond:GLU:85>  (27) 
halogenbond:GLU:85    0
halogenbond:GLU:85    0
Name: 26, dtype: object

>  <hbond:ALA:86>  (27) 
hbond:ALA:86    0
hbond:ALA:86    0
Name: 26, dtype: object

>  <halogenbond:ALA:86>  (27) 
halogenbond:ALA:86    0
halogenbond:ALA:86    0
Name: 26, dtype: object

>  <hydroph_interaction:ALA:86>  (27) 
hydroph_interaction:ALA:86    0
hydroph_interaction:ALA:86    0
Name: 26, dtype: object

>  <hbond:SER:87>  (27) 
hbond:SER:87    0
hbond:SER:87    0
Name: 26, dtype: object

>  <halogenbond:SER:87>  (27) 
halogenbond:SER:87    0
halogenbond:SER:87    0
Name: 26, dtype: object

>  <hbond:GLU:88>  (27) 
hbond:GLU:88    1
hbond:GLU:88    1
Name: 26, dtype: object

>  <hydroph_interaction:GLU:88>  (27) 
hydroph_interaction:GLU:88    0
hydroph_interaction:GLU:88    0
Name: 26, dtype: object

>  <halogenbond:GLU:88>  (27) 
halogenbond:GLU:88    0
halogenbond:GLU:88    0
Name: 26, dtype: object

>  <saltbridge:GLU:88>  (27) 
saltbridge:GLU:88    0
saltbridge:GLU:88    0
Name: 26, dtype: object

>  <hydroph_interaction:TYR:89>  (27) 
hydroph_interaction:TYR:89    0
hydroph_interaction:TYR:89    0
Name: 26, dtype: object

>  <pistack:TYR:89>  (27) 
pistack:TYR:89    0
pistack:TYR:89    0
Name: 26, dtype: object

>  <hbond:TYR:89>  (27) 
hbond:TYR:89    0
hbond:TYR:89    0
Name: 26, dtype: object

>  <halogenbond:TYR:89>  (27) 
halogenbond:TYR:89    0
halogenbond:TYR:89    0
Name: 26, dtype: object

>  <hbond:TYR:90>  (27) 
hbond:TYR:90    0
hbond:TYR:90    0
Name: 26, dtype: object

>  <hydroph_interaction:TYR:90>  (27) 
hydroph_interaction:TYR:90    0
hydroph_interaction:TYR:90    0
Name: 26, dtype: object

>  <pistack:TYR:90>  (27) 
pistack:TYR:90    0
pistack:TYR:90    0
Name: 26, dtype: object

>  <halogenbond:TYR:90>  (27) 
halogenbond:TYR:90    0
halogenbond:TYR:90    0
Name: 26, dtype: object

>  <pication:TYR:90>  (27) 
pication:TYR:90    0
pication:TYR:90    0
Name: 26, dtype: object

>  <hydroph_interaction:PRO:91>  (27) 
hydroph_interaction:PRO:91    0
hydroph_interaction:PRO:91    0
Name: 26, dtype: object

>  <halogenbond:PRO:91>  (27) 
halogenbond:PRO:91    0
halogenbond:PRO:91    0
Name: 26, dtype: object

>  <hbond:PRO:91>  (27) 
hbond:PRO:91    0
hbond:PRO:91    0
Name: 26, dtype: object

>  <hydroph_interaction:ALA:92>  (27) 
hydroph_interaction:ALA:92    0
hydroph_interaction:ALA:92    0
Name: 26, dtype: object

>  <hbond:ARG:93>  (27) 
hbond:ARG:93    0
hbond:ARG:93    0
Name: 26, dtype: object

>  <pication:ARG:93>  (27) 
pication:ARG:93    0
pication:ARG:93    0
Name: 26, dtype: object

>  <saltbridge:ARG:93>  (27) 
saltbridge:ARG:93    0
saltbridge:ARG:93    0
Name: 26, dtype: object

>  <hydroph_interaction:ARG:93>  (27) 
hydroph_interaction:ARG:93    0
hydroph_interaction:ARG:93    0
Name: 26, dtype: object

>  <halogenbond:ARG:93>  (27) 
halogenbond:ARG:93    0
halogenbond:ARG:93    0
Name: 26, dtype: object

>  <hydroph_interaction:TYR:94>  (27) 
hydroph_interaction:TYR:94    0
hydroph_interaction:TYR:94    0
Name: 26, dtype: object

>  <hbond:TYR:94>  (27) 
hbond:TYR:94    0
hbond:TYR:94    0
Name: 26, dtype: object

>  <halogenbond:GLN:95>  (27) 
halogenbond:GLN:95    0
halogenbond:GLN:95    0
Name: 26, dtype: object

>  <hbond:GLN:95>  (27) 
hbond:GLN:95    0
hbond:GLN:95    0
Name: 26, dtype: object

>  <hydroph_interaction:GLN:95>  (27) 
hydroph_interaction:GLN:95    0
hydroph_interaction:GLN:95    0
Name: 26, dtype: object

>  <hbond:SER:96>  (27) 
hbond:SER:96    0
hbond:SER:96    0
Name: 26, dtype: object

>  <hydroph_interaction:LEU:98>  (27) 
hydroph_interaction:LEU:98    0
hydroph_interaction:LEU:98    0
Name: 26, dtype: object

>  <hbond:LEU:98>  (27) 
hbond:LEU:98    0
hbond:LEU:98    0
Name: 26, dtype: object

>  <hbond:MET:99>  (27) 
hbond:MET:99    0
hbond:MET:99    0
Name: 26, dtype: object

>  <hydroph_interaction:MET:99>  (27) 
hydroph_interaction:MET:99    0
hydroph_interaction:MET:99    0
Name: 26, dtype: object

>  <halogenbond:MET:99>  (27) 
halogenbond:MET:99    0
halogenbond:MET:99    0
Name: 26, dtype: object

>  <hydroph_interaction:LEU:100>  (27) 
hydroph_interaction:LEU:100    0
hydroph_interaction:LEU:100    0
Name: 26, dtype: object

>  <hbond:LEU:100>  (27) 
hbond:LEU:100    0
hbond:LEU:100    0
Name: 26, dtype: object

>  <hbond:ALA:101>  (27) 
hbond:ALA:101    0
hbond:ALA:101    0
Name: 26, dtype: object

>  <hydroph_interaction:ALA:101>  (27) 
hydroph_interaction:ALA:101    0
hydroph_interaction:ALA:101    0
Name: 26, dtype: object

>  <hydroph_interaction:VAL:102>  (27) 
hydroph_interaction:VAL:102    0
hydroph_interaction:VAL:102    0
Name: 26, dtype: object

>  <hbond:VAL:102>  (27) 
hbond:VAL:102    0
hbond:VAL:102    0
Name: 26, dtype: object

>  <hbond:GLY:103>  (27) 
hbond:GLY:103    0
hbond:GLY:103    0
Name: 26, dtype: object

>  <halogenbond:GLY:103>  (27) 
halogenbond:GLY:103    0
halogenbond:GLY:103    0
Name: 26, dtype: object

>  <hydroph_interaction:HIS:104>  (27) 
hydroph_interaction:HIS:104    0
hydroph_interaction:HIS:104    0
Name: 26, dtype: object

>  <hbond:HIS:104>  (27) 
hbond:HIS:104    0
hbond:HIS:104    0
Name: 26, dtype: object

>  <saltbridge:HIS:104>  (27) 
saltbridge:HIS:104    0
saltbridge:HIS:104    0
Name: 26, dtype: object

>  <pication:HIS:104>  (27) 
pication:HIS:104    0
pication:HIS:104    0
Name: 26, dtype: object

>  <pistack:HIS:104>  (27) 
pistack:HIS:104    0
pistack:HIS:104    0
Name: 26, dtype: object

>  <halogenbond:HIS:104>  (27) 
halogenbond:HIS:104    0
halogenbond:HIS:104    0
Name: 26, dtype: object

>  <hbond:SER:105>  (27) 
hbond:SER:105    0
hbond:SER:105    0
Name: 26, dtype: object

>  <halogenbond:SER:105>  (27) 
halogenbond:SER:105    0
halogenbond:SER:105    0
Name: 26, dtype: object

>  <hbond:GLU:106>  (27) 
hbond:GLU:106    0
hbond:GLU:106    0
Name: 26, dtype: object

>  <hydroph_interaction:GLU:106>  (27) 
hydroph_interaction:GLU:106    0
hydroph_interaction:GLU:106    0
Name: 26, dtype: object

>  <saltbridge:GLU:106>  (27) 
saltbridge:GLU:106    0
saltbridge:GLU:106    0
Name: 26, dtype: object

>  <halogenbond:GLU:106>  (27) 
halogenbond:GLU:106    0
halogenbond:GLU:106    0
Name: 26, dtype: object

>  <hydroph_interaction:PRO:107>  (27) 
hydroph_interaction:PRO:107    1
hydroph_interaction:PRO:107    1
Name: 26, dtype: object

>  <hbond:PRO:107>  (27) 
hbond:PRO:107    0
hbond:PRO:107    0
Name: 26, dtype: object

>  <halogenbond:PRO:107>  (27) 
halogenbond:PRO:107    0
halogenbond:PRO:107    0
Name: 26, dtype: object

>  <hbond:GLY:108>  (27) 
hbond:GLY:108    0
hbond:GLY:108    0
Name: 26, dtype: object

>  <halogenbond:GLY:108>  (27) 
halogenbond:GLY:108    0
halogenbond:GLY:108    0
Name: 26, dtype: object

>  <hbond:ASP:109>  (27) 
hbond:ASP:109    0
hbond:ASP:109    0
Name: 26, dtype: object

>  <hydroph_interaction:ASP:109>  (27) 
hydroph_interaction:ASP:109    0
hydroph_interaction:ASP:109    0
Name: 26, dtype: object

>  <saltbridge:ASP:109>  (27) 
saltbridge:ASP:109    0
saltbridge:ASP:109    0
Name: 26, dtype: object

>  <hbond:CYS:110>  (27) 
hbond:CYS:110    0
hbond:CYS:110    0
Name: 26, dtype: object

>  <halogenbond:CYS:110>  (27) 
halogenbond:CYS:110    0
halogenbond:CYS:110    0
Name: 26, dtype: object

>  <hbond:GLY:111>  (27) 
hbond:GLY:111    0
hbond:GLY:111    0
Name: 26, dtype: object

>  <hbond:GLY:112>  (27) 
hbond:GLY:112    0
hbond:GLY:112    0
Name: 26, dtype: object

>  <hbond:ILE:113>  (27) 
hbond:ILE:113    0
hbond:ILE:113    0
Name: 26, dtype: object

>  <hydroph_interaction:LEU:114>  (27) 
hydroph_interaction:LEU:114    0
hydroph_interaction:LEU:114    0
Name: 26, dtype: object

>  <hbond:LEU:114>  (27) 
hbond:LEU:114    0
hbond:LEU:114    0
Name: 26, dtype: object

>  <hydroph_interaction:ILE:123>  (27) 
hydroph_interaction:ILE:123    0
hydroph_interaction:ILE:123    0
Name: 26, dtype: object

>  <hbond:ILE:123>  (27) 
hbond:ILE:123    0
hbond:ILE:123    0
Name: 26, dtype: object

>  <hydroph_interaction:VAL:124>  (27) 
hydroph_interaction:VAL:124    1
hydroph_interaction:VAL:124    1
Name: 26, dtype: object

>  <hbond:VAL:124>  (27) 
hbond:VAL:124    0
hbond:VAL:124    0
Name: 26, dtype: object

>  <halogenbond:VAL:124>  (27) 
halogenbond:VAL:124    0
halogenbond:VAL:124    0
Name: 26, dtype: object

>  <hbond:SER:125>  (27) 
hbond:SER:125    0
hbond:SER:125    0
Name: 26, dtype: object

>  <halogenbond:SER:125>  (27) 
halogenbond:SER:125    0
halogenbond:SER:125    0
Name: 26, dtype: object

>  <hydroph_interaction:THR:126>  (27) 
hydroph_interaction:THR:126    0
hydroph_interaction:THR:126    0
Name: 26, dtype: object

>  <hbond:THR:126>  (27) 
hbond:THR:126    0
hbond:THR:126    0
Name: 26, dtype: object

>  <halogenbond:THR:126>  (27) 
halogenbond:THR:126    0
halogenbond:THR:126    0
Name: 26, dtype: object

>  <hbond:GLY:127>  (27) 
hbond:GLY:127    0
hbond:GLY:127    0
Name: 26, dtype: object

>  <halogenbond:GLY:127>  (27) 
halogenbond:GLY:127    0
halogenbond:GLY:127    0
Name: 26, dtype: object

>  <hydroph_interaction:GLY:127>  (27) 
hydroph_interaction:GLY:127    0
hydroph_interaction:GLY:127    0
Name: 26, dtype: object

>  <hbond:GLY:128>  (27) 
hbond:GLY:128    0
hbond:GLY:128    0
Name: 26, dtype: object

>  <halogenbond:GLY:128>  (27) 
halogenbond:GLY:128    0
halogenbond:GLY:128    0
Name: 26, dtype: object

>  <hydroph_interaction:GLY:128>  (27) 
hydroph_interaction:GLY:128    0
hydroph_interaction:GLY:128    0
Name: 26, dtype: object

>  <hbond:ASN:129>  (27) 
hbond:ASN:129    0
hbond:ASN:129    0
Name: 26, dtype: object

>  <hydroph_interaction:ASN:129>  (27) 
hydroph_interaction:ASN:129    0
hydroph_interaction:ASN:129    0
Name: 26, dtype: object

>  <halogenbond:ASN:129>  (27) 
halogenbond:ASN:129    0
halogenbond:ASN:129    0
Name: 26, dtype: object

>  <hbond:GLY:130>  (27) 
hbond:GLY:130    0
hbond:GLY:130    0
Name: 26, dtype: object

>  <hydroph_interaction:LEU:131>  (27) 
hydroph_interaction:LEU:131    0
hydroph_interaction:LEU:131    0
Name: 26, dtype: object

>  <hbond:LEU:131>  (27) 
hbond:LEU:131    0
hbond:LEU:131    0
Name: 26, dtype: object

>  <halogenbond:LEU:131>  (27) 
halogenbond:LEU:131    0
halogenbond:LEU:131    0
Name: 26, dtype: object

>  <hydroph_interaction:VAL:132>  (27) 
hydroph_interaction:VAL:132    0
hydroph_interaction:VAL:132    0
Name: 26, dtype: object

>  <hbond:VAL:132>  (27) 
hbond:VAL:132    0
hbond:VAL:132    0
Name: 26, dtype: object

>  <hbond:GLY:133>  (27) 
hbond:GLY:133    0
hbond:GLY:133    0
Name: 26, dtype: object

>  <halogenbond:GLY:133>  (27) 
halogenbond:GLY:133    0
halogenbond:GLY:133    0
Name: 26, dtype: object

>  <hydroph_interaction:PHE:134>  (27) 
hydroph_interaction:PHE:134    0
hydroph_interaction:PHE:134    0
Name: 26, dtype: object

>  <hbond:PHE:134>  (27) 
hbond:PHE:134    0
hbond:PHE:134    0
Name: 26, dtype: object

>  <pistack:PHE:134>  (27) 
pistack:PHE:134    0
pistack:PHE:134    0
Name: 26, dtype: object

>  <pication:PHE:134>  (27) 
pication:PHE:134    0
pication:PHE:134    0
Name: 26, dtype: object

>  <hydroph_interaction:ALA:135>  (27) 
hydroph_interaction:ALA:135    0
hydroph_interaction:ALA:135    0
Name: 26, dtype: object

>  <hbond:ALA:135>  (27) 
hbond:ALA:135    0
hbond:ALA:135    0
Name: 26, dtype: object

$$$$
PV_002910597895
     RDKit          3D

 31 32  0  0  0  0  0  0  0  0999 V2000
   12.1560   15.2690   21.9420 C   0  0  0  0  0  0  0  0  0  0  0  0
   11.4980   14.2280   22.8270 C   0  0  0  0  0  0  0  0  0  0  0  0
   11.9290   14.1230   24.1350 C   0  0  0  0  0  0  0  0  0  0  0  0
   10.5410   13.4530   22.3150 C   0  0  0  0  0  0  0  0  0  0  0  0
    9.8800   12.4380   22.9890 C   0  0  0  0  0  0  0  0  0  0  0  0
    8.8930   12.6540   23.9360 C   0  0  0  0  0  0  0  0  0  0  0  0
    8.3770   13.8250   24.3940 O   0  0  0  0  0  0  0  0  0  0  0  0
    7.4170   13.4980   25.3280 C   0  0  0  0  0  0  0  0  0  0  0  0
    6.6810   14.6310   25.9940 C   0  0  0  0  0  0  0  0  0  0  0  0
    6.9850   15.8090   25.9210 O   0  0  0  0  0  0  0  0  0  0  0  0
    5.6090   14.2310   26.7070 O   0  0  0  0  0  0  0  0  0  0  0  0
    7.3320   12.1210   25.4600 C   0  0  0  0  0  0  0  0  0  0  0  0
    8.2670   11.6130   24.5770 C   0  0  0  0  0  0  0  0  0  0  0  0
    8.5800   10.2950   24.3190 C   0  0  0  0  0  0  0  0  0  0  0  0
    9.5700   10.0560   23.3710 C   0  0  0  0  0  0  0  0  0  0  0  0
    9.9900    8.8040   23.0130 C   0  0  0  0  0  0  0  0  0  0  0  0
   10.1820   11.1050   22.7390 C   0  0  0  0  0  0  0  0  0  0  0  0
   11.5380   15.5070   21.0710 H   0  0  0  0  0  0  0  0  0  0  0  0
   12.3610   16.1990   22.4870 H   0  0  0  0  0  0  0  0  0  0  0  0
   13.1160   14.8900   21.5750 H   0  0  0  0  0  0  0  0  0  0  0  0
   11.1900   14.0300   24.9240 H   0  0  0  0  0  0  0  0  0  0  0  0
   12.5260   15.0090   24.3850 H   0  0  0  0  0  0  0  0  0  0  0  0
   12.6110   13.2700   24.2270 H   0  0  0  0  0  0  0  0  0  0  0  0
   10.2330   13.5860   21.2830 H   0  0  0  0  0  0  0  0  0  0  0  0
    4.8690   14.4030   26.0850 H   0  0  0  0  0  0  0  0  0  0  0  0
    6.6700   11.5740   26.1180 H   0  0  0  0  0  0  0  0  0  0  0  0
    8.0900    9.4690   24.8220 H   0  0  0  0  0  0  0  0  0  0  0  0
    9.8160    8.1650   23.8510 H   0  0  0  0  0  0  0  0  0  0  0  0
   11.0390    8.6790   22.7630 H   0  0  0  0  0  0  0  0  0  0  0  0
    9.3950    8.4520   22.1690 H   0  0  0  0  0  0  0  0  0  0  0  0
   10.9380   10.8830   22.0100 H   0  0  0  0  0  0  0  0  0  0  0  0
  1  2  1  0
  2  3  1  0
  2  4  2  3
  4  5  1  0
  5  6  2  0
  6  7  1  0
  7  8  1  0
  8  9  1  0
  9 10  2  0
  9 11  1  0
  8 12  2  0
 12 13  1  0
 13 14  2  0
 14 15  1  0
 15 16  1  0
 15 17  2  0
 17  5  1  0
 13  6  1  0
  1 18  1  0
  1 19  1  0
  1 20  1  0
  3 21  1  0
  3 22  1  0
  3 23  1  0
  4 24  1  0
 11 25  1  0
 12 26  1  0
 14 27  1  0
 16 28  1  0
 16 29  1  0
 16 30  1  0
 17 31  1  0
A    1
 C1 
A    2
 C2 
A    3
 C3 
A    4
 C4 
A    5
 C5 
A    6
 C6 
A    7
 O1 
A    8
 C7 
A    9
 C8 
A   10
 O2 
A   11
 O3 
A   12
 C9 
A   13
 C10
A   14
 C11
A   15
 C12
A   16
 C13
A   17
 C14
A   18
 H1 
A   19
 H2 
A   20
 H3 
A   21
 H4 
A   22
 H5 
A   23
 H6 
A   24
 H7 
A   25
 H8 
A   26
 H9 
A   27
 H10
A   28
 H11
A   29
 H12
A   30
 H13
A   31
 H14
M  END
>  <ref_pdb>  (28) 
x0310_0A

>  <ref_mols>  (28) 
x0554_0A,x0416_0A,x0446_0A

>  <original SMILES>  (28) 
CC(C)=Cc1cc(C)cc2cc(C(=O)O)oc12

>  <rationale>  (28) 
info hydroph_interaction:P107+V124; 

>  <intxn_cluster>  (28) 
103

>  <intxn_cluster_rank>  (28) 
96

>  <N_interactions>  (28) 
3

>  <∆∆G>  (28) 
-12.067702

>  <$/mg>  (28) 
163.0

>  <comRMSD>  (28) 
0.897181

>  <N_rotatable_bonds>  (28) 
5

>  <hbond:SER:7>  (28) 
hbond:SER:7    0
hbond:SER:7    0
Name: 27, dtype: object

>  <halogenbond:SER:7>  (28) 
halogenbond:SER:7    0
halogenbond:SER:7    0
Name: 27, dtype: object

>  <hbond:GLY:8>  (28) 
hbond:GLY:8    0
hbond:GLY:8    0
Name: 27, dtype: object

>  <hydroph_interaction:ASN:19>  (28) 
hydroph_interaction:ASN:19    0
hydroph_interaction:ASN:19    0
Name: 27, dtype: object

>  <hbond:ASN:19>  (28) 
hbond:ASN:19    0
hbond:ASN:19    0
Name: 27, dtype: object

>  <halogenbond:ASN:19>  (28) 
halogenbond:ASN:19    0
halogenbond:ASN:19    0
Name: 27, dtype: object

>  <hbond:ARG:20>  (28) 
hbond:ARG:20    0
hbond:ARG:20    0
Name: 27, dtype: object

>  <hydroph_interaction:ARG:20>  (28) 
hydroph_interaction:ARG:20    0
hydroph_interaction:ARG:20    0
Name: 27, dtype: object

>  <saltbridge:ARG:20>  (28) 
saltbridge:ARG:20    0
saltbridge:ARG:20    0
Name: 27, dtype: object

>  <halogenbond:ARG:20>  (28) 
halogenbond:ARG:20    0
halogenbond:ARG:20    0
Name: 27, dtype: object

>  <pication:ARG:20>  (28) 
pication:ARG:20    0
pication:ARG:20    0
Name: 27, dtype: object

>  <hbond:HIS:21>  (28) 
hbond:HIS:21    0
hbond:HIS:21    0
Name: 27, dtype: object

>  <hydroph_interaction:HIS:21>  (28) 
hydroph_interaction:HIS:21    0
hydroph_interaction:HIS:21    0
Name: 27, dtype: object

>  <saltbridge:HIS:21>  (28) 
saltbridge:HIS:21    0
saltbridge:HIS:21    0
Name: 27, dtype: object

>  <pistack:HIS:21>  (28) 
pistack:HIS:21    0
pistack:HIS:21    0
Name: 27, dtype: object

>  <pication:HIS:21>  (28) 
pication:HIS:21    0
pication:HIS:21    0
Name: 27, dtype: object

>  <halogenbond:HIS:21>  (28) 
halogenbond:HIS:21    0
halogenbond:HIS:21    0
Name: 27, dtype: object

>  <hydroph_interaction:LEU:22>  (28) 
hydroph_interaction:LEU:22    0
hydroph_interaction:LEU:22    0
Name: 27, dtype: object

>  <hbond:LEU:22>  (28) 
hbond:LEU:22    0
hbond:LEU:22    0
Name: 27, dtype: object

>  <hydroph_interaction:TRP:28>  (28) 
hydroph_interaction:TRP:28    0
hydroph_interaction:TRP:28    0
Name: 27, dtype: object

>  <hbond:SER:36>  (28) 
hbond:SER:36    0
hbond:SER:36    0
Name: 27, dtype: object

>  <halogenbond:SER:36>  (28) 
halogenbond:SER:36    0
halogenbond:SER:36    0
Name: 27, dtype: object

>  <hbond:ARG:38>  (28) 
hbond:ARG:38    0
hbond:ARG:38    0
Name: 27, dtype: object

>  <halogenbond:ARG:38>  (28) 
halogenbond:ARG:38    0
halogenbond:ARG:38    0
Name: 27, dtype: object

>  <hbond:ASP:39>  (28) 
hbond:ASP:39    0
hbond:ASP:39    0
Name: 27, dtype: object

>  <saltbridge:ASP:39>  (28) 
saltbridge:ASP:39    0
saltbridge:ASP:39    0
Name: 27, dtype: object

>  <hydroph_interaction:ASP:39>  (28) 
hydroph_interaction:ASP:39    0
hydroph_interaction:ASP:39    0
Name: 27, dtype: object

>  <halogenbond:ASP:39>  (28) 
halogenbond:ASP:39    0
halogenbond:ASP:39    0
Name: 27, dtype: object

>  <hydroph_interaction:LEU:40>  (28) 
hydroph_interaction:LEU:40    0
hydroph_interaction:LEU:40    0
Name: 27, dtype: object

>  <hydroph_interaction:TYR:63>  (28) 
hydroph_interaction:TYR:63    0
hydroph_interaction:TYR:63    0
Name: 27, dtype: object

>  <pistack:TYR:63>  (28) 
pistack:TYR:63    0
pistack:TYR:63    0
Name: 27, dtype: object

>  <hbond:TYR:63>  (28) 
hbond:TYR:63    0
hbond:TYR:63    0
Name: 27, dtype: object

>  <hbond:TYR:64>  (28) 
hbond:TYR:64    0
hbond:TYR:64    0
Name: 27, dtype: object

>  <halogenbond:TYR:64>  (28) 
halogenbond:TYR:64    0
halogenbond:TYR:64    0
Name: 27, dtype: object

>  <hydroph_interaction:TYR:64>  (28) 
hydroph_interaction:TYR:64    0
hydroph_interaction:TYR:64    0
Name: 27, dtype: object

>  <hbond:CYS:65>  (28) 
hbond:CYS:65    0
hbond:CYS:65    0
Name: 27, dtype: object

>  <halogenbond:CYS:65>  (28) 
halogenbond:CYS:65    0
halogenbond:CYS:65    0
Name: 27, dtype: object

>  <hbond:SER:66>  (28) 
hbond:SER:66    0
hbond:SER:66    0
Name: 27, dtype: object

>  <hbond:SER:67>  (28) 
hbond:SER:67    0
hbond:SER:67    0
Name: 27, dtype: object

>  <halogenbond:SER:67>  (28) 
halogenbond:SER:67    0
halogenbond:SER:67    0
Name: 27, dtype: object

>  <hydroph_interaction:ARG:68>  (28) 
hydroph_interaction:ARG:68    0
hydroph_interaction:ARG:68    0
Name: 27, dtype: object

>  <hbond:ARG:68>  (28) 
hbond:ARG:68    0
hbond:ARG:68    0
Name: 27, dtype: object

>  <saltbridge:ARG:68>  (28) 
saltbridge:ARG:68    0
saltbridge:ARG:68    0
Name: 27, dtype: object

>  <pication:ARG:68>  (28) 
pication:ARG:68    0
pication:ARG:68    0
Name: 27, dtype: object

>  <hydroph_interaction:TYR:72>  (28) 
hydroph_interaction:TYR:72    0
hydroph_interaction:TYR:72    0
Name: 27, dtype: object

>  <hydroph_interaction:VAL:74>  (28) 
hydroph_interaction:VAL:74    0
hydroph_interaction:VAL:74    0
Name: 27, dtype: object

>  <hydroph_interaction:PHE:76>  (28) 
hydroph_interaction:PHE:76    0
hydroph_interaction:PHE:76    0
Name: 27, dtype: object

>  <hbond:SER:77>  (28) 
hbond:SER:77    0
hbond:SER:77    0
Name: 27, dtype: object

>  <hbond:SER:80>  (28) 
hbond:SER:80    0
hbond:SER:80    0
Name: 27, dtype: object

>  <hbond:LEU:81>  (28) 
hbond:LEU:81    0
hbond:LEU:81    0
Name: 27, dtype: object

>  <halogenbond:LEU:81>  (28) 
halogenbond:LEU:81    0
halogenbond:LEU:81    0
Name: 27, dtype: object

>  <hydroph_interaction:LEU:81>  (28) 
hydroph_interaction:LEU:81    0
hydroph_interaction:LEU:81    0
Name: 27, dtype: object

>  <hydroph_interaction:ILE:82>  (28) 
hydroph_interaction:ILE:82    0
hydroph_interaction:ILE:82    0
Name: 27, dtype: object

>  <hbond:ILE:82>  (28) 
hbond:ILE:82    0
hbond:ILE:82    0
Name: 27, dtype: object

>  <hydroph_interaction:PHE:83>  (28) 
hydroph_interaction:PHE:83    0
hydroph_interaction:PHE:83    0
Name: 27, dtype: object

>  <hbond:PHE:83>  (28) 
hbond:PHE:83    0
hbond:PHE:83    0
Name: 27, dtype: object

>  <halogenbond:PHE:83>  (28) 
halogenbond:PHE:83    0
halogenbond:PHE:83    0
Name: 27, dtype: object

>  <pistack:PHE:83>  (28) 
pistack:PHE:83    0
pistack:PHE:83    0
Name: 27, dtype: object

>  <hydroph_interaction:VAL:84>  (28) 
hydroph_interaction:VAL:84    0
hydroph_interaction:VAL:84    0
Name: 27, dtype: object

>  <hbond:VAL:84>  (28) 
hbond:VAL:84    0
hbond:VAL:84    0
Name: 27, dtype: object

>  <halogenbond:VAL:84>  (28) 
halogenbond:VAL:84    0
halogenbond:VAL:84    0
Name: 27, dtype: object

>  <hydroph_interaction:GLU:85>  (28) 
hydroph_interaction:GLU:85    0
hydroph_interaction:GLU:85    0
Name: 27, dtype: object

>  <hbond:GLU:85>  (28) 
hbond:GLU:85    0
hbond:GLU:85    0
Name: 27, dtype: object

>  <saltbridge:GLU:85>  (28) 
saltbridge:GLU:85    0
saltbridge:GLU:85    0
Name: 27, dtype: object

>  <halogenbond:GLU:85>  (28) 
halogenbond:GLU:85    0
halogenbond:GLU:85    0
Name: 27, dtype: object

>  <hbond:ALA:86>  (28) 
hbond:ALA:86    0
hbond:ALA:86    0
Name: 27, dtype: object

>  <halogenbond:ALA:86>  (28) 
halogenbond:ALA:86    0
halogenbond:ALA:86    0
Name: 27, dtype: object

>  <hydroph_interaction:ALA:86>  (28) 
hydroph_interaction:ALA:86    0
hydroph_interaction:ALA:86    0
Name: 27, dtype: object

>  <hbond:SER:87>  (28) 
hbond:SER:87    0
hbond:SER:87    0
Name: 27, dtype: object

>  <halogenbond:SER:87>  (28) 
halogenbond:SER:87    0
halogenbond:SER:87    0
Name: 27, dtype: object

>  <hbond:GLU:88>  (28) 
hbond:GLU:88    0
hbond:GLU:88    0
Name: 27, dtype: object

>  <hydroph_interaction:GLU:88>  (28) 
hydroph_interaction:GLU:88    0
hydroph_interaction:GLU:88    0
Name: 27, dtype: object

>  <halogenbond:GLU:88>  (28) 
halogenbond:GLU:88    0
halogenbond:GLU:88    0
Name: 27, dtype: object

>  <saltbridge:GLU:88>  (28) 
saltbridge:GLU:88    0
saltbridge:GLU:88    0
Name: 27, dtype: object

>  <hydroph_interaction:TYR:89>  (28) 
hydroph_interaction:TYR:89    0
hydroph_interaction:TYR:89    0
Name: 27, dtype: object

>  <pistack:TYR:89>  (28) 
pistack:TYR:89    0
pistack:TYR:89    0
Name: 27, dtype: object

>  <hbond:TYR:89>  (28) 
hbond:TYR:89    0
hbond:TYR:89    0
Name: 27, dtype: object

>  <halogenbond:TYR:89>  (28) 
halogenbond:TYR:89    0
halogenbond:TYR:89    0
Name: 27, dtype: object

>  <hbond:TYR:90>  (28) 
hbond:TYR:90    0
hbond:TYR:90    0
Name: 27, dtype: object

>  <hydroph_interaction:TYR:90>  (28) 
hydroph_interaction:TYR:90    0
hydroph_interaction:TYR:90    0
Name: 27, dtype: object

>  <pistack:TYR:90>  (28) 
pistack:TYR:90    0
pistack:TYR:90    0
Name: 27, dtype: object

>  <halogenbond:TYR:90>  (28) 
halogenbond:TYR:90    0
halogenbond:TYR:90    0
Name: 27, dtype: object

>  <pication:TYR:90>  (28) 
pication:TYR:90    0
pication:TYR:90    0
Name: 27, dtype: object

>  <hydroph_interaction:PRO:91>  (28) 
hydroph_interaction:PRO:91    0
hydroph_interaction:PRO:91    0
Name: 27, dtype: object

>  <halogenbond:PRO:91>  (28) 
halogenbond:PRO:91    0
halogenbond:PRO:91    0
Name: 27, dtype: object

>  <hbond:PRO:91>  (28) 
hbond:PRO:91    0
hbond:PRO:91    0
Name: 27, dtype: object

>  <hydroph_interaction:ALA:92>  (28) 
hydroph_interaction:ALA:92    0
hydroph_interaction:ALA:92    0
Name: 27, dtype: object

>  <hbond:ARG:93>  (28) 
hbond:ARG:93    0
hbond:ARG:93    0
Name: 27, dtype: object

>  <pication:ARG:93>  (28) 
pication:ARG:93    0
pication:ARG:93    0
Name: 27, dtype: object

>  <saltbridge:ARG:93>  (28) 
saltbridge:ARG:93    0
saltbridge:ARG:93    0
Name: 27, dtype: object

>  <hydroph_interaction:ARG:93>  (28) 
hydroph_interaction:ARG:93    0
hydroph_interaction:ARG:93    0
Name: 27, dtype: object

>  <halogenbond:ARG:93>  (28) 
halogenbond:ARG:93    0
halogenbond:ARG:93    0
Name: 27, dtype: object

>  <hydroph_interaction:TYR:94>  (28) 
hydroph_interaction:TYR:94    0
hydroph_interaction:TYR:94    0
Name: 27, dtype: object

>  <hbond:TYR:94>  (28) 
hbond:TYR:94    0
hbond:TYR:94    0
Name: 27, dtype: object

>  <halogenbond:GLN:95>  (28) 
halogenbond:GLN:95    0
halogenbond:GLN:95    0
Name: 27, dtype: object

>  <hbond:GLN:95>  (28) 
hbond:GLN:95    0
hbond:GLN:95    0
Name: 27, dtype: object

>  <hydroph_interaction:GLN:95>  (28) 
hydroph_interaction:GLN:95    0
hydroph_interaction:GLN:95    0
Name: 27, dtype: object

>  <hbond:SER:96>  (28) 
hbond:SER:96    0
hbond:SER:96    0
Name: 27, dtype: object

>  <hydroph_interaction:LEU:98>  (28) 
hydroph_interaction:LEU:98    0
hydroph_interaction:LEU:98    0
Name: 27, dtype: object

>  <hbond:LEU:98>  (28) 
hbond:LEU:98    0
hbond:LEU:98    0
Name: 27, dtype: object

>  <hbond:MET:99>  (28) 
hbond:MET:99    0
hbond:MET:99    0
Name: 27, dtype: object

>  <hydroph_interaction:MET:99>  (28) 
hydroph_interaction:MET:99    0
hydroph_interaction:MET:99    0
Name: 27, dtype: object

>  <halogenbond:MET:99>  (28) 
halogenbond:MET:99    0
halogenbond:MET:99    0
Name: 27, dtype: object

>  <hydroph_interaction:LEU:100>  (28) 
hydroph_interaction:LEU:100    0
hydroph_interaction:LEU:100    0
Name: 27, dtype: object

>  <hbond:LEU:100>  (28) 
hbond:LEU:100    0
hbond:LEU:100    0
Name: 27, dtype: object

>  <hbond:ALA:101>  (28) 
hbond:ALA:101    0
hbond:ALA:101    0
Name: 27, dtype: object

>  <hydroph_interaction:ALA:101>  (28) 
hydroph_interaction:ALA:101    0
hydroph_interaction:ALA:101    0
Name: 27, dtype: object

>  <hydroph_interaction:VAL:102>  (28) 
hydroph_interaction:VAL:102    0
hydroph_interaction:VAL:102    0
Name: 27, dtype: object

>  <hbond:VAL:102>  (28) 
hbond:VAL:102    0
hbond:VAL:102    0
Name: 27, dtype: object

>  <hbond:GLY:103>  (28) 
hbond:GLY:103    0
hbond:GLY:103    0
Name: 27, dtype: object

>  <halogenbond:GLY:103>  (28) 
halogenbond:GLY:103    0
halogenbond:GLY:103    0
Name: 27, dtype: object

>  <hydroph_interaction:HIS:104>  (28) 
hydroph_interaction:HIS:104    0
hydroph_interaction:HIS:104    0
Name: 27, dtype: object

>  <hbond:HIS:104>  (28) 
hbond:HIS:104    0
hbond:HIS:104    0
Name: 27, dtype: object

>  <saltbridge:HIS:104>  (28) 
saltbridge:HIS:104    0
saltbridge:HIS:104    0
Name: 27, dtype: object

>  <pication:HIS:104>  (28) 
pication:HIS:104    0
pication:HIS:104    0
Name: 27, dtype: object

>  <pistack:HIS:104>  (28) 
pistack:HIS:104    0
pistack:HIS:104    0
Name: 27, dtype: object

>  <halogenbond:HIS:104>  (28) 
halogenbond:HIS:104    0
halogenbond:HIS:104    0
Name: 27, dtype: object

>  <hbond:SER:105>  (28) 
hbond:SER:105    0
hbond:SER:105    0
Name: 27, dtype: object

>  <halogenbond:SER:105>  (28) 
halogenbond:SER:105    0
halogenbond:SER:105    0
Name: 27, dtype: object

>  <hbond:GLU:106>  (28) 
hbond:GLU:106    0
hbond:GLU:106    0
Name: 27, dtype: object

>  <hydroph_interaction:GLU:106>  (28) 
hydroph_interaction:GLU:106    0
hydroph_interaction:GLU:106    0
Name: 27, dtype: object

>  <saltbridge:GLU:106>  (28) 
saltbridge:GLU:106    0
saltbridge:GLU:106    0
Name: 27, dtype: object

>  <halogenbond:GLU:106>  (28) 
halogenbond:GLU:106    0
halogenbond:GLU:106    0
Name: 27, dtype: object

>  <hydroph_interaction:PRO:107>  (28) 
hydroph_interaction:PRO:107    2
hydroph_interaction:PRO:107    2
Name: 27, dtype: object

>  <hbond:PRO:107>  (28) 
hbond:PRO:107    0
hbond:PRO:107    0
Name: 27, dtype: object

>  <halogenbond:PRO:107>  (28) 
halogenbond:PRO:107    0
halogenbond:PRO:107    0
Name: 27, dtype: object

>  <hbond:GLY:108>  (28) 
hbond:GLY:108    0
hbond:GLY:108    0
Name: 27, dtype: object

>  <halogenbond:GLY:108>  (28) 
halogenbond:GLY:108    0
halogenbond:GLY:108    0
Name: 27, dtype: object

>  <hbond:ASP:109>  (28) 
hbond:ASP:109    0
hbond:ASP:109    0
Name: 27, dtype: object

>  <hydroph_interaction:ASP:109>  (28) 
hydroph_interaction:ASP:109    0
hydroph_interaction:ASP:109    0
Name: 27, dtype: object

>  <saltbridge:ASP:109>  (28) 
saltbridge:ASP:109    0
saltbridge:ASP:109    0
Name: 27, dtype: object

>  <hbond:CYS:110>  (28) 
hbond:CYS:110    0
hbond:CYS:110    0
Name: 27, dtype: object

>  <halogenbond:CYS:110>  (28) 
halogenbond:CYS:110    0
halogenbond:CYS:110    0
Name: 27, dtype: object

>  <hbond:GLY:111>  (28) 
hbond:GLY:111    0
hbond:GLY:111    0
Name: 27, dtype: object

>  <hbond:GLY:112>  (28) 
hbond:GLY:112    0
hbond:GLY:112    0
Name: 27, dtype: object

>  <hbond:ILE:113>  (28) 
hbond:ILE:113    0
hbond:ILE:113    0
Name: 27, dtype: object

>  <hydroph_interaction:LEU:114>  (28) 
hydroph_interaction:LEU:114    0
hydroph_interaction:LEU:114    0
Name: 27, dtype: object

>  <hbond:LEU:114>  (28) 
hbond:LEU:114    0
hbond:LEU:114    0
Name: 27, dtype: object

>  <hydroph_interaction:ILE:123>  (28) 
hydroph_interaction:ILE:123    0
hydroph_interaction:ILE:123    0
Name: 27, dtype: object

>  <hbond:ILE:123>  (28) 
hbond:ILE:123    0
hbond:ILE:123    0
Name: 27, dtype: object

>  <hydroph_interaction:VAL:124>  (28) 
hydroph_interaction:VAL:124    1
hydroph_interaction:VAL:124    1
Name: 27, dtype: object

>  <hbond:VAL:124>  (28) 
hbond:VAL:124    0
hbond:VAL:124    0
Name: 27, dtype: object

>  <halogenbond:VAL:124>  (28) 
halogenbond:VAL:124    0
halogenbond:VAL:124    0
Name: 27, dtype: object

>  <hbond:SER:125>  (28) 
hbond:SER:125    0
hbond:SER:125    0
Name: 27, dtype: object

>  <halogenbond:SER:125>  (28) 
halogenbond:SER:125    0
halogenbond:SER:125    0
Name: 27, dtype: object

>  <hydroph_interaction:THR:126>  (28) 
hydroph_interaction:THR:126    0
hydroph_interaction:THR:126    0
Name: 27, dtype: object

>  <hbond:THR:126>  (28) 
hbond:THR:126    0
hbond:THR:126    0
Name: 27, dtype: object

>  <halogenbond:THR:126>  (28) 
halogenbond:THR:126    0
halogenbond:THR:126    0
Name: 27, dtype: object

>  <hbond:GLY:127>  (28) 
hbond:GLY:127    0
hbond:GLY:127    0
Name: 27, dtype: object

>  <halogenbond:GLY:127>  (28) 
halogenbond:GLY:127    0
halogenbond:GLY:127    0
Name: 27, dtype: object

>  <hydroph_interaction:GLY:127>  (28) 
hydroph_interaction:GLY:127    0
hydroph_interaction:GLY:127    0
Name: 27, dtype: object

>  <hbond:GLY:128>  (28) 
hbond:GLY:128    0
hbond:GLY:128    0
Name: 27, dtype: object

>  <halogenbond:GLY:128>  (28) 
halogenbond:GLY:128    0
halogenbond:GLY:128    0
Name: 27, dtype: object

>  <hydroph_interaction:GLY:128>  (28) 
hydroph_interaction:GLY:128    0
hydroph_interaction:GLY:128    0
Name: 27, dtype: object

>  <hbond:ASN:129>  (28) 
hbond:ASN:129    0
hbond:ASN:129    0
Name: 27, dtype: object

>  <hydroph_interaction:ASN:129>  (28) 
hydroph_interaction:ASN:129    0
hydroph_interaction:ASN:129    0
Name: 27, dtype: object

>  <halogenbond:ASN:129>  (28) 
halogenbond:ASN:129    0
halogenbond:ASN:129    0
Name: 27, dtype: object

>  <hbond:GLY:130>  (28) 
hbond:GLY:130    0
hbond:GLY:130    0
Name: 27, dtype: object

>  <hydroph_interaction:LEU:131>  (28) 
hydroph_interaction:LEU:131    0
hydroph_interaction:LEU:131    0
Name: 27, dtype: object

>  <hbond:LEU:131>  (28) 
hbond:LEU:131    0
hbond:LEU:131    0
Name: 27, dtype: object

>  <halogenbond:LEU:131>  (28) 
halogenbond:LEU:131    0
halogenbond:LEU:131    0
Name: 27, dtype: object

>  <hydroph_interaction:VAL:132>  (28) 
hydroph_interaction:VAL:132    0
hydroph_interaction:VAL:132    0
Name: 27, dtype: object

>  <hbond:VAL:132>  (28) 
hbond:VAL:132    0
hbond:VAL:132    0
Name: 27, dtype: object

>  <hbond:GLY:133>  (28) 
hbond:GLY:133    0
hbond:GLY:133    0
Name: 27, dtype: object

>  <halogenbond:GLY:133>  (28) 
halogenbond:GLY:133    0
halogenbond:GLY:133    0
Name: 27, dtype: object

>  <hydroph_interaction:PHE:134>  (28) 
hydroph_interaction:PHE:134    0
hydroph_interaction:PHE:134    0
Name: 27, dtype: object

>  <hbond:PHE:134>  (28) 
hbond:PHE:134    0
hbond:PHE:134    0
Name: 27, dtype: object

>  <pistack:PHE:134>  (28) 
pistack:PHE:134    0
pistack:PHE:134    0
Name: 27, dtype: object

>  <pication:PHE:134>  (28) 
pication:PHE:134    0
pication:PHE:134    0
Name: 27, dtype: object

>  <hydroph_interaction:ALA:135>  (28) 
hydroph_interaction:ALA:135    0
hydroph_interaction:ALA:135    0
Name: 27, dtype: object

>  <hbond:ALA:135>  (28) 
hbond:ALA:135    0
hbond:ALA:135    0
Name: 27, dtype: object

$$$$
PV_002785908168
     RDKit          3D

 37 38  0  0  0  0  0  0  0  0999 V2000
   12.2070   13.7680   23.4390 C   0  0  0  0  0  0  0  0  0  0  0  0
   11.2080   14.3980   22.5160 C   0  0  0  0  0  0  0  0  0  0  0  0
   11.8310   15.5220   21.7080 C   0  0  0  0  0  0  0  0  0  0  0  0
    9.9130   13.9940   22.4240 C   0  0  0  0  0  0  0  0  0  0  0  0
    8.8900   14.6130   21.4920 C   0  0  0  0  0  0  0  0  0  0  0  0
    9.3610   12.8710   23.2120 C   0  0  0  0  0  0  0  0  0  0  0  0
    8.3480   12.9520   24.2060 C   0  0  0  0  0  0  0  0  0  0  0  0
    7.7050   14.2590   24.6050 C   0  0  0  0  0  0  0  0  0  0  0  0
    6.9380   14.1600   25.9250 C   0  0  0  0  0  0  0  0  0  0  0  0
    6.0340   13.0080   25.9510 N   0  0  0  0  0  0  0  0  0  0  0  0
    6.8250   11.7750   25.9050 C   0  0  0  0  0  0  0  0  0  0  0  0
    7.9140   11.7680   24.8460 C   0  0  0  0  0  0  0  0  0  0  0  0
    8.4980   10.5450   24.4860 C   0  0  0  0  0  0  0  0  0  0  0  0
    9.4970   10.4830   23.5140 C   0  0  0  0  0  0  0  0  0  0  0  0
   10.1310    9.1970   23.1140 C   0  0  0  0  0  0  0  0  0  0  0  0
    9.9140   11.6370   22.8960 C   0  0  0  0  0  0  0  0  0  0  0  0
   12.1890   14.2760   24.4080 H   0  0  0  0  0  0  0  0  0  0  0  0
   13.2290   13.7990   23.0630 H   0  0  0  0  0  0  0  0  0  0  0  0
   11.9570   12.7160   23.5970 H   0  0  0  0  0  0  0  0  0  0  0  0
   11.1870   15.9170   20.9170 H   0  0  0  0  0  0  0  0  0  0  0  0
   12.1030   16.3570   22.3660 H   0  0  0  0  0  0  0  0  0  0  0  0
   12.7450   15.1630   21.2210 H   0  0  0  0  0  0  0  0  0  0  0  0
    8.6690   14.0150   20.6190 H   0  0  0  0  0  0  0  0  0  0  0  0
    7.9520   14.8070   22.0310 H   0  0  0  0  0  0  0  0  0  0  0  0
    9.2500   15.5600   21.0710 H   0  0  0  0  0  0  0  0  0  0  0  0
    7.0070   14.6000   23.8270 H   0  0  0  0  0  0  0  0  0  0  0  0
    8.4910   15.0110   24.7120 H   0  0  0  0  0  0  0  0  0  0  0  0
    7.6540   14.0700   26.7490 H   0  0  0  0  0  0  0  0  0  0  0  0
    6.3690   15.0810   26.1090 H   0  0  0  0  0  0  0  0  0  0  0  0
    5.5250   13.0140   26.8350 H   0  0  0  0  0  0  0  0  0  0  0  0
    6.1640   10.9150   25.7290 H   0  0  0  0  0  0  0  0  0  0  0  0
    7.2560   11.6420   26.8930 H   0  0  0  0  0  0  0  0  0  0  0  0
    8.1690    9.6290   24.9700 H   0  0  0  0  0  0  0  0  0  0  0  0
    9.7150    8.4030   23.7180 H   0  0  0  0  0  0  0  0  0  0  0  0
   11.2140    9.2180   23.2680 H   0  0  0  0  0  0  0  0  0  0  0  0
    9.9500    8.9780   22.0550 H   0  0  0  0  0  0  0  0  0  0  0  0
   10.6890   11.5800   22.1390 H   0  0  0  0  0  0  0  0  0  0  0  0
  1  2  1  0
  2  3  1  0
  2  4  2  3
  4  5  1  0
  4  6  1  0
  6  7  2  0
  7  8  1  0
  8  9  1  0
  9 10  1  0
 10 11  1  0
 11 12  1  0
 12 13  2  0
 13 14  1  0
 14 15  1  0
 14 16  2  0
 16  6  1  0
 12  7  1  0
  1 17  1  0
  1 18  1  0
  1 19  1  0
  3 20  1  0
  3 21  1  0
  3 22  1  0
  5 23  1  0
  5 24  1  0
  5 25  1  0
  8 26  1  0
  8 27  1  0
  9 28  1  0
  9 29  1  0
 10 30  1  0
 11 31  1  0
 11 32  1  0
 13 33  1  0
 15 34  1  0
 15 35  1  0
 15 36  1  0
 16 37  1  0
A    1
 C1 
A    2
 C2 
A    3
 C3 
A    4
 C4 
A    5
 C5 
A    6
 C6 
A    7
 C7 
A    8
 C8 
A    9
 C9 
A   10
 N1 
A   11
 C10
A   12
 C11
A   13
 C12
A   14
 C13
A   15
 C14
A   16
 C15
A   17
 H1 
A   18
 H2 
A   19
 H3 
A   20
 H4 
A   21
 H5 
A   22
 H6 
A   23
 H7 
A   24
 H8 
A   25
 H9 
A   26
 H10
A   27
 H11
A   28
 H12
A   29
 H13
A   30
 H14
A   31
 H15
A   32
 H16
A   33
 H17
A   34
 H18
A   35
 H19
A   36
 H20
A   37
 H21
M  END
>  <ref_pdb>  (29) 
x0310_0A

>  <ref_mols>  (29) 
x0554_0A,x0528_0A

>  <original SMILES>  (29) 
CC(C)=C(C)c1cc(C)cc2c1CCNC2

>  <rationale>  (29) 
info hydroph_interaction:V124; 

>  <intxn_cluster>  (29) 
103

>  <intxn_cluster_rank>  (29) 
102

>  <N_interactions>  (29) 
1

>  <∆∆G>  (29) 
-12.742848

>  <$/mg>  (29) 
163.0

>  <comRMSD>  (29) 
0.84932

>  <N_rotatable_bonds>  (29) 
5

>  <hbond:SER:7>  (29) 
hbond:SER:7    0
hbond:SER:7    0
Name: 28, dtype: object

>  <halogenbond:SER:7>  (29) 
halogenbond:SER:7    0
halogenbond:SER:7    0
Name: 28, dtype: object

>  <hbond:GLY:8>  (29) 
hbond:GLY:8    0
hbond:GLY:8    0
Name: 28, dtype: object

>  <hydroph_interaction:ASN:19>  (29) 
hydroph_interaction:ASN:19    0
hydroph_interaction:ASN:19    0
Name: 28, dtype: object

>  <hbond:ASN:19>  (29) 
hbond:ASN:19    0
hbond:ASN:19    0
Name: 28, dtype: object

>  <halogenbond:ASN:19>  (29) 
halogenbond:ASN:19    0
halogenbond:ASN:19    0
Name: 28, dtype: object

>  <hbond:ARG:20>  (29) 
hbond:ARG:20    0
hbond:ARG:20    0
Name: 28, dtype: object

>  <hydroph_interaction:ARG:20>  (29) 
hydroph_interaction:ARG:20    0
hydroph_interaction:ARG:20    0
Name: 28, dtype: object

>  <saltbridge:ARG:20>  (29) 
saltbridge:ARG:20    0
saltbridge:ARG:20    0
Name: 28, dtype: object

>  <halogenbond:ARG:20>  (29) 
halogenbond:ARG:20    0
halogenbond:ARG:20    0
Name: 28, dtype: object

>  <pication:ARG:20>  (29) 
pication:ARG:20    0
pication:ARG:20    0
Name: 28, dtype: object

>  <hbond:HIS:21>  (29) 
hbond:HIS:21    0
hbond:HIS:21    0
Name: 28, dtype: object

>  <hydroph_interaction:HIS:21>  (29) 
hydroph_interaction:HIS:21    0
hydroph_interaction:HIS:21    0
Name: 28, dtype: object

>  <saltbridge:HIS:21>  (29) 
saltbridge:HIS:21    0
saltbridge:HIS:21    0
Name: 28, dtype: object

>  <pistack:HIS:21>  (29) 
pistack:HIS:21    0
pistack:HIS:21    0
Name: 28, dtype: object

>  <pication:HIS:21>  (29) 
pication:HIS:21    0
pication:HIS:21    0
Name: 28, dtype: object

>  <halogenbond:HIS:21>  (29) 
halogenbond:HIS:21    0
halogenbond:HIS:21    0
Name: 28, dtype: object

>  <hydroph_interaction:LEU:22>  (29) 
hydroph_interaction:LEU:22    0
hydroph_interaction:LEU:22    0
Name: 28, dtype: object

>  <hbond:LEU:22>  (29) 
hbond:LEU:22    0
hbond:LEU:22    0
Name: 28, dtype: object

>  <hydroph_interaction:TRP:28>  (29) 
hydroph_interaction:TRP:28    0
hydroph_interaction:TRP:28    0
Name: 28, dtype: object

>  <hbond:SER:36>  (29) 
hbond:SER:36    0
hbond:SER:36    0
Name: 28, dtype: object

>  <halogenbond:SER:36>  (29) 
halogenbond:SER:36    0
halogenbond:SER:36    0
Name: 28, dtype: object

>  <hbond:ARG:38>  (29) 
hbond:ARG:38    0
hbond:ARG:38    0
Name: 28, dtype: object

>  <halogenbond:ARG:38>  (29) 
halogenbond:ARG:38    0
halogenbond:ARG:38    0
Name: 28, dtype: object

>  <hbond:ASP:39>  (29) 
hbond:ASP:39    0
hbond:ASP:39    0
Name: 28, dtype: object

>  <saltbridge:ASP:39>  (29) 
saltbridge:ASP:39    0
saltbridge:ASP:39    0
Name: 28, dtype: object

>  <hydroph_interaction:ASP:39>  (29) 
hydroph_interaction:ASP:39    0
hydroph_interaction:ASP:39    0
Name: 28, dtype: object

>  <halogenbond:ASP:39>  (29) 
halogenbond:ASP:39    0
halogenbond:ASP:39    0
Name: 28, dtype: object

>  <hydroph_interaction:LEU:40>  (29) 
hydroph_interaction:LEU:40    0
hydroph_interaction:LEU:40    0
Name: 28, dtype: object

>  <hydroph_interaction:TYR:63>  (29) 
hydroph_interaction:TYR:63    0
hydroph_interaction:TYR:63    0
Name: 28, dtype: object

>  <pistack:TYR:63>  (29) 
pistack:TYR:63    0
pistack:TYR:63    0
Name: 28, dtype: object

>  <hbond:TYR:63>  (29) 
hbond:TYR:63    0
hbond:TYR:63    0
Name: 28, dtype: object

>  <hbond:TYR:64>  (29) 
hbond:TYR:64    0
hbond:TYR:64    0
Name: 28, dtype: object

>  <halogenbond:TYR:64>  (29) 
halogenbond:TYR:64    0
halogenbond:TYR:64    0
Name: 28, dtype: object

>  <hydroph_interaction:TYR:64>  (29) 
hydroph_interaction:TYR:64    0
hydroph_interaction:TYR:64    0
Name: 28, dtype: object

>  <hbond:CYS:65>  (29) 
hbond:CYS:65    0
hbond:CYS:65    0
Name: 28, dtype: object

>  <halogenbond:CYS:65>  (29) 
halogenbond:CYS:65    0
halogenbond:CYS:65    0
Name: 28, dtype: object

>  <hbond:SER:66>  (29) 
hbond:SER:66    0
hbond:SER:66    0
Name: 28, dtype: object

>  <hbond:SER:67>  (29) 
hbond:SER:67    0
hbond:SER:67    0
Name: 28, dtype: object

>  <halogenbond:SER:67>  (29) 
halogenbond:SER:67    0
halogenbond:SER:67    0
Name: 28, dtype: object

>  <hydroph_interaction:ARG:68>  (29) 
hydroph_interaction:ARG:68    0
hydroph_interaction:ARG:68    0
Name: 28, dtype: object

>  <hbond:ARG:68>  (29) 
hbond:ARG:68    0
hbond:ARG:68    0
Name: 28, dtype: object

>  <saltbridge:ARG:68>  (29) 
saltbridge:ARG:68    0
saltbridge:ARG:68    0
Name: 28, dtype: object

>  <pication:ARG:68>  (29) 
pication:ARG:68    0
pication:ARG:68    0
Name: 28, dtype: object

>  <hydroph_interaction:TYR:72>  (29) 
hydroph_interaction:TYR:72    0
hydroph_interaction:TYR:72    0
Name: 28, dtype: object

>  <hydroph_interaction:VAL:74>  (29) 
hydroph_interaction:VAL:74    0
hydroph_interaction:VAL:74    0
Name: 28, dtype: object

>  <hydroph_interaction:PHE:76>  (29) 
hydroph_interaction:PHE:76    0
hydroph_interaction:PHE:76    0
Name: 28, dtype: object

>  <hbond:SER:77>  (29) 
hbond:SER:77    0
hbond:SER:77    0
Name: 28, dtype: object

>  <hbond:SER:80>  (29) 
hbond:SER:80    0
hbond:SER:80    0
Name: 28, dtype: object

>  <hbond:LEU:81>  (29) 
hbond:LEU:81    0
hbond:LEU:81    0
Name: 28, dtype: object

>  <halogenbond:LEU:81>  (29) 
halogenbond:LEU:81    0
halogenbond:LEU:81    0
Name: 28, dtype: object

>  <hydroph_interaction:LEU:81>  (29) 
hydroph_interaction:LEU:81    0
hydroph_interaction:LEU:81    0
Name: 28, dtype: object

>  <hydroph_interaction:ILE:82>  (29) 
hydroph_interaction:ILE:82    0
hydroph_interaction:ILE:82    0
Name: 28, dtype: object

>  <hbond:ILE:82>  (29) 
hbond:ILE:82    0
hbond:ILE:82    0
Name: 28, dtype: object

>  <hydroph_interaction:PHE:83>  (29) 
hydroph_interaction:PHE:83    0
hydroph_interaction:PHE:83    0
Name: 28, dtype: object

>  <hbond:PHE:83>  (29) 
hbond:PHE:83    0
hbond:PHE:83    0
Name: 28, dtype: object

>  <halogenbond:PHE:83>  (29) 
halogenbond:PHE:83    0
halogenbond:PHE:83    0
Name: 28, dtype: object

>  <pistack:PHE:83>  (29) 
pistack:PHE:83    0
pistack:PHE:83    0
Name: 28, dtype: object

>  <hydroph_interaction:VAL:84>  (29) 
hydroph_interaction:VAL:84    0
hydroph_interaction:VAL:84    0
Name: 28, dtype: object

>  <hbond:VAL:84>  (29) 
hbond:VAL:84    0
hbond:VAL:84    0
Name: 28, dtype: object

>  <halogenbond:VAL:84>  (29) 
halogenbond:VAL:84    0
halogenbond:VAL:84    0
Name: 28, dtype: object

>  <hydroph_interaction:GLU:85>  (29) 
hydroph_interaction:GLU:85    0
hydroph_interaction:GLU:85    0
Name: 28, dtype: object

>  <hbond:GLU:85>  (29) 
hbond:GLU:85    0
hbond:GLU:85    0
Name: 28, dtype: object

>  <saltbridge:GLU:85>  (29) 
saltbridge:GLU:85    0
saltbridge:GLU:85    0
Name: 28, dtype: object

>  <halogenbond:GLU:85>  (29) 
halogenbond:GLU:85    0
halogenbond:GLU:85    0
Name: 28, dtype: object

>  <hbond:ALA:86>  (29) 
hbond:ALA:86    0
hbond:ALA:86    0
Name: 28, dtype: object

>  <halogenbond:ALA:86>  (29) 
halogenbond:ALA:86    0
halogenbond:ALA:86    0
Name: 28, dtype: object

>  <hydroph_interaction:ALA:86>  (29) 
hydroph_interaction:ALA:86    0
hydroph_interaction:ALA:86    0
Name: 28, dtype: object

>  <hbond:SER:87>  (29) 
hbond:SER:87    0
hbond:SER:87    0
Name: 28, dtype: object

>  <halogenbond:SER:87>  (29) 
halogenbond:SER:87    0
halogenbond:SER:87    0
Name: 28, dtype: object

>  <hbond:GLU:88>  (29) 
hbond:GLU:88    0
hbond:GLU:88    0
Name: 28, dtype: object

>  <hydroph_interaction:GLU:88>  (29) 
hydroph_interaction:GLU:88    0
hydroph_interaction:GLU:88    0
Name: 28, dtype: object

>  <halogenbond:GLU:88>  (29) 
halogenbond:GLU:88    0
halogenbond:GLU:88    0
Name: 28, dtype: object

>  <saltbridge:GLU:88>  (29) 
saltbridge:GLU:88    0
saltbridge:GLU:88    0
Name: 28, dtype: object

>  <hydroph_interaction:TYR:89>  (29) 
hydroph_interaction:TYR:89    0
hydroph_interaction:TYR:89    0
Name: 28, dtype: object

>  <pistack:TYR:89>  (29) 
pistack:TYR:89    0
pistack:TYR:89    0
Name: 28, dtype: object

>  <hbond:TYR:89>  (29) 
hbond:TYR:89    0
hbond:TYR:89    0
Name: 28, dtype: object

>  <halogenbond:TYR:89>  (29) 
halogenbond:TYR:89    0
halogenbond:TYR:89    0
Name: 28, dtype: object

>  <hbond:TYR:90>  (29) 
hbond:TYR:90    0
hbond:TYR:90    0
Name: 28, dtype: object

>  <hydroph_interaction:TYR:90>  (29) 
hydroph_interaction:TYR:90    0
hydroph_interaction:TYR:90    0
Name: 28, dtype: object

>  <pistack:TYR:90>  (29) 
pistack:TYR:90    0
pistack:TYR:90    0
Name: 28, dtype: object

>  <halogenbond:TYR:90>  (29) 
halogenbond:TYR:90    0
halogenbond:TYR:90    0
Name: 28, dtype: object

>  <pication:TYR:90>  (29) 
pication:TYR:90    0
pication:TYR:90    0
Name: 28, dtype: object

>  <hydroph_interaction:PRO:91>  (29) 
hydroph_interaction:PRO:91    0
hydroph_interaction:PRO:91    0
Name: 28, dtype: object

>  <halogenbond:PRO:91>  (29) 
halogenbond:PRO:91    0
halogenbond:PRO:91    0
Name: 28, dtype: object

>  <hbond:PRO:91>  (29) 
hbond:PRO:91    0
hbond:PRO:91    0
Name: 28, dtype: object

>  <hydroph_interaction:ALA:92>  (29) 
hydroph_interaction:ALA:92    0
hydroph_interaction:ALA:92    0
Name: 28, dtype: object

>  <hbond:ARG:93>  (29) 
hbond:ARG:93    0
hbond:ARG:93    0
Name: 28, dtype: object

>  <pication:ARG:93>  (29) 
pication:ARG:93    0
pication:ARG:93    0
Name: 28, dtype: object

>  <saltbridge:ARG:93>  (29) 
saltbridge:ARG:93    0
saltbridge:ARG:93    0
Name: 28, dtype: object

>  <hydroph_interaction:ARG:93>  (29) 
hydroph_interaction:ARG:93    0
hydroph_interaction:ARG:93    0
Name: 28, dtype: object

>  <halogenbond:ARG:93>  (29) 
halogenbond:ARG:93    0
halogenbond:ARG:93    0
Name: 28, dtype: object

>  <hydroph_interaction:TYR:94>  (29) 
hydroph_interaction:TYR:94    0
hydroph_interaction:TYR:94    0
Name: 28, dtype: object

>  <hbond:TYR:94>  (29) 
hbond:TYR:94    0
hbond:TYR:94    0
Name: 28, dtype: object

>  <halogenbond:GLN:95>  (29) 
halogenbond:GLN:95    0
halogenbond:GLN:95    0
Name: 28, dtype: object

>  <hbond:GLN:95>  (29) 
hbond:GLN:95    0
hbond:GLN:95    0
Name: 28, dtype: object

>  <hydroph_interaction:GLN:95>  (29) 
hydroph_interaction:GLN:95    0
hydroph_interaction:GLN:95    0
Name: 28, dtype: object

>  <hbond:SER:96>  (29) 
hbond:SER:96    0
hbond:SER:96    0
Name: 28, dtype: object

>  <hydroph_interaction:LEU:98>  (29) 
hydroph_interaction:LEU:98    0
hydroph_interaction:LEU:98    0
Name: 28, dtype: object

>  <hbond:LEU:98>  (29) 
hbond:LEU:98    0
hbond:LEU:98    0
Name: 28, dtype: object

>  <hbond:MET:99>  (29) 
hbond:MET:99    0
hbond:MET:99    0
Name: 28, dtype: object

>  <hydroph_interaction:MET:99>  (29) 
hydroph_interaction:MET:99    0
hydroph_interaction:MET:99    0
Name: 28, dtype: object

>  <halogenbond:MET:99>  (29) 
halogenbond:MET:99    0
halogenbond:MET:99    0
Name: 28, dtype: object

>  <hydroph_interaction:LEU:100>  (29) 
hydroph_interaction:LEU:100    0
hydroph_interaction:LEU:100    0
Name: 28, dtype: object

>  <hbond:LEU:100>  (29) 
hbond:LEU:100    0
hbond:LEU:100    0
Name: 28, dtype: object

>  <hbond:ALA:101>  (29) 
hbond:ALA:101    0
hbond:ALA:101    0
Name: 28, dtype: object

>  <hydroph_interaction:ALA:101>  (29) 
hydroph_interaction:ALA:101    0
hydroph_interaction:ALA:101    0
Name: 28, dtype: object

>  <hydroph_interaction:VAL:102>  (29) 
hydroph_interaction:VAL:102    0
hydroph_interaction:VAL:102    0
Name: 28, dtype: object

>  <hbond:VAL:102>  (29) 
hbond:VAL:102    0
hbond:VAL:102    0
Name: 28, dtype: object

>  <hbond:GLY:103>  (29) 
hbond:GLY:103    0
hbond:GLY:103    0
Name: 28, dtype: object

>  <halogenbond:GLY:103>  (29) 
halogenbond:GLY:103    0
halogenbond:GLY:103    0
Name: 28, dtype: object

>  <hydroph_interaction:HIS:104>  (29) 
hydroph_interaction:HIS:104    0
hydroph_interaction:HIS:104    0
Name: 28, dtype: object

>  <hbond:HIS:104>  (29) 
hbond:HIS:104    0
hbond:HIS:104    0
Name: 28, dtype: object

>  <saltbridge:HIS:104>  (29) 
saltbridge:HIS:104    0
saltbridge:HIS:104    0
Name: 28, dtype: object

>  <pication:HIS:104>  (29) 
pication:HIS:104    0
pication:HIS:104    0
Name: 28, dtype: object

>  <pistack:HIS:104>  (29) 
pistack:HIS:104    0
pistack:HIS:104    0
Name: 28, dtype: object

>  <halogenbond:HIS:104>  (29) 
halogenbond:HIS:104    0
halogenbond:HIS:104    0
Name: 28, dtype: object

>  <hbond:SER:105>  (29) 
hbond:SER:105    0
hbond:SER:105    0
Name: 28, dtype: object

>  <halogenbond:SER:105>  (29) 
halogenbond:SER:105    0
halogenbond:SER:105    0
Name: 28, dtype: object

>  <hbond:GLU:106>  (29) 
hbond:GLU:106    0
hbond:GLU:106    0
Name: 28, dtype: object

>  <hydroph_interaction:GLU:106>  (29) 
hydroph_interaction:GLU:106    0
hydroph_interaction:GLU:106    0
Name: 28, dtype: object

>  <saltbridge:GLU:106>  (29) 
saltbridge:GLU:106    0
saltbridge:GLU:106    0
Name: 28, dtype: object

>  <halogenbond:GLU:106>  (29) 
halogenbond:GLU:106    0
halogenbond:GLU:106    0
Name: 28, dtype: object

>  <hydroph_interaction:PRO:107>  (29) 
hydroph_interaction:PRO:107    0
hydroph_interaction:PRO:107    0
Name: 28, dtype: object

>  <hbond:PRO:107>  (29) 
hbond:PRO:107    0
hbond:PRO:107    0
Name: 28, dtype: object

>  <halogenbond:PRO:107>  (29) 
halogenbond:PRO:107    0
halogenbond:PRO:107    0
Name: 28, dtype: object

>  <hbond:GLY:108>  (29) 
hbond:GLY:108    0
hbond:GLY:108    0
Name: 28, dtype: object

>  <halogenbond:GLY:108>  (29) 
halogenbond:GLY:108    0
halogenbond:GLY:108    0
Name: 28, dtype: object

>  <hbond:ASP:109>  (29) 
hbond:ASP:109    0
hbond:ASP:109    0
Name: 28, dtype: object

>  <hydroph_interaction:ASP:109>  (29) 
hydroph_interaction:ASP:109    0
hydroph_interaction:ASP:109    0
Name: 28, dtype: object

>  <saltbridge:ASP:109>  (29) 
saltbridge:ASP:109    0
saltbridge:ASP:109    0
Name: 28, dtype: object

>  <hbond:CYS:110>  (29) 
hbond:CYS:110    0
hbond:CYS:110    0
Name: 28, dtype: object

>  <halogenbond:CYS:110>  (29) 
halogenbond:CYS:110    0
halogenbond:CYS:110    0
Name: 28, dtype: object

>  <hbond:GLY:111>  (29) 
hbond:GLY:111    0
hbond:GLY:111    0
Name: 28, dtype: object

>  <hbond:GLY:112>  (29) 
hbond:GLY:112    0
hbond:GLY:112    0
Name: 28, dtype: object

>  <hbond:ILE:113>  (29) 
hbond:ILE:113    0
hbond:ILE:113    0
Name: 28, dtype: object

>  <hydroph_interaction:LEU:114>  (29) 
hydroph_interaction:LEU:114    0
hydroph_interaction:LEU:114    0
Name: 28, dtype: object

>  <hbond:LEU:114>  (29) 
hbond:LEU:114    0
hbond:LEU:114    0
Name: 28, dtype: object

>  <hydroph_interaction:ILE:123>  (29) 
hydroph_interaction:ILE:123    0
hydroph_interaction:ILE:123    0
Name: 28, dtype: object

>  <hbond:ILE:123>  (29) 
hbond:ILE:123    0
hbond:ILE:123    0
Name: 28, dtype: object

>  <hydroph_interaction:VAL:124>  (29) 
hydroph_interaction:VAL:124    1
hydroph_interaction:VAL:124    1
Name: 28, dtype: object

>  <hbond:VAL:124>  (29) 
hbond:VAL:124    0
hbond:VAL:124    0
Name: 28, dtype: object

>  <halogenbond:VAL:124>  (29) 
halogenbond:VAL:124    0
halogenbond:VAL:124    0
Name: 28, dtype: object

>  <hbond:SER:125>  (29) 
hbond:SER:125    0
hbond:SER:125    0
Name: 28, dtype: object

>  <halogenbond:SER:125>  (29) 
halogenbond:SER:125    0
halogenbond:SER:125    0
Name: 28, dtype: object

>  <hydroph_interaction:THR:126>  (29) 
hydroph_interaction:THR:126    0
hydroph_interaction:THR:126    0
Name: 28, dtype: object

>  <hbond:THR:126>  (29) 
hbond:THR:126    0
hbond:THR:126    0
Name: 28, dtype: object

>  <halogenbond:THR:126>  (29) 
halogenbond:THR:126    0
halogenbond:THR:126    0
Name: 28, dtype: object

>  <hbond:GLY:127>  (29) 
hbond:GLY:127    0
hbond:GLY:127    0
Name: 28, dtype: object

>  <halogenbond:GLY:127>  (29) 
halogenbond:GLY:127    0
halogenbond:GLY:127    0
Name: 28, dtype: object

>  <hydroph_interaction:GLY:127>  (29) 
hydroph_interaction:GLY:127    0
hydroph_interaction:GLY:127    0
Name: 28, dtype: object

>  <hbond:GLY:128>  (29) 
hbond:GLY:128    0
hbond:GLY:128    0
Name: 28, dtype: object

>  <halogenbond:GLY:128>  (29) 
halogenbond:GLY:128    0
halogenbond:GLY:128    0
Name: 28, dtype: object

>  <hydroph_interaction:GLY:128>  (29) 
hydroph_interaction:GLY:128    0
hydroph_interaction:GLY:128    0
Name: 28, dtype: object

>  <hbond:ASN:129>  (29) 
hbond:ASN:129    0
hbond:ASN:129    0
Name: 28, dtype: object

>  <hydroph_interaction:ASN:129>  (29) 
hydroph_interaction:ASN:129    0
hydroph_interaction:ASN:129    0
Name: 28, dtype: object

>  <halogenbond:ASN:129>  (29) 
halogenbond:ASN:129    0
halogenbond:ASN:129    0
Name: 28, dtype: object

>  <hbond:GLY:130>  (29) 
hbond:GLY:130    0
hbond:GLY:130    0
Name: 28, dtype: object

>  <hydroph_interaction:LEU:131>  (29) 
hydroph_interaction:LEU:131    0
hydroph_interaction:LEU:131    0
Name: 28, dtype: object

>  <hbond:LEU:131>  (29) 
hbond:LEU:131    0
hbond:LEU:131    0
Name: 28, dtype: object

>  <halogenbond:LEU:131>  (29) 
halogenbond:LEU:131    0
halogenbond:LEU:131    0
Name: 28, dtype: object

>  <hydroph_interaction:VAL:132>  (29) 
hydroph_interaction:VAL:132    0
hydroph_interaction:VAL:132    0
Name: 28, dtype: object

>  <hbond:VAL:132>  (29) 
hbond:VAL:132    0
hbond:VAL:132    0
Name: 28, dtype: object

>  <hbond:GLY:133>  (29) 
hbond:GLY:133    0
hbond:GLY:133    0
Name: 28, dtype: object

>  <halogenbond:GLY:133>  (29) 
halogenbond:GLY:133    0
halogenbond:GLY:133    0
Name: 28, dtype: object

>  <hydroph_interaction:PHE:134>  (29) 
hydroph_interaction:PHE:134    0
hydroph_interaction:PHE:134    0
Name: 28, dtype: object

>  <hbond:PHE:134>  (29) 
hbond:PHE:134    0
hbond:PHE:134    0
Name: 28, dtype: object

>  <pistack:PHE:134>  (29) 
pistack:PHE:134    0
pistack:PHE:134    0
Name: 28, dtype: object

>  <pication:PHE:134>  (29) 
pication:PHE:134    0
pication:PHE:134    0
Name: 28, dtype: object

>  <hydroph_interaction:ALA:135>  (29) 
hydroph_interaction:ALA:135    0
hydroph_interaction:ALA:135    0
Name: 28, dtype: object

>  <hbond:ALA:135>  (29) 
hbond:ALA:135    0
hbond:ALA:135    0
Name: 28, dtype: object

$$$$
PV_002733226616
     RDKit          3D

 32 33  0  0  0  0  0  0  0  0999 V2000
   12.1950   14.0530   23.5870 C   0  0  0  0  0  0  0  0  0  0  0  0
   11.4490   14.5800   22.6150 C   0  0  0  0  0  0  0  0  0  0  0  0
   12.0060   15.6640   21.7910 C   0  0  0  0  0  0  0  0  0  0  0  0
   10.2000   14.1100   22.3810 C   0  0  0  0  0  0  0  0  0  0  0  0
    9.3620   14.5850   21.3580 C   0  0  0  0  0  0  0  0  0  0  0  0
    9.5910   13.0050   23.1340 C   0  0  0  0  0  0  0  0  0  0  0  0
   10.0800   11.6390   22.7640 C   0  0  0  0  0  0  0  0  0  0  0  0
    9.6290   10.4140   23.3100 C   0  0  0  0  0  0  0  0  0  0  0  0
   10.2000    9.2580   22.7880 C   0  0  0  0  0  0  0  0  0  0  0  0
    8.6430   10.4900   24.3070 C   0  0  0  0  0  0  0  0  0  0  0  0
    8.1740   11.7810   24.6790 C   0  0  0  0  0  0  0  0  0  0  0  0
    8.6170   13.0060   24.1280 C   0  0  0  0  0  0  0  0  0  0  0  0
    7.9880   14.0950   24.6690 O   0  0  0  0  0  0  0  0  0  0  0  0
    6.8570   13.5160   25.3720 C   0  0  0  0  0  0  0  0  0  0  0  0
    7.1790   12.1700   25.6460 C   0  0  0  0  0  0  0  0  0  0  0  0
    6.7230   11.4620   26.5220 O   0  0  0  0  0  0  0  0  0  0  0  0
   13.2260   14.4130   23.6800 H   0  0  0  0  0  0  0  0  0  0  0  0
   12.2430   12.9610   23.6290 H   0  0  0  0  0  0  0  0  0  0  0  0
   11.7100   14.3500   24.5210 H   0  0  0  0  0  0  0  0  0  0  0  0
   12.9940   15.3880   21.3940 H   0  0  0  0  0  0  0  0  0  0  0  0
   12.1580   16.5500   22.4210 H   0  0  0  0  0  0  0  0  0  0  0  0
   11.3320   15.9150   20.9690 H   0  0  0  0  0  0  0  0  0  0  0  0
    9.5090   14.0400   20.4270 H   0  0  0  0  0  0  0  0  0  0  0  0
    8.3100   14.5180   21.6640 H   0  0  0  0  0  0  0  0  0  0  0  0
    9.5620   15.6190   21.0940 H   0  0  0  0  0  0  0  0  0  0  0  0
   10.8410   11.5720   22.0020 H   0  0  0  0  0  0  0  0  0  0  0  0
    9.4180    8.7070   22.2680 H   0  0  0  0  0  0  0  0  0  0  0  0
   10.9980    9.3720   22.0670 H   0  0  0  0  0  0  0  0  0  0  0  0
   10.5730    8.6160   23.5660 H   0  0  0  0  0  0  0  0  0  0  0  0
    8.2370    9.6040   24.7810 H   0  0  0  0  0  0  0  0  0  0  0  0
    5.9570   13.5730   24.7460 H   0  0  0  0  0  0  0  0  0  0  0  0
    6.6640   14.0680   26.2960 H   0  0  0  0  0  0  0  0  0  0  0  0
  1  2  1  0
  2  3  1  0
  2  4  2  3
  4  5  1  0
  4  6  1  0
  6  7  2  0
  7  8  1  0
  8  9  1  0
  8 10  2  0
 10 11  1  0
 11 12  2  0
 12 13  1  0
 13 14  1  0
 14 15  1  0
 15 16  2  0
 12  6  1  0
 15 11  1  0
  1 17  1  0
  1 18  1  0
  1 19  1  0
  3 20  1  0
  3 21  1  0
  3 22  1  0
  5 23  1  0
  5 24  1  0
  5 25  1  0
  7 26  1  0
  9 27  1  0
  9 28  1  0
  9 29  1  0
 10 30  1  0
 14 31  1  0
 14 32  1  0
A    1
 C1 
A    2
 C2 
A    3
 C3 
A    4
 C4 
A    5
 C5 
A    6
 C6 
A    7
 C7 
A    8
 C8 
A    9
 C9 
A   10
 C10
A   11
 C11
A   12
 C12
A   13
 O1 
A   14
 C13
A   15
 C14
A   16
 O2 
A   17
 H1 
A   18
 H2 
A   19
 H3 
A   20
 H4 
A   21
 H5 
A   22
 H6 
A   23
 H7 
A   24
 H8 
A   25
 H9 
A   26
 H10
A   27
 H11
A   28
 H12
A   29
 H13
A   30
 H14
A   31
 H15
A   32
 H16
M  END
>  <ref_pdb>  (30) 
x0310_0A

>  <ref_mols>  (30) 
x0554_0A,x0528_0A

>  <original SMILES>  (30) 
CC(C)=C(C)c1cc(C)cc2c1OCC2=O

>  <rationale>  (30) 
info hydroph_interaction:P107+V124+Y90; 

>  <intxn_cluster>  (30) 
103

>  <intxn_cluster_rank>  (30) 
109

>  <N_interactions>  (30) 
3

>  <∆∆G>  (30) 
-12.67681

>  <$/mg>  (30) 
163.0

>  <comRMSD>  (30) 
0.842596

>  <N_rotatable_bonds>  (30) 
5

>  <hbond:SER:7>  (30) 
hbond:SER:7    0
hbond:SER:7    0
Name: 29, dtype: object

>  <halogenbond:SER:7>  (30) 
halogenbond:SER:7    0
halogenbond:SER:7    0
Name: 29, dtype: object

>  <hbond:GLY:8>  (30) 
hbond:GLY:8    0
hbond:GLY:8    0
Name: 29, dtype: object

>  <hydroph_interaction:ASN:19>  (30) 
hydroph_interaction:ASN:19    0
hydroph_interaction:ASN:19    0
Name: 29, dtype: object

>  <hbond:ASN:19>  (30) 
hbond:ASN:19    0
hbond:ASN:19    0
Name: 29, dtype: object

>  <halogenbond:ASN:19>  (30) 
halogenbond:ASN:19    0
halogenbond:ASN:19    0
Name: 29, dtype: object

>  <hbond:ARG:20>  (30) 
hbond:ARG:20    0
hbond:ARG:20    0
Name: 29, dtype: object

>  <hydroph_interaction:ARG:20>  (30) 
hydroph_interaction:ARG:20    0
hydroph_interaction:ARG:20    0
Name: 29, dtype: object

>  <saltbridge:ARG:20>  (30) 
saltbridge:ARG:20    0
saltbridge:ARG:20    0
Name: 29, dtype: object

>  <halogenbond:ARG:20>  (30) 
halogenbond:ARG:20    0
halogenbond:ARG:20    0
Name: 29, dtype: object

>  <pication:ARG:20>  (30) 
pication:ARG:20    0
pication:ARG:20    0
Name: 29, dtype: object

>  <hbond:HIS:21>  (30) 
hbond:HIS:21    0
hbond:HIS:21    0
Name: 29, dtype: object

>  <hydroph_interaction:HIS:21>  (30) 
hydroph_interaction:HIS:21    0
hydroph_interaction:HIS:21    0
Name: 29, dtype: object

>  <saltbridge:HIS:21>  (30) 
saltbridge:HIS:21    0
saltbridge:HIS:21    0
Name: 29, dtype: object

>  <pistack:HIS:21>  (30) 
pistack:HIS:21    0
pistack:HIS:21    0
Name: 29, dtype: object

>  <pication:HIS:21>  (30) 
pication:HIS:21    0
pication:HIS:21    0
Name: 29, dtype: object

>  <halogenbond:HIS:21>  (30) 
halogenbond:HIS:21    0
halogenbond:HIS:21    0
Name: 29, dtype: object

>  <hydroph_interaction:LEU:22>  (30) 
hydroph_interaction:LEU:22    0
hydroph_interaction:LEU:22    0
Name: 29, dtype: object

>  <hbond:LEU:22>  (30) 
hbond:LEU:22    0
hbond:LEU:22    0
Name: 29, dtype: object

>  <hydroph_interaction:TRP:28>  (30) 
hydroph_interaction:TRP:28    0
hydroph_interaction:TRP:28    0
Name: 29, dtype: object

>  <hbond:SER:36>  (30) 
hbond:SER:36    0
hbond:SER:36    0
Name: 29, dtype: object

>  <halogenbond:SER:36>  (30) 
halogenbond:SER:36    0
halogenbond:SER:36    0
Name: 29, dtype: object

>  <hbond:ARG:38>  (30) 
hbond:ARG:38    0
hbond:ARG:38    0
Name: 29, dtype: object

>  <halogenbond:ARG:38>  (30) 
halogenbond:ARG:38    0
halogenbond:ARG:38    0
Name: 29, dtype: object

>  <hbond:ASP:39>  (30) 
hbond:ASP:39    0
hbond:ASP:39    0
Name: 29, dtype: object

>  <saltbridge:ASP:39>  (30) 
saltbridge:ASP:39    0
saltbridge:ASP:39    0
Name: 29, dtype: object

>  <hydroph_interaction:ASP:39>  (30) 
hydroph_interaction:ASP:39    0
hydroph_interaction:ASP:39    0
Name: 29, dtype: object

>  <halogenbond:ASP:39>  (30) 
halogenbond:ASP:39    0
halogenbond:ASP:39    0
Name: 29, dtype: object

>  <hydroph_interaction:LEU:40>  (30) 
hydroph_interaction:LEU:40    0
hydroph_interaction:LEU:40    0
Name: 29, dtype: object

>  <hydroph_interaction:TYR:63>  (30) 
hydroph_interaction:TYR:63    0
hydroph_interaction:TYR:63    0
Name: 29, dtype: object

>  <pistack:TYR:63>  (30) 
pistack:TYR:63    0
pistack:TYR:63    0
Name: 29, dtype: object

>  <hbond:TYR:63>  (30) 
hbond:TYR:63    0
hbond:TYR:63    0
Name: 29, dtype: object

>  <hbond:TYR:64>  (30) 
hbond:TYR:64    0
hbond:TYR:64    0
Name: 29, dtype: object

>  <halogenbond:TYR:64>  (30) 
halogenbond:TYR:64    0
halogenbond:TYR:64    0
Name: 29, dtype: object

>  <hydroph_interaction:TYR:64>  (30) 
hydroph_interaction:TYR:64    0
hydroph_interaction:TYR:64    0
Name: 29, dtype: object

>  <hbond:CYS:65>  (30) 
hbond:CYS:65    0
hbond:CYS:65    0
Name: 29, dtype: object

>  <halogenbond:CYS:65>  (30) 
halogenbond:CYS:65    0
halogenbond:CYS:65    0
Name: 29, dtype: object

>  <hbond:SER:66>  (30) 
hbond:SER:66    0
hbond:SER:66    0
Name: 29, dtype: object

>  <hbond:SER:67>  (30) 
hbond:SER:67    0
hbond:SER:67    0
Name: 29, dtype: object

>  <halogenbond:SER:67>  (30) 
halogenbond:SER:67    0
halogenbond:SER:67    0
Name: 29, dtype: object

>  <hydroph_interaction:ARG:68>  (30) 
hydroph_interaction:ARG:68    0
hydroph_interaction:ARG:68    0
Name: 29, dtype: object

>  <hbond:ARG:68>  (30) 
hbond:ARG:68    0
hbond:ARG:68    0
Name: 29, dtype: object

>  <saltbridge:ARG:68>  (30) 
saltbridge:ARG:68    0
saltbridge:ARG:68    0
Name: 29, dtype: object

>  <pication:ARG:68>  (30) 
pication:ARG:68    0
pication:ARG:68    0
Name: 29, dtype: object

>  <hydroph_interaction:TYR:72>  (30) 
hydroph_interaction:TYR:72    0
hydroph_interaction:TYR:72    0
Name: 29, dtype: object

>  <hydroph_interaction:VAL:74>  (30) 
hydroph_interaction:VAL:74    0
hydroph_interaction:VAL:74    0
Name: 29, dtype: object

>  <hydroph_interaction:PHE:76>  (30) 
hydroph_interaction:PHE:76    0
hydroph_interaction:PHE:76    0
Name: 29, dtype: object

>  <hbond:SER:77>  (30) 
hbond:SER:77    0
hbond:SER:77    0
Name: 29, dtype: object

>  <hbond:SER:80>  (30) 
hbond:SER:80    0
hbond:SER:80    0
Name: 29, dtype: object

>  <hbond:LEU:81>  (30) 
hbond:LEU:81    0
hbond:LEU:81    0
Name: 29, dtype: object

>  <halogenbond:LEU:81>  (30) 
halogenbond:LEU:81    0
halogenbond:LEU:81    0
Name: 29, dtype: object

>  <hydroph_interaction:LEU:81>  (30) 
hydroph_interaction:LEU:81    0
hydroph_interaction:LEU:81    0
Name: 29, dtype: object

>  <hydroph_interaction:ILE:82>  (30) 
hydroph_interaction:ILE:82    0
hydroph_interaction:ILE:82    0
Name: 29, dtype: object

>  <hbond:ILE:82>  (30) 
hbond:ILE:82    0
hbond:ILE:82    0
Name: 29, dtype: object

>  <hydroph_interaction:PHE:83>  (30) 
hydroph_interaction:PHE:83    0
hydroph_interaction:PHE:83    0
Name: 29, dtype: object

>  <hbond:PHE:83>  (30) 
hbond:PHE:83    0
hbond:PHE:83    0
Name: 29, dtype: object

>  <halogenbond:PHE:83>  (30) 
halogenbond:PHE:83    0
halogenbond:PHE:83    0
Name: 29, dtype: object

>  <pistack:PHE:83>  (30) 
pistack:PHE:83    0
pistack:PHE:83    0
Name: 29, dtype: object

>  <hydroph_interaction:VAL:84>  (30) 
hydroph_interaction:VAL:84    0
hydroph_interaction:VAL:84    0
Name: 29, dtype: object

>  <hbond:VAL:84>  (30) 
hbond:VAL:84    0
hbond:VAL:84    0
Name: 29, dtype: object

>  <halogenbond:VAL:84>  (30) 
halogenbond:VAL:84    0
halogenbond:VAL:84    0
Name: 29, dtype: object

>  <hydroph_interaction:GLU:85>  (30) 
hydroph_interaction:GLU:85    0
hydroph_interaction:GLU:85    0
Name: 29, dtype: object

>  <hbond:GLU:85>  (30) 
hbond:GLU:85    0
hbond:GLU:85    0
Name: 29, dtype: object

>  <saltbridge:GLU:85>  (30) 
saltbridge:GLU:85    0
saltbridge:GLU:85    0
Name: 29, dtype: object

>  <halogenbond:GLU:85>  (30) 
halogenbond:GLU:85    0
halogenbond:GLU:85    0
Name: 29, dtype: object

>  <hbond:ALA:86>  (30) 
hbond:ALA:86    0
hbond:ALA:86    0
Name: 29, dtype: object

>  <halogenbond:ALA:86>  (30) 
halogenbond:ALA:86    0
halogenbond:ALA:86    0
Name: 29, dtype: object

>  <hydroph_interaction:ALA:86>  (30) 
hydroph_interaction:ALA:86    0
hydroph_interaction:ALA:86    0
Name: 29, dtype: object

>  <hbond:SER:87>  (30) 
hbond:SER:87    0
hbond:SER:87    0
Name: 29, dtype: object

>  <halogenbond:SER:87>  (30) 
halogenbond:SER:87    0
halogenbond:SER:87    0
Name: 29, dtype: object

>  <hbond:GLU:88>  (30) 
hbond:GLU:88    0
hbond:GLU:88    0
Name: 29, dtype: object

>  <hydroph_interaction:GLU:88>  (30) 
hydroph_interaction:GLU:88    0
hydroph_interaction:GLU:88    0
Name: 29, dtype: object

>  <halogenbond:GLU:88>  (30) 
halogenbond:GLU:88    0
halogenbond:GLU:88    0
Name: 29, dtype: object

>  <saltbridge:GLU:88>  (30) 
saltbridge:GLU:88    0
saltbridge:GLU:88    0
Name: 29, dtype: object

>  <hydroph_interaction:TYR:89>  (30) 
hydroph_interaction:TYR:89    0
hydroph_interaction:TYR:89    0
Name: 29, dtype: object

>  <pistack:TYR:89>  (30) 
pistack:TYR:89    0
pistack:TYR:89    0
Name: 29, dtype: object

>  <hbond:TYR:89>  (30) 
hbond:TYR:89    0
hbond:TYR:89    0
Name: 29, dtype: object

>  <halogenbond:TYR:89>  (30) 
halogenbond:TYR:89    0
halogenbond:TYR:89    0
Name: 29, dtype: object

>  <hbond:TYR:90>  (30) 
hbond:TYR:90    0
hbond:TYR:90    0
Name: 29, dtype: object

>  <hydroph_interaction:TYR:90>  (30) 
hydroph_interaction:TYR:90    1
hydroph_interaction:TYR:90    1
Name: 29, dtype: object

>  <pistack:TYR:90>  (30) 
pistack:TYR:90    0
pistack:TYR:90    0
Name: 29, dtype: object

>  <halogenbond:TYR:90>  (30) 
halogenbond:TYR:90    0
halogenbond:TYR:90    0
Name: 29, dtype: object

>  <pication:TYR:90>  (30) 
pication:TYR:90    0
pication:TYR:90    0
Name: 29, dtype: object

>  <hydroph_interaction:PRO:91>  (30) 
hydroph_interaction:PRO:91    0
hydroph_interaction:PRO:91    0
Name: 29, dtype: object

>  <halogenbond:PRO:91>  (30) 
halogenbond:PRO:91    0
halogenbond:PRO:91    0
Name: 29, dtype: object

>  <hbond:PRO:91>  (30) 
hbond:PRO:91    0
hbond:PRO:91    0
Name: 29, dtype: object

>  <hydroph_interaction:ALA:92>  (30) 
hydroph_interaction:ALA:92    0
hydroph_interaction:ALA:92    0
Name: 29, dtype: object

>  <hbond:ARG:93>  (30) 
hbond:ARG:93    0
hbond:ARG:93    0
Name: 29, dtype: object

>  <pication:ARG:93>  (30) 
pication:ARG:93    0
pication:ARG:93    0
Name: 29, dtype: object

>  <saltbridge:ARG:93>  (30) 
saltbridge:ARG:93    0
saltbridge:ARG:93    0
Name: 29, dtype: object

>  <hydroph_interaction:ARG:93>  (30) 
hydroph_interaction:ARG:93    0
hydroph_interaction:ARG:93    0
Name: 29, dtype: object

>  <halogenbond:ARG:93>  (30) 
halogenbond:ARG:93    0
halogenbond:ARG:93    0
Name: 29, dtype: object

>  <hydroph_interaction:TYR:94>  (30) 
hydroph_interaction:TYR:94    0
hydroph_interaction:TYR:94    0
Name: 29, dtype: object

>  <hbond:TYR:94>  (30) 
hbond:TYR:94    0
hbond:TYR:94    0
Name: 29, dtype: object

>  <halogenbond:GLN:95>  (30) 
halogenbond:GLN:95    0
halogenbond:GLN:95    0
Name: 29, dtype: object

>  <hbond:GLN:95>  (30) 
hbond:GLN:95    0
hbond:GLN:95    0
Name: 29, dtype: object

>  <hydroph_interaction:GLN:95>  (30) 
hydroph_interaction:GLN:95    0
hydroph_interaction:GLN:95    0
Name: 29, dtype: object

>  <hbond:SER:96>  (30) 
hbond:SER:96    0
hbond:SER:96    0
Name: 29, dtype: object

>  <hydroph_interaction:LEU:98>  (30) 
hydroph_interaction:LEU:98    0
hydroph_interaction:LEU:98    0
Name: 29, dtype: object

>  <hbond:LEU:98>  (30) 
hbond:LEU:98    0
hbond:LEU:98    0
Name: 29, dtype: object

>  <hbond:MET:99>  (30) 
hbond:MET:99    0
hbond:MET:99    0
Name: 29, dtype: object

>  <hydroph_interaction:MET:99>  (30) 
hydroph_interaction:MET:99    0
hydroph_interaction:MET:99    0
Name: 29, dtype: object

>  <halogenbond:MET:99>  (30) 
halogenbond:MET:99    0
halogenbond:MET:99    0
Name: 29, dtype: object

>  <hydroph_interaction:LEU:100>  (30) 
hydroph_interaction:LEU:100    0
hydroph_interaction:LEU:100    0
Name: 29, dtype: object

>  <hbond:LEU:100>  (30) 
hbond:LEU:100    0
hbond:LEU:100    0
Name: 29, dtype: object

>  <hbond:ALA:101>  (30) 
hbond:ALA:101    0
hbond:ALA:101    0
Name: 29, dtype: object

>  <hydroph_interaction:ALA:101>  (30) 
hydroph_interaction:ALA:101    0
hydroph_interaction:ALA:101    0
Name: 29, dtype: object

>  <hydroph_interaction:VAL:102>  (30) 
hydroph_interaction:VAL:102    0
hydroph_interaction:VAL:102    0
Name: 29, dtype: object

>  <hbond:VAL:102>  (30) 
hbond:VAL:102    0
hbond:VAL:102    0
Name: 29, dtype: object

>  <hbond:GLY:103>  (30) 
hbond:GLY:103    0
hbond:GLY:103    0
Name: 29, dtype: object

>  <halogenbond:GLY:103>  (30) 
halogenbond:GLY:103    0
halogenbond:GLY:103    0
Name: 29, dtype: object

>  <hydroph_interaction:HIS:104>  (30) 
hydroph_interaction:HIS:104    0
hydroph_interaction:HIS:104    0
Name: 29, dtype: object

>  <hbond:HIS:104>  (30) 
hbond:HIS:104    0
hbond:HIS:104    0
Name: 29, dtype: object

>  <saltbridge:HIS:104>  (30) 
saltbridge:HIS:104    0
saltbridge:HIS:104    0
Name: 29, dtype: object

>  <pication:HIS:104>  (30) 
pication:HIS:104    0
pication:HIS:104    0
Name: 29, dtype: object

>  <pistack:HIS:104>  (30) 
pistack:HIS:104    0
pistack:HIS:104    0
Name: 29, dtype: object

>  <halogenbond:HIS:104>  (30) 
halogenbond:HIS:104    0
halogenbond:HIS:104    0
Name: 29, dtype: object

>  <hbond:SER:105>  (30) 
hbond:SER:105    0
hbond:SER:105    0
Name: 29, dtype: object

>  <halogenbond:SER:105>  (30) 
halogenbond:SER:105    0
halogenbond:SER:105    0
Name: 29, dtype: object

>  <hbond:GLU:106>  (30) 
hbond:GLU:106    0
hbond:GLU:106    0
Name: 29, dtype: object

>  <hydroph_interaction:GLU:106>  (30) 
hydroph_interaction:GLU:106    0
hydroph_interaction:GLU:106    0
Name: 29, dtype: object

>  <saltbridge:GLU:106>  (30) 
saltbridge:GLU:106    0
saltbridge:GLU:106    0
Name: 29, dtype: object

>  <halogenbond:GLU:106>  (30) 
halogenbond:GLU:106    0
halogenbond:GLU:106    0
Name: 29, dtype: object

>  <hydroph_interaction:PRO:107>  (30) 
hydroph_interaction:PRO:107    1
hydroph_interaction:PRO:107    1
Name: 29, dtype: object

>  <hbond:PRO:107>  (30) 
hbond:PRO:107    0
hbond:PRO:107    0
Name: 29, dtype: object

>  <halogenbond:PRO:107>  (30) 
halogenbond:PRO:107    0
halogenbond:PRO:107    0
Name: 29, dtype: object

>  <hbond:GLY:108>  (30) 
hbond:GLY:108    0
hbond:GLY:108    0
Name: 29, dtype: object

>  <halogenbond:GLY:108>  (30) 
halogenbond:GLY:108    0
halogenbond:GLY:108    0
Name: 29, dtype: object

>  <hbond:ASP:109>  (30) 
hbond:ASP:109    0
hbond:ASP:109    0
Name: 29, dtype: object

>  <hydroph_interaction:ASP:109>  (30) 
hydroph_interaction:ASP:109    0
hydroph_interaction:ASP:109    0
Name: 29, dtype: object

>  <saltbridge:ASP:109>  (30) 
saltbridge:ASP:109    0
saltbridge:ASP:109    0
Name: 29, dtype: object

>  <hbond:CYS:110>  (30) 
hbond:CYS:110    0
hbond:CYS:110    0
Name: 29, dtype: object

>  <halogenbond:CYS:110>  (30) 
halogenbond:CYS:110    0
halogenbond:CYS:110    0
Name: 29, dtype: object

>  <hbond:GLY:111>  (30) 
hbond:GLY:111    0
hbond:GLY:111    0
Name: 29, dtype: object

>  <hbond:GLY:112>  (30) 
hbond:GLY:112    0
hbond:GLY:112    0
Name: 29, dtype: object

>  <hbond:ILE:113>  (30) 
hbond:ILE:113    0
hbond:ILE:113    0
Name: 29, dtype: object

>  <hydroph_interaction:LEU:114>  (30) 
hydroph_interaction:LEU:114    0
hydroph_interaction:LEU:114    0
Name: 29, dtype: object

>  <hbond:LEU:114>  (30) 
hbond:LEU:114    0
hbond:LEU:114    0
Name: 29, dtype: object

>  <hydroph_interaction:ILE:123>  (30) 
hydroph_interaction:ILE:123    0
hydroph_interaction:ILE:123    0
Name: 29, dtype: object

>  <hbond:ILE:123>  (30) 
hbond:ILE:123    0
hbond:ILE:123    0
Name: 29, dtype: object

>  <hydroph_interaction:VAL:124>  (30) 
hydroph_interaction:VAL:124    1
hydroph_interaction:VAL:124    1
Name: 29, dtype: object

>  <hbond:VAL:124>  (30) 
hbond:VAL:124    0
hbond:VAL:124    0
Name: 29, dtype: object

>  <halogenbond:VAL:124>  (30) 
halogenbond:VAL:124    0
halogenbond:VAL:124    0
Name: 29, dtype: object

>  <hbond:SER:125>  (30) 
hbond:SER:125    0
hbond:SER:125    0
Name: 29, dtype: object

>  <halogenbond:SER:125>  (30) 
halogenbond:SER:125    0
halogenbond:SER:125    0
Name: 29, dtype: object

>  <hydroph_interaction:THR:126>  (30) 
hydroph_interaction:THR:126    0
hydroph_interaction:THR:126    0
Name: 29, dtype: object

>  <hbond:THR:126>  (30) 
hbond:THR:126    0
hbond:THR:126    0
Name: 29, dtype: object

>  <halogenbond:THR:126>  (30) 
halogenbond:THR:126    0
halogenbond:THR:126    0
Name: 29, dtype: object

>  <hbond:GLY:127>  (30) 
hbond:GLY:127    0
hbond:GLY:127    0
Name: 29, dtype: object

>  <halogenbond:GLY:127>  (30) 
halogenbond:GLY:127    0
halogenbond:GLY:127    0
Name: 29, dtype: object

>  <hydroph_interaction:GLY:127>  (30) 
hydroph_interaction:GLY:127    0
hydroph_interaction:GLY:127    0
Name: 29, dtype: object

>  <hbond:GLY:128>  (30) 
hbond:GLY:128    0
hbond:GLY:128    0
Name: 29, dtype: object

>  <halogenbond:GLY:128>  (30) 
halogenbond:GLY:128    0
halogenbond:GLY:128    0
Name: 29, dtype: object

>  <hydroph_interaction:GLY:128>  (30) 
hydroph_interaction:GLY:128    0
hydroph_interaction:GLY:128    0
Name: 29, dtype: object

>  <hbond:ASN:129>  (30) 
hbond:ASN:129    0
hbond:ASN:129    0
Name: 29, dtype: object

>  <hydroph_interaction:ASN:129>  (30) 
hydroph_interaction:ASN:129    0
hydroph_interaction:ASN:129    0
Name: 29, dtype: object

>  <halogenbond:ASN:129>  (30) 
halogenbond:ASN:129    0
halogenbond:ASN:129    0
Name: 29, dtype: object

>  <hbond:GLY:130>  (30) 
hbond:GLY:130    0
hbond:GLY:130    0
Name: 29, dtype: object

>  <hydroph_interaction:LEU:131>  (30) 
hydroph_interaction:LEU:131    0
hydroph_interaction:LEU:131    0
Name: 29, dtype: object

>  <hbond:LEU:131>  (30) 
hbond:LEU:131    0
hbond:LEU:131    0
Name: 29, dtype: object

>  <halogenbond:LEU:131>  (30) 
halogenbond:LEU:131    0
halogenbond:LEU:131    0
Name: 29, dtype: object

>  <hydroph_interaction:VAL:132>  (30) 
hydroph_interaction:VAL:132    0
hydroph_interaction:VAL:132    0
Name: 29, dtype: object

>  <hbond:VAL:132>  (30) 
hbond:VAL:132    0
hbond:VAL:132    0
Name: 29, dtype: object

>  <hbond:GLY:133>  (30) 
hbond:GLY:133    0
hbond:GLY:133    0
Name: 29, dtype: object

>  <halogenbond:GLY:133>  (30) 
halogenbond:GLY:133    0
halogenbond:GLY:133    0
Name: 29, dtype: object

>  <hydroph_interaction:PHE:134>  (30) 
hydroph_interaction:PHE:134    0
hydroph_interaction:PHE:134    0
Name: 29, dtype: object

>  <hbond:PHE:134>  (30) 
hbond:PHE:134    0
hbond:PHE:134    0
Name: 29, dtype: object

>  <pistack:PHE:134>  (30) 
pistack:PHE:134    0
pistack:PHE:134    0
Name: 29, dtype: object

>  <pication:PHE:134>  (30) 
pication:PHE:134    0
pication:PHE:134    0
Name: 29, dtype: object

>  <hydroph_interaction:ALA:135>  (30) 
hydroph_interaction:ALA:135    0
hydroph_interaction:ALA:135    0
Name: 29, dtype: object

>  <hbond:ALA:135>  (30) 
hbond:ALA:135    0
hbond:ALA:135    0
Name: 29, dtype: object

$$$$
PV_002816154671
     RDKit          3D

 34 35  0  0  0  0  0  0  0  0999 V2000
   12.3270   13.9910   23.6100 C   0  0  0  0  0  0  0  0  0  0  0  0
   11.3710   14.5530   22.5760 C   0  0  0  0  0  0  0  0  0  0  0  0
   12.0200   15.6730   21.7900 C   0  0  0  0  0  0  0  0  0  0  0  0
   10.1130   14.1130   22.3670 C   0  0  0  0  0  0  0  0  0  0  0  0
    9.1620   14.6730   21.2950 C   0  0  0  0  0  0  0  0  0  0  0  0
    9.5340   12.9960   23.1240 C   0  0  0  0  0  0  0  0  0  0  0  0
   10.0880   11.6690   22.7300 C   0  0  0  0  0  0  0  0  0  0  0  0
    9.5590   10.4400   23.3840 C   0  0  0  0  0  0  0  0  0  0  0  0
   10.2280    9.2650   22.7870 C   0  0  0  0  0  0  0  0  0  0  0  0
    8.5790   10.4780   24.3790 C   0  0  0  0  0  0  0  0  0  0  0  0
    8.1020   11.7310   24.7290 C   0  0  0  0  0  0  0  0  0  0  0  0
    8.5580   13.0310   24.1130 C   0  0  0  0  0  0  0  0  0  0  0  0
    7.8630   14.0820   24.6830 C   0  0  0  0  0  0  0  0  0  0  0  0
    6.9260   13.5570   25.5800 C   0  0  0  0  0  0  0  0  0  0  0  0
    7.0950   12.1580   25.7060 C   0  0  0  0  0  0  0  0  0  0  0  0
    6.5210   11.4230   26.4900 O   0  0  0  0  0  0  0  0  0  0  0  0
   12.2480   14.5750   24.5350 H   0  0  0  0  0  0  0  0  0  0  0  0
   12.0780   12.9490   23.8270 H   0  0  0  0  0  0  0  0  0  0  0  0
   13.3560   14.0420   23.2410 H   0  0  0  0  0  0  0  0  0  0  0  0
   12.9780   15.5530   21.2950 H   0  0  0  0  0  0  0  0  0  0  0  0
   11.3300   15.9860   21.0070 H   0  0  0  0  0  0  0  0  0  0  0  0
   12.1300   16.5040   22.4970 H   0  0  0  0  0  0  0  0  0  0  0  0
    9.4650   15.6780   21.0050 H   0  0  0  0  0  0  0  0  0  0  0  0
    9.1640   14.0790   20.3890 H   0  0  0  0  0  0  0  0  0  0  0  0
    8.1230   14.7040   21.6380 H   0  0  0  0  0  0  0  0  0  0  0  0
   10.8470   11.5930   21.9800 H   0  0  0  0  0  0  0  0  0  0  0  0
   10.7500    8.6640   23.5160 H   0  0  0  0  0  0  0  0  0  0  0  0
   10.9380    9.5880   22.0260 H   0  0  0  0  0  0  0  0  0  0  0  0
    9.4960    8.6570   22.2550 H   0  0  0  0  0  0  0  0  0  0  0  0
    8.1970    9.5820   24.8550 H   0  0  0  0  0  0  0  0  0  0  0  0
    7.3200   14.5980   23.8800 H   0  0  0  0  0  0  0  0  0  0  0  0
    8.4310   14.8620   25.1980 H   0  0  0  0  0  0  0  0  0  0  0  0
    5.9620   13.8590   25.1430 H   0  0  0  0  0  0  0  0  0  0  0  0
    6.8780   14.0770   26.5330 H   0  0  0  0  0  0  0  0  0  0  0  0
  1  2  1  0
  2  3  1  0
  2  4  2  3
  4  5  1  0
  4  6  1  0
  6  7  2  0
  7  8  1  0
  8  9  1  0
  8 10  2  0
 10 11  1  0
 11 12  2  0
 12 13  1  0
 13 14  1  0
 14 15  1  0
 15 16  2  0
 12  6  1  0
 15 11  1  0
  1 17  1  0
  1 18  1  0
  1 19  1  0
  3 20  1  0
  3 21  1  0
  3 22  1  0
  5 23  1  0
  5 24  1  0
  5 25  1  0
  7 26  1  0
  9 27  1  0
  9 28  1  0
  9 29  1  0
 10 30  1  0
 13 31  1  0
 13 32  1  0
 14 33  1  0
 14 34  1  0
A    1
 C1 
A    2
 C2 
A    3
 C3 
A    4
 C4 
A    5
 C5 
A    6
 C6 
A    7
 C7 
A    8
 C8 
A    9
 C9 
A   10
 C10
A   11
 C11
A   12
 C12
A   13
 C13
A   14
 C14
A   15
 C15
A   16
 O1 
A   17
 H1 
A   18
 H2 
A   19
 H3 
A   20
 H4 
A   21
 H5 
A   22
 H6 
A   23
 H7 
A   24
 H8 
A   25
 H9 
A   26
 H10
A   27
 H11
A   28
 H12
A   29
 H13
A   30
 H14
A   31
 H15
A   32
 H16
A   33
 H17
A   34
 H18
M  END
>  <ref_pdb>  (31) 
x0310_0A

>  <ref_mols>  (31) 
x0554_0A,x0528_0A

>  <original SMILES>  (31) 
CC(C)=C(C)c1cc(C)cc2c1CCC2=O

>  <rationale>  (31) 
info hydroph_interaction:P107+V124+Y90; 

>  <intxn_cluster>  (31) 
103

>  <intxn_cluster_rank>  (31) 
114

>  <N_interactions>  (31) 
3

>  <∆∆G>  (31) 
-12.601276

>  <$/mg>  (31) 
163.0

>  <comRMSD>  (31) 
0.997823

>  <N_rotatable_bonds>  (31) 
5

>  <hbond:SER:7>  (31) 
hbond:SER:7    0
hbond:SER:7    0
Name: 30, dtype: object

>  <halogenbond:SER:7>  (31) 
halogenbond:SER:7    0
halogenbond:SER:7    0
Name: 30, dtype: object

>  <hbond:GLY:8>  (31) 
hbond:GLY:8    0
hbond:GLY:8    0
Name: 30, dtype: object

>  <hydroph_interaction:ASN:19>  (31) 
hydroph_interaction:ASN:19    0
hydroph_interaction:ASN:19    0
Name: 30, dtype: object

>  <hbond:ASN:19>  (31) 
hbond:ASN:19    0
hbond:ASN:19    0
Name: 30, dtype: object

>  <halogenbond:ASN:19>  (31) 
halogenbond:ASN:19    0
halogenbond:ASN:19    0
Name: 30, dtype: object

>  <hbond:ARG:20>  (31) 
hbond:ARG:20    0
hbond:ARG:20    0
Name: 30, dtype: object

>  <hydroph_interaction:ARG:20>  (31) 
hydroph_interaction:ARG:20    0
hydroph_interaction:ARG:20    0
Name: 30, dtype: object

>  <saltbridge:ARG:20>  (31) 
saltbridge:ARG:20    0
saltbridge:ARG:20    0
Name: 30, dtype: object

>  <halogenbond:ARG:20>  (31) 
halogenbond:ARG:20    0
halogenbond:ARG:20    0
Name: 30, dtype: object

>  <pication:ARG:20>  (31) 
pication:ARG:20    0
pication:ARG:20    0
Name: 30, dtype: object

>  <hbond:HIS:21>  (31) 
hbond:HIS:21    0
hbond:HIS:21    0
Name: 30, dtype: object

>  <hydroph_interaction:HIS:21>  (31) 
hydroph_interaction:HIS:21    0
hydroph_interaction:HIS:21    0
Name: 30, dtype: object

>  <saltbridge:HIS:21>  (31) 
saltbridge:HIS:21    0
saltbridge:HIS:21    0
Name: 30, dtype: object

>  <pistack:HIS:21>  (31) 
pistack:HIS:21    0
pistack:HIS:21    0
Name: 30, dtype: object

>  <pication:HIS:21>  (31) 
pication:HIS:21    0
pication:HIS:21    0
Name: 30, dtype: object

>  <halogenbond:HIS:21>  (31) 
halogenbond:HIS:21    0
halogenbond:HIS:21    0
Name: 30, dtype: object

>  <hydroph_interaction:LEU:22>  (31) 
hydroph_interaction:LEU:22    0
hydroph_interaction:LEU:22    0
Name: 30, dtype: object

>  <hbond:LEU:22>  (31) 
hbond:LEU:22    0
hbond:LEU:22    0
Name: 30, dtype: object

>  <hydroph_interaction:TRP:28>  (31) 
hydroph_interaction:TRP:28    0
hydroph_interaction:TRP:28    0
Name: 30, dtype: object

>  <hbond:SER:36>  (31) 
hbond:SER:36    0
hbond:SER:36    0
Name: 30, dtype: object

>  <halogenbond:SER:36>  (31) 
halogenbond:SER:36    0
halogenbond:SER:36    0
Name: 30, dtype: object

>  <hbond:ARG:38>  (31) 
hbond:ARG:38    0
hbond:ARG:38    0
Name: 30, dtype: object

>  <halogenbond:ARG:38>  (31) 
halogenbond:ARG:38    0
halogenbond:ARG:38    0
Name: 30, dtype: object

>  <hbond:ASP:39>  (31) 
hbond:ASP:39    0
hbond:ASP:39    0
Name: 30, dtype: object

>  <saltbridge:ASP:39>  (31) 
saltbridge:ASP:39    0
saltbridge:ASP:39    0
Name: 30, dtype: object

>  <hydroph_interaction:ASP:39>  (31) 
hydroph_interaction:ASP:39    0
hydroph_interaction:ASP:39    0
Name: 30, dtype: object

>  <halogenbond:ASP:39>  (31) 
halogenbond:ASP:39    0
halogenbond:ASP:39    0
Name: 30, dtype: object

>  <hydroph_interaction:LEU:40>  (31) 
hydroph_interaction:LEU:40    0
hydroph_interaction:LEU:40    0
Name: 30, dtype: object

>  <hydroph_interaction:TYR:63>  (31) 
hydroph_interaction:TYR:63    0
hydroph_interaction:TYR:63    0
Name: 30, dtype: object

>  <pistack:TYR:63>  (31) 
pistack:TYR:63    0
pistack:TYR:63    0
Name: 30, dtype: object

>  <hbond:TYR:63>  (31) 
hbond:TYR:63    0
hbond:TYR:63    0
Name: 30, dtype: object

>  <hbond:TYR:64>  (31) 
hbond:TYR:64    0
hbond:TYR:64    0
Name: 30, dtype: object

>  <halogenbond:TYR:64>  (31) 
halogenbond:TYR:64    0
halogenbond:TYR:64    0
Name: 30, dtype: object

>  <hydroph_interaction:TYR:64>  (31) 
hydroph_interaction:TYR:64    0
hydroph_interaction:TYR:64    0
Name: 30, dtype: object

>  <hbond:CYS:65>  (31) 
hbond:CYS:65    0
hbond:CYS:65    0
Name: 30, dtype: object

>  <halogenbond:CYS:65>  (31) 
halogenbond:CYS:65    0
halogenbond:CYS:65    0
Name: 30, dtype: object

>  <hbond:SER:66>  (31) 
hbond:SER:66    0
hbond:SER:66    0
Name: 30, dtype: object

>  <hbond:SER:67>  (31) 
hbond:SER:67    0
hbond:SER:67    0
Name: 30, dtype: object

>  <halogenbond:SER:67>  (31) 
halogenbond:SER:67    0
halogenbond:SER:67    0
Name: 30, dtype: object

>  <hydroph_interaction:ARG:68>  (31) 
hydroph_interaction:ARG:68    0
hydroph_interaction:ARG:68    0
Name: 30, dtype: object

>  <hbond:ARG:68>  (31) 
hbond:ARG:68    0
hbond:ARG:68    0
Name: 30, dtype: object

>  <saltbridge:ARG:68>  (31) 
saltbridge:ARG:68    0
saltbridge:ARG:68    0
Name: 30, dtype: object

>  <pication:ARG:68>  (31) 
pication:ARG:68    0
pication:ARG:68    0
Name: 30, dtype: object

>  <hydroph_interaction:TYR:72>  (31) 
hydroph_interaction:TYR:72    0
hydroph_interaction:TYR:72    0
Name: 30, dtype: object

>  <hydroph_interaction:VAL:74>  (31) 
hydroph_interaction:VAL:74    0
hydroph_interaction:VAL:74    0
Name: 30, dtype: object

>  <hydroph_interaction:PHE:76>  (31) 
hydroph_interaction:PHE:76    0
hydroph_interaction:PHE:76    0
Name: 30, dtype: object

>  <hbond:SER:77>  (31) 
hbond:SER:77    0
hbond:SER:77    0
Name: 30, dtype: object

>  <hbond:SER:80>  (31) 
hbond:SER:80    0
hbond:SER:80    0
Name: 30, dtype: object

>  <hbond:LEU:81>  (31) 
hbond:LEU:81    0
hbond:LEU:81    0
Name: 30, dtype: object

>  <halogenbond:LEU:81>  (31) 
halogenbond:LEU:81    0
halogenbond:LEU:81    0
Name: 30, dtype: object

>  <hydroph_interaction:LEU:81>  (31) 
hydroph_interaction:LEU:81    0
hydroph_interaction:LEU:81    0
Name: 30, dtype: object

>  <hydroph_interaction:ILE:82>  (31) 
hydroph_interaction:ILE:82    0
hydroph_interaction:ILE:82    0
Name: 30, dtype: object

>  <hbond:ILE:82>  (31) 
hbond:ILE:82    0
hbond:ILE:82    0
Name: 30, dtype: object

>  <hydroph_interaction:PHE:83>  (31) 
hydroph_interaction:PHE:83    0
hydroph_interaction:PHE:83    0
Name: 30, dtype: object

>  <hbond:PHE:83>  (31) 
hbond:PHE:83    0
hbond:PHE:83    0
Name: 30, dtype: object

>  <halogenbond:PHE:83>  (31) 
halogenbond:PHE:83    0
halogenbond:PHE:83    0
Name: 30, dtype: object

>  <pistack:PHE:83>  (31) 
pistack:PHE:83    0
pistack:PHE:83    0
Name: 30, dtype: object

>  <hydroph_interaction:VAL:84>  (31) 
hydroph_interaction:VAL:84    0
hydroph_interaction:VAL:84    0
Name: 30, dtype: object

>  <hbond:VAL:84>  (31) 
hbond:VAL:84    0
hbond:VAL:84    0
Name: 30, dtype: object

>  <halogenbond:VAL:84>  (31) 
halogenbond:VAL:84    0
halogenbond:VAL:84    0
Name: 30, dtype: object

>  <hydroph_interaction:GLU:85>  (31) 
hydroph_interaction:GLU:85    0
hydroph_interaction:GLU:85    0
Name: 30, dtype: object

>  <hbond:GLU:85>  (31) 
hbond:GLU:85    0
hbond:GLU:85    0
Name: 30, dtype: object

>  <saltbridge:GLU:85>  (31) 
saltbridge:GLU:85    0
saltbridge:GLU:85    0
Name: 30, dtype: object

>  <halogenbond:GLU:85>  (31) 
halogenbond:GLU:85    0
halogenbond:GLU:85    0
Name: 30, dtype: object

>  <hbond:ALA:86>  (31) 
hbond:ALA:86    0
hbond:ALA:86    0
Name: 30, dtype: object

>  <halogenbond:ALA:86>  (31) 
halogenbond:ALA:86    0
halogenbond:ALA:86    0
Name: 30, dtype: object

>  <hydroph_interaction:ALA:86>  (31) 
hydroph_interaction:ALA:86    0
hydroph_interaction:ALA:86    0
Name: 30, dtype: object

>  <hbond:SER:87>  (31) 
hbond:SER:87    0
hbond:SER:87    0
Name: 30, dtype: object

>  <halogenbond:SER:87>  (31) 
halogenbond:SER:87    0
halogenbond:SER:87    0
Name: 30, dtype: object

>  <hbond:GLU:88>  (31) 
hbond:GLU:88    0
hbond:GLU:88    0
Name: 30, dtype: object

>  <hydroph_interaction:GLU:88>  (31) 
hydroph_interaction:GLU:88    0
hydroph_interaction:GLU:88    0
Name: 30, dtype: object

>  <halogenbond:GLU:88>  (31) 
halogenbond:GLU:88    0
halogenbond:GLU:88    0
Name: 30, dtype: object

>  <saltbridge:GLU:88>  (31) 
saltbridge:GLU:88    0
saltbridge:GLU:88    0
Name: 30, dtype: object

>  <hydroph_interaction:TYR:89>  (31) 
hydroph_interaction:TYR:89    0
hydroph_interaction:TYR:89    0
Name: 30, dtype: object

>  <pistack:TYR:89>  (31) 
pistack:TYR:89    0
pistack:TYR:89    0
Name: 30, dtype: object

>  <hbond:TYR:89>  (31) 
hbond:TYR:89    0
hbond:TYR:89    0
Name: 30, dtype: object

>  <halogenbond:TYR:89>  (31) 
halogenbond:TYR:89    0
halogenbond:TYR:89    0
Name: 30, dtype: object

>  <hbond:TYR:90>  (31) 
hbond:TYR:90    0
hbond:TYR:90    0
Name: 30, dtype: object

>  <hydroph_interaction:TYR:90>  (31) 
hydroph_interaction:TYR:90    1
hydroph_interaction:TYR:90    1
Name: 30, dtype: object

>  <pistack:TYR:90>  (31) 
pistack:TYR:90    0
pistack:TYR:90    0
Name: 30, dtype: object

>  <halogenbond:TYR:90>  (31) 
halogenbond:TYR:90    0
halogenbond:TYR:90    0
Name: 30, dtype: object

>  <pication:TYR:90>  (31) 
pication:TYR:90    0
pication:TYR:90    0
Name: 30, dtype: object

>  <hydroph_interaction:PRO:91>  (31) 
hydroph_interaction:PRO:91    0
hydroph_interaction:PRO:91    0
Name: 30, dtype: object

>  <halogenbond:PRO:91>  (31) 
halogenbond:PRO:91    0
halogenbond:PRO:91    0
Name: 30, dtype: object

>  <hbond:PRO:91>  (31) 
hbond:PRO:91    0
hbond:PRO:91    0
Name: 30, dtype: object

>  <hydroph_interaction:ALA:92>  (31) 
hydroph_interaction:ALA:92    0
hydroph_interaction:ALA:92    0
Name: 30, dtype: object

>  <hbond:ARG:93>  (31) 
hbond:ARG:93    0
hbond:ARG:93    0
Name: 30, dtype: object

>  <pication:ARG:93>  (31) 
pication:ARG:93    0
pication:ARG:93    0
Name: 30, dtype: object

>  <saltbridge:ARG:93>  (31) 
saltbridge:ARG:93    0
saltbridge:ARG:93    0
Name: 30, dtype: object

>  <hydroph_interaction:ARG:93>  (31) 
hydroph_interaction:ARG:93    0
hydroph_interaction:ARG:93    0
Name: 30, dtype: object

>  <halogenbond:ARG:93>  (31) 
halogenbond:ARG:93    0
halogenbond:ARG:93    0
Name: 30, dtype: object

>  <hydroph_interaction:TYR:94>  (31) 
hydroph_interaction:TYR:94    0
hydroph_interaction:TYR:94    0
Name: 30, dtype: object

>  <hbond:TYR:94>  (31) 
hbond:TYR:94    0
hbond:TYR:94    0
Name: 30, dtype: object

>  <halogenbond:GLN:95>  (31) 
halogenbond:GLN:95    0
halogenbond:GLN:95    0
Name: 30, dtype: object

>  <hbond:GLN:95>  (31) 
hbond:GLN:95    0
hbond:GLN:95    0
Name: 30, dtype: object

>  <hydroph_interaction:GLN:95>  (31) 
hydroph_interaction:GLN:95    0
hydroph_interaction:GLN:95    0
Name: 30, dtype: object

>  <hbond:SER:96>  (31) 
hbond:SER:96    0
hbond:SER:96    0
Name: 30, dtype: object

>  <hydroph_interaction:LEU:98>  (31) 
hydroph_interaction:LEU:98    0
hydroph_interaction:LEU:98    0
Name: 30, dtype: object

>  <hbond:LEU:98>  (31) 
hbond:LEU:98    0
hbond:LEU:98    0
Name: 30, dtype: object

>  <hbond:MET:99>  (31) 
hbond:MET:99    0
hbond:MET:99    0
Name: 30, dtype: object

>  <hydroph_interaction:MET:99>  (31) 
hydroph_interaction:MET:99    0
hydroph_interaction:MET:99    0
Name: 30, dtype: object

>  <halogenbond:MET:99>  (31) 
halogenbond:MET:99    0
halogenbond:MET:99    0
Name: 30, dtype: object

>  <hydroph_interaction:LEU:100>  (31) 
hydroph_interaction:LEU:100    0
hydroph_interaction:LEU:100    0
Name: 30, dtype: object

>  <hbond:LEU:100>  (31) 
hbond:LEU:100    0
hbond:LEU:100    0
Name: 30, dtype: object

>  <hbond:ALA:101>  (31) 
hbond:ALA:101    0
hbond:ALA:101    0
Name: 30, dtype: object

>  <hydroph_interaction:ALA:101>  (31) 
hydroph_interaction:ALA:101    0
hydroph_interaction:ALA:101    0
Name: 30, dtype: object

>  <hydroph_interaction:VAL:102>  (31) 
hydroph_interaction:VAL:102    0
hydroph_interaction:VAL:102    0
Name: 30, dtype: object

>  <hbond:VAL:102>  (31) 
hbond:VAL:102    0
hbond:VAL:102    0
Name: 30, dtype: object

>  <hbond:GLY:103>  (31) 
hbond:GLY:103    0
hbond:GLY:103    0
Name: 30, dtype: object

>  <halogenbond:GLY:103>  (31) 
halogenbond:GLY:103    0
halogenbond:GLY:103    0
Name: 30, dtype: object

>  <hydroph_interaction:HIS:104>  (31) 
hydroph_interaction:HIS:104    0
hydroph_interaction:HIS:104    0
Name: 30, dtype: object

>  <hbond:HIS:104>  (31) 
hbond:HIS:104    0
hbond:HIS:104    0
Name: 30, dtype: object

>  <saltbridge:HIS:104>  (31) 
saltbridge:HIS:104    0
saltbridge:HIS:104    0
Name: 30, dtype: object

>  <pication:HIS:104>  (31) 
pication:HIS:104    0
pication:HIS:104    0
Name: 30, dtype: object

>  <pistack:HIS:104>  (31) 
pistack:HIS:104    0
pistack:HIS:104    0
Name: 30, dtype: object

>  <halogenbond:HIS:104>  (31) 
halogenbond:HIS:104    0
halogenbond:HIS:104    0
Name: 30, dtype: object

>  <hbond:SER:105>  (31) 
hbond:SER:105    0
hbond:SER:105    0
Name: 30, dtype: object

>  <halogenbond:SER:105>  (31) 
halogenbond:SER:105    0
halogenbond:SER:105    0
Name: 30, dtype: object

>  <hbond:GLU:106>  (31) 
hbond:GLU:106    0
hbond:GLU:106    0
Name: 30, dtype: object

>  <hydroph_interaction:GLU:106>  (31) 
hydroph_interaction:GLU:106    0
hydroph_interaction:GLU:106    0
Name: 30, dtype: object

>  <saltbridge:GLU:106>  (31) 
saltbridge:GLU:106    0
saltbridge:GLU:106    0
Name: 30, dtype: object

>  <halogenbond:GLU:106>  (31) 
halogenbond:GLU:106    0
halogenbond:GLU:106    0
Name: 30, dtype: object

>  <hydroph_interaction:PRO:107>  (31) 
hydroph_interaction:PRO:107    1
hydroph_interaction:PRO:107    1
Name: 30, dtype: object

>  <hbond:PRO:107>  (31) 
hbond:PRO:107    0
hbond:PRO:107    0
Name: 30, dtype: object

>  <halogenbond:PRO:107>  (31) 
halogenbond:PRO:107    0
halogenbond:PRO:107    0
Name: 30, dtype: object

>  <hbond:GLY:108>  (31) 
hbond:GLY:108    0
hbond:GLY:108    0
Name: 30, dtype: object

>  <halogenbond:GLY:108>  (31) 
halogenbond:GLY:108    0
halogenbond:GLY:108    0
Name: 30, dtype: object

>  <hbond:ASP:109>  (31) 
hbond:ASP:109    0
hbond:ASP:109    0
Name: 30, dtype: object

>  <hydroph_interaction:ASP:109>  (31) 
hydroph_interaction:ASP:109    0
hydroph_interaction:ASP:109    0
Name: 30, dtype: object

>  <saltbridge:ASP:109>  (31) 
saltbridge:ASP:109    0
saltbridge:ASP:109    0
Name: 30, dtype: object

>  <hbond:CYS:110>  (31) 
hbond:CYS:110    0
hbond:CYS:110    0
Name: 30, dtype: object

>  <halogenbond:CYS:110>  (31) 
halogenbond:CYS:110    0
halogenbond:CYS:110    0
Name: 30, dtype: object

>  <hbond:GLY:111>  (31) 
hbond:GLY:111    0
hbond:GLY:111    0
Name: 30, dtype: object

>  <hbond:GLY:112>  (31) 
hbond:GLY:112    0
hbond:GLY:112    0
Name: 30, dtype: object

>  <hbond:ILE:113>  (31) 
hbond:ILE:113    0
hbond:ILE:113    0
Name: 30, dtype: object

>  <hydroph_interaction:LEU:114>  (31) 
hydroph_interaction:LEU:114    0
hydroph_interaction:LEU:114    0
Name: 30, dtype: object

>  <hbond:LEU:114>  (31) 
hbond:LEU:114    0
hbond:LEU:114    0
Name: 30, dtype: object

>  <hydroph_interaction:ILE:123>  (31) 
hydroph_interaction:ILE:123    0
hydroph_interaction:ILE:123    0
Name: 30, dtype: object

>  <hbond:ILE:123>  (31) 
hbond:ILE:123    0
hbond:ILE:123    0
Name: 30, dtype: object

>  <hydroph_interaction:VAL:124>  (31) 
hydroph_interaction:VAL:124    1
hydroph_interaction:VAL:124    1
Name: 30, dtype: object

>  <hbond:VAL:124>  (31) 
hbond:VAL:124    0
hbond:VAL:124    0
Name: 30, dtype: object

>  <halogenbond:VAL:124>  (31) 
halogenbond:VAL:124    0
halogenbond:VAL:124    0
Name: 30, dtype: object

>  <hbond:SER:125>  (31) 
hbond:SER:125    0
hbond:SER:125    0
Name: 30, dtype: object

>  <halogenbond:SER:125>  (31) 
halogenbond:SER:125    0
halogenbond:SER:125    0
Name: 30, dtype: object

>  <hydroph_interaction:THR:126>  (31) 
hydroph_interaction:THR:126    0
hydroph_interaction:THR:126    0
Name: 30, dtype: object

>  <hbond:THR:126>  (31) 
hbond:THR:126    0
hbond:THR:126    0
Name: 30, dtype: object

>  <halogenbond:THR:126>  (31) 
halogenbond:THR:126    0
halogenbond:THR:126    0
Name: 30, dtype: object

>  <hbond:GLY:127>  (31) 
hbond:GLY:127    0
hbond:GLY:127    0
Name: 30, dtype: object

>  <halogenbond:GLY:127>  (31) 
halogenbond:GLY:127    0
halogenbond:GLY:127    0
Name: 30, dtype: object

>  <hydroph_interaction:GLY:127>  (31) 
hydroph_interaction:GLY:127    0
hydroph_interaction:GLY:127    0
Name: 30, dtype: object

>  <hbond:GLY:128>  (31) 
hbond:GLY:128    0
hbond:GLY:128    0
Name: 30, dtype: object

>  <halogenbond:GLY:128>  (31) 
halogenbond:GLY:128    0
halogenbond:GLY:128    0
Name: 30, dtype: object

>  <hydroph_interaction:GLY:128>  (31) 
hydroph_interaction:GLY:128    0
hydroph_interaction:GLY:128    0
Name: 30, dtype: object

>  <hbond:ASN:129>  (31) 
hbond:ASN:129    0
hbond:ASN:129    0
Name: 30, dtype: object

>  <hydroph_interaction:ASN:129>  (31) 
hydroph_interaction:ASN:129    0
hydroph_interaction:ASN:129    0
Name: 30, dtype: object

>  <halogenbond:ASN:129>  (31) 
halogenbond:ASN:129    0
halogenbond:ASN:129    0
Name: 30, dtype: object

>  <hbond:GLY:130>  (31) 
hbond:GLY:130    0
hbond:GLY:130    0
Name: 30, dtype: object

>  <hydroph_interaction:LEU:131>  (31) 
hydroph_interaction:LEU:131    0
hydroph_interaction:LEU:131    0
Name: 30, dtype: object

>  <hbond:LEU:131>  (31) 
hbond:LEU:131    0
hbond:LEU:131    0
Name: 30, dtype: object

>  <halogenbond:LEU:131>  (31) 
halogenbond:LEU:131    0
halogenbond:LEU:131    0
Name: 30, dtype: object

>  <hydroph_interaction:VAL:132>  (31) 
hydroph_interaction:VAL:132    0
hydroph_interaction:VAL:132    0
Name: 30, dtype: object

>  <hbond:VAL:132>  (31) 
hbond:VAL:132    0
hbond:VAL:132    0
Name: 30, dtype: object

>  <hbond:GLY:133>  (31) 
hbond:GLY:133    0
hbond:GLY:133    0
Name: 30, dtype: object

>  <halogenbond:GLY:133>  (31) 
halogenbond:GLY:133    0
halogenbond:GLY:133    0
Name: 30, dtype: object

>  <hydroph_interaction:PHE:134>  (31) 
hydroph_interaction:PHE:134    0
hydroph_interaction:PHE:134    0
Name: 30, dtype: object

>  <hbond:PHE:134>  (31) 
hbond:PHE:134    0
hbond:PHE:134    0
Name: 30, dtype: object

>  <pistack:PHE:134>  (31) 
pistack:PHE:134    0
pistack:PHE:134    0
Name: 30, dtype: object

>  <pication:PHE:134>  (31) 
pication:PHE:134    0
pication:PHE:134    0
Name: 30, dtype: object

>  <hydroph_interaction:ALA:135>  (31) 
hydroph_interaction:ALA:135    0
hydroph_interaction:ALA:135    0
Name: 30, dtype: object

>  <hbond:ALA:135>  (31) 
hbond:ALA:135    0
hbond:ALA:135    0
Name: 30, dtype: object

$$$$
Z5577991819
     RDKit          3D

 27 28  0  0  0  0  0  0  0  0999 V2000
    4.4200   14.9300   27.2930 C   0  0  0  0  0  0  0  0  0  0  0  0
    5.5060   14.0640   26.9730 O   0  0  0  0  0  0  0  0  0  0  0  0
    6.4790   14.6900   26.2600 C   0  0  0  0  0  0  0  0  0  0  0  0
    6.6560   15.8990   26.2500 O   0  0  0  0  0  0  0  0  0  0  0  0
    7.2980   13.6960   25.4950 C   0  0  0  0  0  0  0  0  0  0  0  0
    7.2330   12.3110   25.5700 C   0  0  0  0  0  0  0  0  0  0  0  0
    8.1230   11.6580   24.7360 C   0  0  0  0  0  0  0  0  0  0  0  0
    8.2740   10.2910   24.6080 C   0  0  0  0  0  0  0  0  0  0  0  0
    9.2200    9.7920   23.7170 C   0  0  0  0  0  0  0  0  0  0  0  0
   10.0410   10.7420   22.9260 C   0  0  0  0  0  0  0  0  0  0  0  0
    9.8600   12.1010   23.0870 C   0  0  0  0  0  0  0  0  0  0  0  0
   10.6770   12.9760   22.3060 N   0  0  0  0  0  0  0  0  0  0  0  0
   11.4080   13.9770   22.8910 C   0  0  0  0  0  0  0  0  0  0  0  0
   12.0860   14.7120   21.9660 N   0  0  0  0  0  0  0  0  0  0  0  0
   11.4920   14.2550   24.0780 O   0  0  0  0  0  0  0  0  0  0  0  0
    8.8940   12.5540   23.9980 C   0  0  0  0  0  0  0  0  0  0  0  0
    8.4780   14.1840   24.3780 S   0  0  0  0  0  0  0  0  0  0  0  0
    3.7890   14.4870   28.0700 H   0  0  0  0  0  0  0  0  0  0  0  0
    3.8150   15.1340   26.4030 H   0  0  0  0  0  0  0  0  0  0  0  0
    4.8350   15.8660   27.6810 H   0  0  0  0  0  0  0  0  0  0  0  0
    6.5490   11.7700   26.2180 H   0  0  0  0  0  0  0  0  0  0  0  0
    7.6640    9.6150   25.1910 H   0  0  0  0  0  0  0  0  0  0  0  0
    9.3620    8.7470   23.5970 H   0  0  0  0  0  0  0  0  0  0  0  0
   10.7510   10.2460   22.2560 H   0  0  0  0  0  0  0  0  0  0  0  0
   11.0050   12.6200   21.4040 H   0  0  0  0  0  0  0  0  0  0  0  0
   12.9570   15.0740   22.3390 H   0  0  0  0  0  0  0  0  0  0  0  0
   12.1620   14.3110   21.0290 H   0  0  0  0  0  0  0  0  0  0  0  0
  1  2  1  0
  2  3  1  0
  3  4  2  0
  3  5  1  0
  5  6  2  0
  6  7  1  0
  7  8  2  0
  8  9  1  0
  9 10  2  0
 10 11  1  0
 11 12  1  0
 12 13  1  0
 13 14  1  0
 13 15  2  0
 11 16  2  0
 16 17  1  0
 17  5  1  0
 16  7  1  0
  1 18  1  0
  1 19  1  0
  1 20  1  0
  6 21  1  0
  8 22  1  0
  9 23  1  0
 10 24  1  0
 12 25  1  0
 14 26  1  0
 14 27  1  0
A    1
 C1 
A    2
 O1 
A    3
 C2 
A    4
 O2 
A    5
 C3 
A    6
 C4 
A    7
 C5 
A    8
 C6 
A    9
 C7 
A   10
 C8 
A   11
 C9 
A   12
 N1 
A   13
 C10
A   14
 N2 
A   15
 O3 
A   16
 C11
A   17
 S1 
A   18
 H1 
A   19
 H2 
A   20
 H3 
A   21
 H4 
A   22
 H5 
A   23
 H6 
A   24
 H7 
A   25
 H8 
A   26
 H9 
A   27
 H10
M  END
>  <ref_pdb>  (32) 
x0310_0A

>  <ref_mols>  (32) 
x0554_0A,x0416_0A,x0446_0A

>  <original SMILES>  (32) 
COC(=O)c1cc2cccc(NC(N)=O)c2s1

>  <rationale>  (32) 
info hbond:S125+S87; hydroph_interaction:P107; 

>  <intxn_cluster>  (32) 
208

>  <intxn_cluster_rank>  (32) 
121

>  <N_interactions>  (32) 
4

>  <∆∆G>  (32) 
-7.35911

>  <$/mg>  (32) 
163.0

>  <comRMSD>  (32) 
0.874172

>  <N_rotatable_bonds>  (32) 
3

>  <hbond:SER:7>  (32) 
hbond:SER:7    0
hbond:SER:7    0
Name: 31, dtype: object

>  <halogenbond:SER:7>  (32) 
halogenbond:SER:7    0
halogenbond:SER:7    0
Name: 31, dtype: object

>  <hbond:GLY:8>  (32) 
hbond:GLY:8    0
hbond:GLY:8    0
Name: 31, dtype: object

>  <hydroph_interaction:ASN:19>  (32) 
hydroph_interaction:ASN:19    0
hydroph_interaction:ASN:19    0
Name: 31, dtype: object

>  <hbond:ASN:19>  (32) 
hbond:ASN:19    0
hbond:ASN:19    0
Name: 31, dtype: object

>  <halogenbond:ASN:19>  (32) 
halogenbond:ASN:19    0
halogenbond:ASN:19    0
Name: 31, dtype: object

>  <hbond:ARG:20>  (32) 
hbond:ARG:20    0
hbond:ARG:20    0
Name: 31, dtype: object

>  <hydroph_interaction:ARG:20>  (32) 
hydroph_interaction:ARG:20    0
hydroph_interaction:ARG:20    0
Name: 31, dtype: object

>  <saltbridge:ARG:20>  (32) 
saltbridge:ARG:20    0
saltbridge:ARG:20    0
Name: 31, dtype: object

>  <halogenbond:ARG:20>  (32) 
halogenbond:ARG:20    0
halogenbond:ARG:20    0
Name: 31, dtype: object

>  <pication:ARG:20>  (32) 
pication:ARG:20    0
pication:ARG:20    0
Name: 31, dtype: object

>  <hbond:HIS:21>  (32) 
hbond:HIS:21    0
hbond:HIS:21    0
Name: 31, dtype: object

>  <hydroph_interaction:HIS:21>  (32) 
hydroph_interaction:HIS:21    0
hydroph_interaction:HIS:21    0
Name: 31, dtype: object

>  <saltbridge:HIS:21>  (32) 
saltbridge:HIS:21    0
saltbridge:HIS:21    0
Name: 31, dtype: object

>  <pistack:HIS:21>  (32) 
pistack:HIS:21    0
pistack:HIS:21    0
Name: 31, dtype: object

>  <pication:HIS:21>  (32) 
pication:HIS:21    0
pication:HIS:21    0
Name: 31, dtype: object

>  <halogenbond:HIS:21>  (32) 
halogenbond:HIS:21    0
halogenbond:HIS:21    0
Name: 31, dtype: object

>  <hydroph_interaction:LEU:22>  (32) 
hydroph_interaction:LEU:22    0
hydroph_interaction:LEU:22    0
Name: 31, dtype: object

>  <hbond:LEU:22>  (32) 
hbond:LEU:22    0
hbond:LEU:22    0
Name: 31, dtype: object

>  <hydroph_interaction:TRP:28>  (32) 
hydroph_interaction:TRP:28    0
hydroph_interaction:TRP:28    0
Name: 31, dtype: object

>  <hbond:SER:36>  (32) 
hbond:SER:36    0
hbond:SER:36    0
Name: 31, dtype: object

>  <halogenbond:SER:36>  (32) 
halogenbond:SER:36    0
halogenbond:SER:36    0
Name: 31, dtype: object

>  <hbond:ARG:38>  (32) 
hbond:ARG:38    0
hbond:ARG:38    0
Name: 31, dtype: object

>  <halogenbond:ARG:38>  (32) 
halogenbond:ARG:38    0
halogenbond:ARG:38    0
Name: 31, dtype: object

>  <hbond:ASP:39>  (32) 
hbond:ASP:39    0
hbond:ASP:39    0
Name: 31, dtype: object

>  <saltbridge:ASP:39>  (32) 
saltbridge:ASP:39    0
saltbridge:ASP:39    0
Name: 31, dtype: object

>  <hydroph_interaction:ASP:39>  (32) 
hydroph_interaction:ASP:39    0
hydroph_interaction:ASP:39    0
Name: 31, dtype: object

>  <halogenbond:ASP:39>  (32) 
halogenbond:ASP:39    0
halogenbond:ASP:39    0
Name: 31, dtype: object

>  <hydroph_interaction:LEU:40>  (32) 
hydroph_interaction:LEU:40    0
hydroph_interaction:LEU:40    0
Name: 31, dtype: object

>  <hydroph_interaction:TYR:63>  (32) 
hydroph_interaction:TYR:63    0
hydroph_interaction:TYR:63    0
Name: 31, dtype: object

>  <pistack:TYR:63>  (32) 
pistack:TYR:63    0
pistack:TYR:63    0
Name: 31, dtype: object

>  <hbond:TYR:63>  (32) 
hbond:TYR:63    0
hbond:TYR:63    0
Name: 31, dtype: object

>  <hbond:TYR:64>  (32) 
hbond:TYR:64    0
hbond:TYR:64    0
Name: 31, dtype: object

>  <halogenbond:TYR:64>  (32) 
halogenbond:TYR:64    0
halogenbond:TYR:64    0
Name: 31, dtype: object

>  <hydroph_interaction:TYR:64>  (32) 
hydroph_interaction:TYR:64    0
hydroph_interaction:TYR:64    0
Name: 31, dtype: object

>  <hbond:CYS:65>  (32) 
hbond:CYS:65    0
hbond:CYS:65    0
Name: 31, dtype: object

>  <halogenbond:CYS:65>  (32) 
halogenbond:CYS:65    0
halogenbond:CYS:65    0
Name: 31, dtype: object

>  <hbond:SER:66>  (32) 
hbond:SER:66    0
hbond:SER:66    0
Name: 31, dtype: object

>  <hbond:SER:67>  (32) 
hbond:SER:67    0
hbond:SER:67    0
Name: 31, dtype: object

>  <halogenbond:SER:67>  (32) 
halogenbond:SER:67    0
halogenbond:SER:67    0
Name: 31, dtype: object

>  <hydroph_interaction:ARG:68>  (32) 
hydroph_interaction:ARG:68    0
hydroph_interaction:ARG:68    0
Name: 31, dtype: object

>  <hbond:ARG:68>  (32) 
hbond:ARG:68    0
hbond:ARG:68    0
Name: 31, dtype: object

>  <saltbridge:ARG:68>  (32) 
saltbridge:ARG:68    0
saltbridge:ARG:68    0
Name: 31, dtype: object

>  <pication:ARG:68>  (32) 
pication:ARG:68    0
pication:ARG:68    0
Name: 31, dtype: object

>  <hydroph_interaction:TYR:72>  (32) 
hydroph_interaction:TYR:72    0
hydroph_interaction:TYR:72    0
Name: 31, dtype: object

>  <hydroph_interaction:VAL:74>  (32) 
hydroph_interaction:VAL:74    0
hydroph_interaction:VAL:74    0
Name: 31, dtype: object

>  <hydroph_interaction:PHE:76>  (32) 
hydroph_interaction:PHE:76    0
hydroph_interaction:PHE:76    0
Name: 31, dtype: object

>  <hbond:SER:77>  (32) 
hbond:SER:77    0
hbond:SER:77    0
Name: 31, dtype: object

>  <hbond:SER:80>  (32) 
hbond:SER:80    0
hbond:SER:80    0
Name: 31, dtype: object

>  <hbond:LEU:81>  (32) 
hbond:LEU:81    0
hbond:LEU:81    0
Name: 31, dtype: object

>  <halogenbond:LEU:81>  (32) 
halogenbond:LEU:81    0
halogenbond:LEU:81    0
Name: 31, dtype: object

>  <hydroph_interaction:LEU:81>  (32) 
hydroph_interaction:LEU:81    0
hydroph_interaction:LEU:81    0
Name: 31, dtype: object

>  <hydroph_interaction:ILE:82>  (32) 
hydroph_interaction:ILE:82    0
hydroph_interaction:ILE:82    0
Name: 31, dtype: object

>  <hbond:ILE:82>  (32) 
hbond:ILE:82    0
hbond:ILE:82    0
Name: 31, dtype: object

>  <hydroph_interaction:PHE:83>  (32) 
hydroph_interaction:PHE:83    0
hydroph_interaction:PHE:83    0
Name: 31, dtype: object

>  <hbond:PHE:83>  (32) 
hbond:PHE:83    0
hbond:PHE:83    0
Name: 31, dtype: object

>  <halogenbond:PHE:83>  (32) 
halogenbond:PHE:83    0
halogenbond:PHE:83    0
Name: 31, dtype: object

>  <pistack:PHE:83>  (32) 
pistack:PHE:83    0
pistack:PHE:83    0
Name: 31, dtype: object

>  <hydroph_interaction:VAL:84>  (32) 
hydroph_interaction:VAL:84    0
hydroph_interaction:VAL:84    0
Name: 31, dtype: object

>  <hbond:VAL:84>  (32) 
hbond:VAL:84    0
hbond:VAL:84    0
Name: 31, dtype: object

>  <halogenbond:VAL:84>  (32) 
halogenbond:VAL:84    0
halogenbond:VAL:84    0
Name: 31, dtype: object

>  <hydroph_interaction:GLU:85>  (32) 
hydroph_interaction:GLU:85    0
hydroph_interaction:GLU:85    0
Name: 31, dtype: object

>  <hbond:GLU:85>  (32) 
hbond:GLU:85    0
hbond:GLU:85    0
Name: 31, dtype: object

>  <saltbridge:GLU:85>  (32) 
saltbridge:GLU:85    0
saltbridge:GLU:85    0
Name: 31, dtype: object

>  <halogenbond:GLU:85>  (32) 
halogenbond:GLU:85    0
halogenbond:GLU:85    0
Name: 31, dtype: object

>  <hbond:ALA:86>  (32) 
hbond:ALA:86    0
hbond:ALA:86    0
Name: 31, dtype: object

>  <halogenbond:ALA:86>  (32) 
halogenbond:ALA:86    0
halogenbond:ALA:86    0
Name: 31, dtype: object

>  <hydroph_interaction:ALA:86>  (32) 
hydroph_interaction:ALA:86    0
hydroph_interaction:ALA:86    0
Name: 31, dtype: object

>  <hbond:SER:87>  (32) 
hbond:SER:87    1
hbond:SER:87    1
Name: 31, dtype: object

>  <halogenbond:SER:87>  (32) 
halogenbond:SER:87    0
halogenbond:SER:87    0
Name: 31, dtype: object

>  <hbond:GLU:88>  (32) 
hbond:GLU:88    0
hbond:GLU:88    0
Name: 31, dtype: object

>  <hydroph_interaction:GLU:88>  (32) 
hydroph_interaction:GLU:88    0
hydroph_interaction:GLU:88    0
Name: 31, dtype: object

>  <halogenbond:GLU:88>  (32) 
halogenbond:GLU:88    0
halogenbond:GLU:88    0
Name: 31, dtype: object

>  <saltbridge:GLU:88>  (32) 
saltbridge:GLU:88    0
saltbridge:GLU:88    0
Name: 31, dtype: object

>  <hydroph_interaction:TYR:89>  (32) 
hydroph_interaction:TYR:89    0
hydroph_interaction:TYR:89    0
Name: 31, dtype: object

>  <pistack:TYR:89>  (32) 
pistack:TYR:89    0
pistack:TYR:89    0
Name: 31, dtype: object

>  <hbond:TYR:89>  (32) 
hbond:TYR:89    0
hbond:TYR:89    0
Name: 31, dtype: object

>  <halogenbond:TYR:89>  (32) 
halogenbond:TYR:89    0
halogenbond:TYR:89    0
Name: 31, dtype: object

>  <hbond:TYR:90>  (32) 
hbond:TYR:90    0
hbond:TYR:90    0
Name: 31, dtype: object

>  <hydroph_interaction:TYR:90>  (32) 
hydroph_interaction:TYR:90    0
hydroph_interaction:TYR:90    0
Name: 31, dtype: object

>  <pistack:TYR:90>  (32) 
pistack:TYR:90    0
pistack:TYR:90    0
Name: 31, dtype: object

>  <halogenbond:TYR:90>  (32) 
halogenbond:TYR:90    0
halogenbond:TYR:90    0
Name: 31, dtype: object

>  <pication:TYR:90>  (32) 
pication:TYR:90    0
pication:TYR:90    0
Name: 31, dtype: object

>  <hydroph_interaction:PRO:91>  (32) 
hydroph_interaction:PRO:91    0
hydroph_interaction:PRO:91    0
Name: 31, dtype: object

>  <halogenbond:PRO:91>  (32) 
halogenbond:PRO:91    0
halogenbond:PRO:91    0
Name: 31, dtype: object

>  <hbond:PRO:91>  (32) 
hbond:PRO:91    0
hbond:PRO:91    0
Name: 31, dtype: object

>  <hydroph_interaction:ALA:92>  (32) 
hydroph_interaction:ALA:92    0
hydroph_interaction:ALA:92    0
Name: 31, dtype: object

>  <hbond:ARG:93>  (32) 
hbond:ARG:93    0
hbond:ARG:93    0
Name: 31, dtype: object

>  <pication:ARG:93>  (32) 
pication:ARG:93    0
pication:ARG:93    0
Name: 31, dtype: object

>  <saltbridge:ARG:93>  (32) 
saltbridge:ARG:93    0
saltbridge:ARG:93    0
Name: 31, dtype: object

>  <hydroph_interaction:ARG:93>  (32) 
hydroph_interaction:ARG:93    0
hydroph_interaction:ARG:93    0
Name: 31, dtype: object

>  <halogenbond:ARG:93>  (32) 
halogenbond:ARG:93    0
halogenbond:ARG:93    0
Name: 31, dtype: object

>  <hydroph_interaction:TYR:94>  (32) 
hydroph_interaction:TYR:94    0
hydroph_interaction:TYR:94    0
Name: 31, dtype: object

>  <hbond:TYR:94>  (32) 
hbond:TYR:94    0
hbond:TYR:94    0
Name: 31, dtype: object

>  <halogenbond:GLN:95>  (32) 
halogenbond:GLN:95    0
halogenbond:GLN:95    0
Name: 31, dtype: object

>  <hbond:GLN:95>  (32) 
hbond:GLN:95    0
hbond:GLN:95    0
Name: 31, dtype: object

>  <hydroph_interaction:GLN:95>  (32) 
hydroph_interaction:GLN:95    0
hydroph_interaction:GLN:95    0
Name: 31, dtype: object

>  <hbond:SER:96>  (32) 
hbond:SER:96    0
hbond:SER:96    0
Name: 31, dtype: object

>  <hydroph_interaction:LEU:98>  (32) 
hydroph_interaction:LEU:98    0
hydroph_interaction:LEU:98    0
Name: 31, dtype: object

>  <hbond:LEU:98>  (32) 
hbond:LEU:98    0
hbond:LEU:98    0
Name: 31, dtype: object

>  <hbond:MET:99>  (32) 
hbond:MET:99    0
hbond:MET:99    0
Name: 31, dtype: object

>  <hydroph_interaction:MET:99>  (32) 
hydroph_interaction:MET:99    0
hydroph_interaction:MET:99    0
Name: 31, dtype: object

>  <halogenbond:MET:99>  (32) 
halogenbond:MET:99    0
halogenbond:MET:99    0
Name: 31, dtype: object

>  <hydroph_interaction:LEU:100>  (32) 
hydroph_interaction:LEU:100    0
hydroph_interaction:LEU:100    0
Name: 31, dtype: object

>  <hbond:LEU:100>  (32) 
hbond:LEU:100    0
hbond:LEU:100    0
Name: 31, dtype: object

>  <hbond:ALA:101>  (32) 
hbond:ALA:101    0
hbond:ALA:101    0
Name: 31, dtype: object

>  <hydroph_interaction:ALA:101>  (32) 
hydroph_interaction:ALA:101    0
hydroph_interaction:ALA:101    0
Name: 31, dtype: object

>  <hydroph_interaction:VAL:102>  (32) 
hydroph_interaction:VAL:102    0
hydroph_interaction:VAL:102    0
Name: 31, dtype: object

>  <hbond:VAL:102>  (32) 
hbond:VAL:102    0
hbond:VAL:102    0
Name: 31, dtype: object

>  <hbond:GLY:103>  (32) 
hbond:GLY:103    0
hbond:GLY:103    0
Name: 31, dtype: object

>  <halogenbond:GLY:103>  (32) 
halogenbond:GLY:103    0
halogenbond:GLY:103    0
Name: 31, dtype: object

>  <hydroph_interaction:HIS:104>  (32) 
hydroph_interaction:HIS:104    0
hydroph_interaction:HIS:104    0
Name: 31, dtype: object

>  <hbond:HIS:104>  (32) 
hbond:HIS:104    0
hbond:HIS:104    0
Name: 31, dtype: object

>  <saltbridge:HIS:104>  (32) 
saltbridge:HIS:104    0
saltbridge:HIS:104    0
Name: 31, dtype: object

>  <pication:HIS:104>  (32) 
pication:HIS:104    0
pication:HIS:104    0
Name: 31, dtype: object

>  <pistack:HIS:104>  (32) 
pistack:HIS:104    0
pistack:HIS:104    0
Name: 31, dtype: object

>  <halogenbond:HIS:104>  (32) 
halogenbond:HIS:104    0
halogenbond:HIS:104    0
Name: 31, dtype: object

>  <hbond:SER:105>  (32) 
hbond:SER:105    0
hbond:SER:105    0
Name: 31, dtype: object

>  <halogenbond:SER:105>  (32) 
halogenbond:SER:105    0
halogenbond:SER:105    0
Name: 31, dtype: object

>  <hbond:GLU:106>  (32) 
hbond:GLU:106    0
hbond:GLU:106    0
Name: 31, dtype: object

>  <hydroph_interaction:GLU:106>  (32) 
hydroph_interaction:GLU:106    0
hydroph_interaction:GLU:106    0
Name: 31, dtype: object

>  <saltbridge:GLU:106>  (32) 
saltbridge:GLU:106    0
saltbridge:GLU:106    0
Name: 31, dtype: object

>  <halogenbond:GLU:106>  (32) 
halogenbond:GLU:106    0
halogenbond:GLU:106    0
Name: 31, dtype: object

>  <hydroph_interaction:PRO:107>  (32) 
hydroph_interaction:PRO:107    1
hydroph_interaction:PRO:107    1
Name: 31, dtype: object

>  <hbond:PRO:107>  (32) 
hbond:PRO:107    0
hbond:PRO:107    0
Name: 31, dtype: object

>  <halogenbond:PRO:107>  (32) 
halogenbond:PRO:107    0
halogenbond:PRO:107    0
Name: 31, dtype: object

>  <hbond:GLY:108>  (32) 
hbond:GLY:108    0
hbond:GLY:108    0
Name: 31, dtype: object

>  <halogenbond:GLY:108>  (32) 
halogenbond:GLY:108    0
halogenbond:GLY:108    0
Name: 31, dtype: object

>  <hbond:ASP:109>  (32) 
hbond:ASP:109    0
hbond:ASP:109    0
Name: 31, dtype: object

>  <hydroph_interaction:ASP:109>  (32) 
hydroph_interaction:ASP:109    0
hydroph_interaction:ASP:109    0
Name: 31, dtype: object

>  <saltbridge:ASP:109>  (32) 
saltbridge:ASP:109    0
saltbridge:ASP:109    0
Name: 31, dtype: object

>  <hbond:CYS:110>  (32) 
hbond:CYS:110    0
hbond:CYS:110    0
Name: 31, dtype: object

>  <halogenbond:CYS:110>  (32) 
halogenbond:CYS:110    0
halogenbond:CYS:110    0
Name: 31, dtype: object

>  <hbond:GLY:111>  (32) 
hbond:GLY:111    0
hbond:GLY:111    0
Name: 31, dtype: object

>  <hbond:GLY:112>  (32) 
hbond:GLY:112    0
hbond:GLY:112    0
Name: 31, dtype: object

>  <hbond:ILE:113>  (32) 
hbond:ILE:113    0
hbond:ILE:113    0
Name: 31, dtype: object

>  <hydroph_interaction:LEU:114>  (32) 
hydroph_interaction:LEU:114    0
hydroph_interaction:LEU:114    0
Name: 31, dtype: object

>  <hbond:LEU:114>  (32) 
hbond:LEU:114    0
hbond:LEU:114    0
Name: 31, dtype: object

>  <hydroph_interaction:ILE:123>  (32) 
hydroph_interaction:ILE:123    0
hydroph_interaction:ILE:123    0
Name: 31, dtype: object

>  <hbond:ILE:123>  (32) 
hbond:ILE:123    0
hbond:ILE:123    0
Name: 31, dtype: object

>  <hydroph_interaction:VAL:124>  (32) 
hydroph_interaction:VAL:124    0
hydroph_interaction:VAL:124    0
Name: 31, dtype: object

>  <hbond:VAL:124>  (32) 
hbond:VAL:124    0
hbond:VAL:124    0
Name: 31, dtype: object

>  <halogenbond:VAL:124>  (32) 
halogenbond:VAL:124    0
halogenbond:VAL:124    0
Name: 31, dtype: object

>  <hbond:SER:125>  (32) 
hbond:SER:125    2
hbond:SER:125    2
Name: 31, dtype: object

>  <halogenbond:SER:125>  (32) 
halogenbond:SER:125    0
halogenbond:SER:125    0
Name: 31, dtype: object

>  <hydroph_interaction:THR:126>  (32) 
hydroph_interaction:THR:126    0
hydroph_interaction:THR:126    0
Name: 31, dtype: object

>  <hbond:THR:126>  (32) 
hbond:THR:126    0
hbond:THR:126    0
Name: 31, dtype: object

>  <halogenbond:THR:126>  (32) 
halogenbond:THR:126    0
halogenbond:THR:126    0
Name: 31, dtype: object

>  <hbond:GLY:127>  (32) 
hbond:GLY:127    0
hbond:GLY:127    0
Name: 31, dtype: object

>  <halogenbond:GLY:127>  (32) 
halogenbond:GLY:127    0
halogenbond:GLY:127    0
Name: 31, dtype: object

>  <hydroph_interaction:GLY:127>  (32) 
hydroph_interaction:GLY:127    0
hydroph_interaction:GLY:127    0
Name: 31, dtype: object

>  <hbond:GLY:128>  (32) 
hbond:GLY:128    0
hbond:GLY:128    0
Name: 31, dtype: object

>  <halogenbond:GLY:128>  (32) 
halogenbond:GLY:128    0
halogenbond:GLY:128    0
Name: 31, dtype: object

>  <hydroph_interaction:GLY:128>  (32) 
hydroph_interaction:GLY:128    0
hydroph_interaction:GLY:128    0
Name: 31, dtype: object

>  <hbond:ASN:129>  (32) 
hbond:ASN:129    0
hbond:ASN:129    0
Name: 31, dtype: object

>  <hydroph_interaction:ASN:129>  (32) 
hydroph_interaction:ASN:129    0
hydroph_interaction:ASN:129    0
Name: 31, dtype: object

>  <halogenbond:ASN:129>  (32) 
halogenbond:ASN:129    0
halogenbond:ASN:129    0
Name: 31, dtype: object

>  <hbond:GLY:130>  (32) 
hbond:GLY:130    0
hbond:GLY:130    0
Name: 31, dtype: object

>  <hydroph_interaction:LEU:131>  (32) 
hydroph_interaction:LEU:131    0
hydroph_interaction:LEU:131    0
Name: 31, dtype: object

>  <hbond:LEU:131>  (32) 
hbond:LEU:131    0
hbond:LEU:131    0
Name: 31, dtype: object

>  <halogenbond:LEU:131>  (32) 
halogenbond:LEU:131    0
halogenbond:LEU:131    0
Name: 31, dtype: object

>  <hydroph_interaction:VAL:132>  (32) 
hydroph_interaction:VAL:132    0
hydroph_interaction:VAL:132    0
Name: 31, dtype: object

>  <hbond:VAL:132>  (32) 
hbond:VAL:132    0
hbond:VAL:132    0
Name: 31, dtype: object

>  <hbond:GLY:133>  (32) 
hbond:GLY:133    0
hbond:GLY:133    0
Name: 31, dtype: object

>  <halogenbond:GLY:133>  (32) 
halogenbond:GLY:133    0
halogenbond:GLY:133    0
Name: 31, dtype: object

>  <hydroph_interaction:PHE:134>  (32) 
hydroph_interaction:PHE:134    0
hydroph_interaction:PHE:134    0
Name: 31, dtype: object

>  <hbond:PHE:134>  (32) 
hbond:PHE:134    0
hbond:PHE:134    0
Name: 31, dtype: object

>  <pistack:PHE:134>  (32) 
pistack:PHE:134    0
pistack:PHE:134    0
Name: 31, dtype: object

>  <pication:PHE:134>  (32) 
pication:PHE:134    0
pication:PHE:134    0
Name: 31, dtype: object

>  <hydroph_interaction:ALA:135>  (32) 
hydroph_interaction:ALA:135    0
hydroph_interaction:ALA:135    0
Name: 31, dtype: object

>  <hbond:ALA:135>  (32) 
hbond:ALA:135    0
hbond:ALA:135    0
Name: 31, dtype: object

$$$$
Z4098554356
     RDKit          3D

 28 29  0  0  0  0  0  0  0  0999 V2000
   10.1510    9.2450   22.6810 C   0  0  0  0  0  0  0  0  0  0  0  0
    9.4980   10.3620   23.4570 C   0  0  0  0  0  0  0  0  0  0  0  0
    9.9230   11.6940   23.2640 C   0  0  0  0  0  0  0  0  0  0  0  0
    9.3220   12.7280   23.9940 C   0  0  0  0  0  0  0  0  0  0  0  0
    8.3060   12.4310   24.9030 C   0  0  0  0  0  0  0  0  0  0  0  0
    7.7350   13.4720   25.6290 N   0  0  0  0  0  0  0  0  0  0  0  0
    7.4820   14.7750   25.1810 C   0  0  0  0  0  0  0  0  0  0  0  0
    7.4780   15.0880   24.0020 O   0  0  0  0  0  0  0  0  0  0  0  0
    7.2080   15.7930   26.2630 C   0  0  0  0  0  0  0  0  0  0  0  0
    6.4140   15.2450   27.3170 O   0  0  0  0  0  0  0  0  0  0  0  0
    6.6630   16.1720   28.3730 C   0  0  0  0  0  0  0  0  0  0  0  0
    8.0360   16.4780   28.2650 C   0  0  0  0  0  0  0  0  0  0  0  0
    8.3860   16.2920   26.8860 O   0  0  0  0  0  0  0  0  0  0  0  0
    7.8730   11.1290   25.0900 C   0  0  0  0  0  0  0  0  0  0  0  0
    6.6080   10.7990   26.2090 Cl  0  0  0  0  0  0  0  0  0  0  0  0
    8.4810   10.1240   24.3660 C   0  0  0  0  0  0  0  0  0  0  0  0
   10.9410    8.7460   23.2500 H   0  0  0  0  0  0  0  0  0  0  0  0
    9.4070    8.5190   22.3520 H   0  0  0  0  0  0  0  0  0  0  0  0
   10.6410    9.6400   21.7870 H   0  0  0  0  0  0  0  0  0  0  0  0
   10.7160   11.9160   22.5540 H   0  0  0  0  0  0  0  0  0  0  0  0
    9.6750   13.7400   23.8280 H   0  0  0  0  0  0  0  0  0  0  0  0
    7.2570   13.2100   26.4910 H   0  0  0  0  0  0  0  0  0  0  0  0
    6.6480   16.6420   25.8470 H   0  0  0  0  0  0  0  0  0  0  0  0
    6.3960   15.7310   29.3380 H   0  0  0  0  0  0  0  0  0  0  0  0
    6.0400   17.0560   28.1980 H   0  0  0  0  0  0  0  0  0  0  0  0
    8.2700   17.5000   28.5790 H   0  0  0  0  0  0  0  0  0  0  0  0
    8.6430   15.7830   28.8540 H   0  0  0  0  0  0  0  0  0  0  0  0
    8.0780    9.1350   24.5830 H   0  0  0  0  0  0  0  0  0  0  0  0
  1  2  1  0
  2  3  2  0
  3  4  1  0
  4  5  2  0
  5  6  1  0
  6  7  1  0
  7  8  2  0
  7  9  1  0
  9 10  1  0
 10 11  1  0
 11 12  1  0
 12 13  1  0
  5 14  1  0
 14 15  1  0
 14 16  2  0
 16  2  1  0
 13  9  1  0
  1 17  1  0
  1 18  1  0
  1 19  1  0
  3 20  1  0
  4 21  1  0
  6 22  1  0
  9 23  1  0
 11 24  1  0
 11 25  1  0
 12 26  1  0
 12 27  1  0
 16 28  1  0
A    1
 C1 
A    2
 C2 
A    3
 C3 
A    4
 C4 
A    5
 C5 
A    6
 N1 
A    7
 C6 
A    8
 O1 
A    9
 C7 
A   10
 O2 
A   11
 C8 
A   12
 C9 
A   13
 O3 
A   14
 C10
A   15
CL1 
A   16
 C11
A   17
 H1 
A   18
 H2 
A   19
 H3 
A   20
 H4 
A   21
 H5 
A   22
 H6 
A   23
 H7 
A   24
 H8 
A   25
 H9 
A   26
 H10
A   27
 H11
A   28
 H12
M  END
>  <ref_pdb>  (33) 
x0310_0A

>  <ref_mols>  (33) 
x0554_0A,x0812_0A,x0416_0A

>  <original SMILES>  (33) 
Cc1ccc(NC(=O)C2OCCO2)c(Cl)c1

>  <rationale>  (33) 
info hbond:E88; hydroph_interaction:P107+V124; 

>  <intxn_cluster>  (33) 
103

>  <intxn_cluster_rank>  (33) 
121

>  <N_interactions>  (33) 
3

>  <∆∆G>  (33) 
-8.273051

>  <$/mg>  (33) 
0.0

>  <comRMSD>  (33) 
0.77568

>  <N_rotatable_bonds>  (33) 
3

>  <hbond:SER:7>  (33) 
hbond:SER:7    0
hbond:SER:7    0
Name: 32, dtype: object

>  <halogenbond:SER:7>  (33) 
halogenbond:SER:7    0
halogenbond:SER:7    0
Name: 32, dtype: object

>  <hbond:GLY:8>  (33) 
hbond:GLY:8    0
hbond:GLY:8    0
Name: 32, dtype: object

>  <hydroph_interaction:ASN:19>  (33) 
hydroph_interaction:ASN:19    0
hydroph_interaction:ASN:19    0
Name: 32, dtype: object

>  <hbond:ASN:19>  (33) 
hbond:ASN:19    0
hbond:ASN:19    0
Name: 32, dtype: object

>  <halogenbond:ASN:19>  (33) 
halogenbond:ASN:19    0
halogenbond:ASN:19    0
Name: 32, dtype: object

>  <hbond:ARG:20>  (33) 
hbond:ARG:20    0
hbond:ARG:20    0
Name: 32, dtype: object

>  <hydroph_interaction:ARG:20>  (33) 
hydroph_interaction:ARG:20    0
hydroph_interaction:ARG:20    0
Name: 32, dtype: object

>  <saltbridge:ARG:20>  (33) 
saltbridge:ARG:20    0
saltbridge:ARG:20    0
Name: 32, dtype: object

>  <halogenbond:ARG:20>  (33) 
halogenbond:ARG:20    0
halogenbond:ARG:20    0
Name: 32, dtype: object

>  <pication:ARG:20>  (33) 
pication:ARG:20    0
pication:ARG:20    0
Name: 32, dtype: object

>  <hbond:HIS:21>  (33) 
hbond:HIS:21    0
hbond:HIS:21    0
Name: 32, dtype: object

>  <hydroph_interaction:HIS:21>  (33) 
hydroph_interaction:HIS:21    0
hydroph_interaction:HIS:21    0
Name: 32, dtype: object

>  <saltbridge:HIS:21>  (33) 
saltbridge:HIS:21    0
saltbridge:HIS:21    0
Name: 32, dtype: object

>  <pistack:HIS:21>  (33) 
pistack:HIS:21    0
pistack:HIS:21    0
Name: 32, dtype: object

>  <pication:HIS:21>  (33) 
pication:HIS:21    0
pication:HIS:21    0
Name: 32, dtype: object

>  <halogenbond:HIS:21>  (33) 
halogenbond:HIS:21    0
halogenbond:HIS:21    0
Name: 32, dtype: object

>  <hydroph_interaction:LEU:22>  (33) 
hydroph_interaction:LEU:22    0
hydroph_interaction:LEU:22    0
Name: 32, dtype: object

>  <hbond:LEU:22>  (33) 
hbond:LEU:22    0
hbond:LEU:22    0
Name: 32, dtype: object

>  <hydroph_interaction:TRP:28>  (33) 
hydroph_interaction:TRP:28    0
hydroph_interaction:TRP:28    0
Name: 32, dtype: object

>  <hbond:SER:36>  (33) 
hbond:SER:36    0
hbond:SER:36    0
Name: 32, dtype: object

>  <halogenbond:SER:36>  (33) 
halogenbond:SER:36    0
halogenbond:SER:36    0
Name: 32, dtype: object

>  <hbond:ARG:38>  (33) 
hbond:ARG:38    0
hbond:ARG:38    0
Name: 32, dtype: object

>  <halogenbond:ARG:38>  (33) 
halogenbond:ARG:38    0
halogenbond:ARG:38    0
Name: 32, dtype: object

>  <hbond:ASP:39>  (33) 
hbond:ASP:39    0
hbond:ASP:39    0
Name: 32, dtype: object

>  <saltbridge:ASP:39>  (33) 
saltbridge:ASP:39    0
saltbridge:ASP:39    0
Name: 32, dtype: object

>  <hydroph_interaction:ASP:39>  (33) 
hydroph_interaction:ASP:39    0
hydroph_interaction:ASP:39    0
Name: 32, dtype: object

>  <halogenbond:ASP:39>  (33) 
halogenbond:ASP:39    0
halogenbond:ASP:39    0
Name: 32, dtype: object

>  <hydroph_interaction:LEU:40>  (33) 
hydroph_interaction:LEU:40    0
hydroph_interaction:LEU:40    0
Name: 32, dtype: object

>  <hydroph_interaction:TYR:63>  (33) 
hydroph_interaction:TYR:63    0
hydroph_interaction:TYR:63    0
Name: 32, dtype: object

>  <pistack:TYR:63>  (33) 
pistack:TYR:63    0
pistack:TYR:63    0
Name: 32, dtype: object

>  <hbond:TYR:63>  (33) 
hbond:TYR:63    0
hbond:TYR:63    0
Name: 32, dtype: object

>  <hbond:TYR:64>  (33) 
hbond:TYR:64    0
hbond:TYR:64    0
Name: 32, dtype: object

>  <halogenbond:TYR:64>  (33) 
halogenbond:TYR:64    0
halogenbond:TYR:64    0
Name: 32, dtype: object

>  <hydroph_interaction:TYR:64>  (33) 
hydroph_interaction:TYR:64    0
hydroph_interaction:TYR:64    0
Name: 32, dtype: object

>  <hbond:CYS:65>  (33) 
hbond:CYS:65    0
hbond:CYS:65    0
Name: 32, dtype: object

>  <halogenbond:CYS:65>  (33) 
halogenbond:CYS:65    0
halogenbond:CYS:65    0
Name: 32, dtype: object

>  <hbond:SER:66>  (33) 
hbond:SER:66    0
hbond:SER:66    0
Name: 32, dtype: object

>  <hbond:SER:67>  (33) 
hbond:SER:67    0
hbond:SER:67    0
Name: 32, dtype: object

>  <halogenbond:SER:67>  (33) 
halogenbond:SER:67    0
halogenbond:SER:67    0
Name: 32, dtype: object

>  <hydroph_interaction:ARG:68>  (33) 
hydroph_interaction:ARG:68    0
hydroph_interaction:ARG:68    0
Name: 32, dtype: object

>  <hbond:ARG:68>  (33) 
hbond:ARG:68    0
hbond:ARG:68    0
Name: 32, dtype: object

>  <saltbridge:ARG:68>  (33) 
saltbridge:ARG:68    0
saltbridge:ARG:68    0
Name: 32, dtype: object

>  <pication:ARG:68>  (33) 
pication:ARG:68    0
pication:ARG:68    0
Name: 32, dtype: object

>  <hydroph_interaction:TYR:72>  (33) 
hydroph_interaction:TYR:72    0
hydroph_interaction:TYR:72    0
Name: 32, dtype: object

>  <hydroph_interaction:VAL:74>  (33) 
hydroph_interaction:VAL:74    0
hydroph_interaction:VAL:74    0
Name: 32, dtype: object

>  <hydroph_interaction:PHE:76>  (33) 
hydroph_interaction:PHE:76    0
hydroph_interaction:PHE:76    0
Name: 32, dtype: object

>  <hbond:SER:77>  (33) 
hbond:SER:77    0
hbond:SER:77    0
Name: 32, dtype: object

>  <hbond:SER:80>  (33) 
hbond:SER:80    0
hbond:SER:80    0
Name: 32, dtype: object

>  <hbond:LEU:81>  (33) 
hbond:LEU:81    0
hbond:LEU:81    0
Name: 32, dtype: object

>  <halogenbond:LEU:81>  (33) 
halogenbond:LEU:81    0
halogenbond:LEU:81    0
Name: 32, dtype: object

>  <hydroph_interaction:LEU:81>  (33) 
hydroph_interaction:LEU:81    0
hydroph_interaction:LEU:81    0
Name: 32, dtype: object

>  <hydroph_interaction:ILE:82>  (33) 
hydroph_interaction:ILE:82    0
hydroph_interaction:ILE:82    0
Name: 32, dtype: object

>  <hbond:ILE:82>  (33) 
hbond:ILE:82    0
hbond:ILE:82    0
Name: 32, dtype: object

>  <hydroph_interaction:PHE:83>  (33) 
hydroph_interaction:PHE:83    0
hydroph_interaction:PHE:83    0
Name: 32, dtype: object

>  <hbond:PHE:83>  (33) 
hbond:PHE:83    0
hbond:PHE:83    0
Name: 32, dtype: object

>  <halogenbond:PHE:83>  (33) 
halogenbond:PHE:83    0
halogenbond:PHE:83    0
Name: 32, dtype: object

>  <pistack:PHE:83>  (33) 
pistack:PHE:83    0
pistack:PHE:83    0
Name: 32, dtype: object

>  <hydroph_interaction:VAL:84>  (33) 
hydroph_interaction:VAL:84    0
hydroph_interaction:VAL:84    0
Name: 32, dtype: object

>  <hbond:VAL:84>  (33) 
hbond:VAL:84    0
hbond:VAL:84    0
Name: 32, dtype: object

>  <halogenbond:VAL:84>  (33) 
halogenbond:VAL:84    0
halogenbond:VAL:84    0
Name: 32, dtype: object

>  <hydroph_interaction:GLU:85>  (33) 
hydroph_interaction:GLU:85    0
hydroph_interaction:GLU:85    0
Name: 32, dtype: object

>  <hbond:GLU:85>  (33) 
hbond:GLU:85    0
hbond:GLU:85    0
Name: 32, dtype: object

>  <saltbridge:GLU:85>  (33) 
saltbridge:GLU:85    0
saltbridge:GLU:85    0
Name: 32, dtype: object

>  <halogenbond:GLU:85>  (33) 
halogenbond:GLU:85    0
halogenbond:GLU:85    0
Name: 32, dtype: object

>  <hbond:ALA:86>  (33) 
hbond:ALA:86    0
hbond:ALA:86    0
Name: 32, dtype: object

>  <halogenbond:ALA:86>  (33) 
halogenbond:ALA:86    0
halogenbond:ALA:86    0
Name: 32, dtype: object

>  <hydroph_interaction:ALA:86>  (33) 
hydroph_interaction:ALA:86    0
hydroph_interaction:ALA:86    0
Name: 32, dtype: object

>  <hbond:SER:87>  (33) 
hbond:SER:87    0
hbond:SER:87    0
Name: 32, dtype: object

>  <halogenbond:SER:87>  (33) 
halogenbond:SER:87    0
halogenbond:SER:87    0
Name: 32, dtype: object

>  <hbond:GLU:88>  (33) 
hbond:GLU:88    1
hbond:GLU:88    1
Name: 32, dtype: object

>  <hydroph_interaction:GLU:88>  (33) 
hydroph_interaction:GLU:88    0
hydroph_interaction:GLU:88    0
Name: 32, dtype: object

>  <halogenbond:GLU:88>  (33) 
halogenbond:GLU:88    0
halogenbond:GLU:88    0
Name: 32, dtype: object

>  <saltbridge:GLU:88>  (33) 
saltbridge:GLU:88    0
saltbridge:GLU:88    0
Name: 32, dtype: object

>  <hydroph_interaction:TYR:89>  (33) 
hydroph_interaction:TYR:89    0
hydroph_interaction:TYR:89    0
Name: 32, dtype: object

>  <pistack:TYR:89>  (33) 
pistack:TYR:89    0
pistack:TYR:89    0
Name: 32, dtype: object

>  <hbond:TYR:89>  (33) 
hbond:TYR:89    0
hbond:TYR:89    0
Name: 32, dtype: object

>  <halogenbond:TYR:89>  (33) 
halogenbond:TYR:89    0
halogenbond:TYR:89    0
Name: 32, dtype: object

>  <hbond:TYR:90>  (33) 
hbond:TYR:90    0
hbond:TYR:90    0
Name: 32, dtype: object

>  <hydroph_interaction:TYR:90>  (33) 
hydroph_interaction:TYR:90    0
hydroph_interaction:TYR:90    0
Name: 32, dtype: object

>  <pistack:TYR:90>  (33) 
pistack:TYR:90    0
pistack:TYR:90    0
Name: 32, dtype: object

>  <halogenbond:TYR:90>  (33) 
halogenbond:TYR:90    0
halogenbond:TYR:90    0
Name: 32, dtype: object

>  <pication:TYR:90>  (33) 
pication:TYR:90    0
pication:TYR:90    0
Name: 32, dtype: object

>  <hydroph_interaction:PRO:91>  (33) 
hydroph_interaction:PRO:91    0
hydroph_interaction:PRO:91    0
Name: 32, dtype: object

>  <halogenbond:PRO:91>  (33) 
halogenbond:PRO:91    0
halogenbond:PRO:91    0
Name: 32, dtype: object

>  <hbond:PRO:91>  (33) 
hbond:PRO:91    0
hbond:PRO:91    0
Name: 32, dtype: object

>  <hydroph_interaction:ALA:92>  (33) 
hydroph_interaction:ALA:92    0
hydroph_interaction:ALA:92    0
Name: 32, dtype: object

>  <hbond:ARG:93>  (33) 
hbond:ARG:93    0
hbond:ARG:93    0
Name: 32, dtype: object

>  <pication:ARG:93>  (33) 
pication:ARG:93    0
pication:ARG:93    0
Name: 32, dtype: object

>  <saltbridge:ARG:93>  (33) 
saltbridge:ARG:93    0
saltbridge:ARG:93    0
Name: 32, dtype: object

>  <hydroph_interaction:ARG:93>  (33) 
hydroph_interaction:ARG:93    0
hydroph_interaction:ARG:93    0
Name: 32, dtype: object

>  <halogenbond:ARG:93>  (33) 
halogenbond:ARG:93    0
halogenbond:ARG:93    0
Name: 32, dtype: object

>  <hydroph_interaction:TYR:94>  (33) 
hydroph_interaction:TYR:94    0
hydroph_interaction:TYR:94    0
Name: 32, dtype: object

>  <hbond:TYR:94>  (33) 
hbond:TYR:94    0
hbond:TYR:94    0
Name: 32, dtype: object

>  <halogenbond:GLN:95>  (33) 
halogenbond:GLN:95    0
halogenbond:GLN:95    0
Name: 32, dtype: object

>  <hbond:GLN:95>  (33) 
hbond:GLN:95    0
hbond:GLN:95    0
Name: 32, dtype: object

>  <hydroph_interaction:GLN:95>  (33) 
hydroph_interaction:GLN:95    0
hydroph_interaction:GLN:95    0
Name: 32, dtype: object

>  <hbond:SER:96>  (33) 
hbond:SER:96    0
hbond:SER:96    0
Name: 32, dtype: object

>  <hydroph_interaction:LEU:98>  (33) 
hydroph_interaction:LEU:98    0
hydroph_interaction:LEU:98    0
Name: 32, dtype: object

>  <hbond:LEU:98>  (33) 
hbond:LEU:98    0
hbond:LEU:98    0
Name: 32, dtype: object

>  <hbond:MET:99>  (33) 
hbond:MET:99    0
hbond:MET:99    0
Name: 32, dtype: object

>  <hydroph_interaction:MET:99>  (33) 
hydroph_interaction:MET:99    0
hydroph_interaction:MET:99    0
Name: 32, dtype: object

>  <halogenbond:MET:99>  (33) 
halogenbond:MET:99    0
halogenbond:MET:99    0
Name: 32, dtype: object

>  <hydroph_interaction:LEU:100>  (33) 
hydroph_interaction:LEU:100    0
hydroph_interaction:LEU:100    0
Name: 32, dtype: object

>  <hbond:LEU:100>  (33) 
hbond:LEU:100    0
hbond:LEU:100    0
Name: 32, dtype: object

>  <hbond:ALA:101>  (33) 
hbond:ALA:101    0
hbond:ALA:101    0
Name: 32, dtype: object

>  <hydroph_interaction:ALA:101>  (33) 
hydroph_interaction:ALA:101    0
hydroph_interaction:ALA:101    0
Name: 32, dtype: object

>  <hydroph_interaction:VAL:102>  (33) 
hydroph_interaction:VAL:102    0
hydroph_interaction:VAL:102    0
Name: 32, dtype: object

>  <hbond:VAL:102>  (33) 
hbond:VAL:102    0
hbond:VAL:102    0
Name: 32, dtype: object

>  <hbond:GLY:103>  (33) 
hbond:GLY:103    0
hbond:GLY:103    0
Name: 32, dtype: object

>  <halogenbond:GLY:103>  (33) 
halogenbond:GLY:103    0
halogenbond:GLY:103    0
Name: 32, dtype: object

>  <hydroph_interaction:HIS:104>  (33) 
hydroph_interaction:HIS:104    0
hydroph_interaction:HIS:104    0
Name: 32, dtype: object

>  <hbond:HIS:104>  (33) 
hbond:HIS:104    0
hbond:HIS:104    0
Name: 32, dtype: object

>  <saltbridge:HIS:104>  (33) 
saltbridge:HIS:104    0
saltbridge:HIS:104    0
Name: 32, dtype: object

>  <pication:HIS:104>  (33) 
pication:HIS:104    0
pication:HIS:104    0
Name: 32, dtype: object

>  <pistack:HIS:104>  (33) 
pistack:HIS:104    0
pistack:HIS:104    0
Name: 32, dtype: object

>  <halogenbond:HIS:104>  (33) 
halogenbond:HIS:104    0
halogenbond:HIS:104    0
Name: 32, dtype: object

>  <hbond:SER:105>  (33) 
hbond:SER:105    0
hbond:SER:105    0
Name: 32, dtype: object

>  <halogenbond:SER:105>  (33) 
halogenbond:SER:105    0
halogenbond:SER:105    0
Name: 32, dtype: object

>  <hbond:GLU:106>  (33) 
hbond:GLU:106    0
hbond:GLU:106    0
Name: 32, dtype: object

>  <hydroph_interaction:GLU:106>  (33) 
hydroph_interaction:GLU:106    0
hydroph_interaction:GLU:106    0
Name: 32, dtype: object

>  <saltbridge:GLU:106>  (33) 
saltbridge:GLU:106    0
saltbridge:GLU:106    0
Name: 32, dtype: object

>  <halogenbond:GLU:106>  (33) 
halogenbond:GLU:106    0
halogenbond:GLU:106    0
Name: 32, dtype: object

>  <hydroph_interaction:PRO:107>  (33) 
hydroph_interaction:PRO:107    1
hydroph_interaction:PRO:107    1
Name: 32, dtype: object

>  <hbond:PRO:107>  (33) 
hbond:PRO:107    0
hbond:PRO:107    0
Name: 32, dtype: object

>  <halogenbond:PRO:107>  (33) 
halogenbond:PRO:107    0
halogenbond:PRO:107    0
Name: 32, dtype: object

>  <hbond:GLY:108>  (33) 
hbond:GLY:108    0
hbond:GLY:108    0
Name: 32, dtype: object

>  <halogenbond:GLY:108>  (33) 
halogenbond:GLY:108    0
halogenbond:GLY:108    0
Name: 32, dtype: object

>  <hbond:ASP:109>  (33) 
hbond:ASP:109    0
hbond:ASP:109    0
Name: 32, dtype: object

>  <hydroph_interaction:ASP:109>  (33) 
hydroph_interaction:ASP:109    0
hydroph_interaction:ASP:109    0
Name: 32, dtype: object

>  <saltbridge:ASP:109>  (33) 
saltbridge:ASP:109    0
saltbridge:ASP:109    0
Name: 32, dtype: object

>  <hbond:CYS:110>  (33) 
hbond:CYS:110    0
hbond:CYS:110    0
Name: 32, dtype: object

>  <halogenbond:CYS:110>  (33) 
halogenbond:CYS:110    0
halogenbond:CYS:110    0
Name: 32, dtype: object

>  <hbond:GLY:111>  (33) 
hbond:GLY:111    0
hbond:GLY:111    0
Name: 32, dtype: object

>  <hbond:GLY:112>  (33) 
hbond:GLY:112    0
hbond:GLY:112    0
Name: 32, dtype: object

>  <hbond:ILE:113>  (33) 
hbond:ILE:113    0
hbond:ILE:113    0
Name: 32, dtype: object

>  <hydroph_interaction:LEU:114>  (33) 
hydroph_interaction:LEU:114    0
hydroph_interaction:LEU:114    0
Name: 32, dtype: object

>  <hbond:LEU:114>  (33) 
hbond:LEU:114    0
hbond:LEU:114    0
Name: 32, dtype: object

>  <hydroph_interaction:ILE:123>  (33) 
hydroph_interaction:ILE:123    0
hydroph_interaction:ILE:123    0
Name: 32, dtype: object

>  <hbond:ILE:123>  (33) 
hbond:ILE:123    0
hbond:ILE:123    0
Name: 32, dtype: object

>  <hydroph_interaction:VAL:124>  (33) 
hydroph_interaction:VAL:124    1
hydroph_interaction:VAL:124    1
Name: 32, dtype: object

>  <hbond:VAL:124>  (33) 
hbond:VAL:124    0
hbond:VAL:124    0
Name: 32, dtype: object

>  <halogenbond:VAL:124>  (33) 
halogenbond:VAL:124    0
halogenbond:VAL:124    0
Name: 32, dtype: object

>  <hbond:SER:125>  (33) 
hbond:SER:125    0
hbond:SER:125    0
Name: 32, dtype: object

>  <halogenbond:SER:125>  (33) 
halogenbond:SER:125    0
halogenbond:SER:125    0
Name: 32, dtype: object

>  <hydroph_interaction:THR:126>  (33) 
hydroph_interaction:THR:126    0
hydroph_interaction:THR:126    0
Name: 32, dtype: object

>  <hbond:THR:126>  (33) 
hbond:THR:126    0
hbond:THR:126    0
Name: 32, dtype: object

>  <halogenbond:THR:126>  (33) 
halogenbond:THR:126    0
halogenbond:THR:126    0
Name: 32, dtype: object

>  <hbond:GLY:127>  (33) 
hbond:GLY:127    0
hbond:GLY:127    0
Name: 32, dtype: object

>  <halogenbond:GLY:127>  (33) 
halogenbond:GLY:127    0
halogenbond:GLY:127    0
Name: 32, dtype: object

>  <hydroph_interaction:GLY:127>  (33) 
hydroph_interaction:GLY:127    0
hydroph_interaction:GLY:127    0
Name: 32, dtype: object

>  <hbond:GLY:128>  (33) 
hbond:GLY:128    0
hbond:GLY:128    0
Name: 32, dtype: object

>  <halogenbond:GLY:128>  (33) 
halogenbond:GLY:128    0
halogenbond:GLY:128    0
Name: 32, dtype: object

>  <hydroph_interaction:GLY:128>  (33) 
hydroph_interaction:GLY:128    0
hydroph_interaction:GLY:128    0
Name: 32, dtype: object

>  <hbond:ASN:129>  (33) 
hbond:ASN:129    0
hbond:ASN:129    0
Name: 32, dtype: object

>  <hydroph_interaction:ASN:129>  (33) 
hydroph_interaction:ASN:129    0
hydroph_interaction:ASN:129    0
Name: 32, dtype: object

>  <halogenbond:ASN:129>  (33) 
halogenbond:ASN:129    0
halogenbond:ASN:129    0
Name: 32, dtype: object

>  <hbond:GLY:130>  (33) 
hbond:GLY:130    0
hbond:GLY:130    0
Name: 32, dtype: object

>  <hydroph_interaction:LEU:131>  (33) 
hydroph_interaction:LEU:131    0
hydroph_interaction:LEU:131    0
Name: 32, dtype: object

>  <hbond:LEU:131>  (33) 
hbond:LEU:131    0
hbond:LEU:131    0
Name: 32, dtype: object

>  <halogenbond:LEU:131>  (33) 
halogenbond:LEU:131    0
halogenbond:LEU:131    0
Name: 32, dtype: object

>  <hydroph_interaction:VAL:132>  (33) 
hydroph_interaction:VAL:132    0
hydroph_interaction:VAL:132    0
Name: 32, dtype: object

>  <hbond:VAL:132>  (33) 
hbond:VAL:132    0
hbond:VAL:132    0
Name: 32, dtype: object

>  <hbond:GLY:133>  (33) 
hbond:GLY:133    0
hbond:GLY:133    0
Name: 32, dtype: object

>  <halogenbond:GLY:133>  (33) 
halogenbond:GLY:133    0
halogenbond:GLY:133    0
Name: 32, dtype: object

>  <hydroph_interaction:PHE:134>  (33) 
hydroph_interaction:PHE:134    0
hydroph_interaction:PHE:134    0
Name: 32, dtype: object

>  <hbond:PHE:134>  (33) 
hbond:PHE:134    0
hbond:PHE:134    0
Name: 32, dtype: object

>  <pistack:PHE:134>  (33) 
pistack:PHE:134    0
pistack:PHE:134    0
Name: 32, dtype: object

>  <pication:PHE:134>  (33) 
pication:PHE:134    0
pication:PHE:134    0
Name: 32, dtype: object

>  <hydroph_interaction:ALA:135>  (33) 
hydroph_interaction:ALA:135    0
hydroph_interaction:ALA:135    0
Name: 32, dtype: object

>  <hbond:ALA:135>  (33) 
hbond:ALA:135    0
hbond:ALA:135    0
Name: 32, dtype: object

$$$$
PV_002842911143
     RDKit          3D

 26 27  0  0  0  0  0  0  0  0999 V2000
   11.9770   15.0370   21.9130 C   0  0  0  0  0  0  0  0  0  0  0  0
   11.4570   14.1510   22.7840 C   0  0  0  0  0  0  0  0  0  0  0  0
   11.9650   14.0840   24.1850 C   0  0  0  0  0  0  0  0  0  0  0  0
   10.4820   13.3390   22.3430 C   0  0  0  0  0  0  0  0  0  0  0  0
    9.8110   12.3230   23.0500 C   0  0  0  0  0  0  0  0  0  0  0  0
   10.1420   10.9850   22.7980 C   0  0  0  0  0  0  0  0  0  0  0  0
    9.5200    9.9470   23.4580 C   0  0  0  0  0  0  0  0  0  0  0  0
    8.4720   10.2760   24.4530 C   0  0  0  0  0  0  0  0  0  0  0  0
    8.1340   11.6010   24.7070 C   0  0  0  0  0  0  0  0  0  0  0  0
    8.8100   12.6070   24.0010 C   0  0  0  0  0  0  0  0  0  0  0  0
    8.2870   13.8000   24.4390 N   0  0  0  0  0  0  0  0  0  0  0  0
    7.3190   13.5810   25.3830 C   0  0  0  0  0  0  0  0  0  0  0  0
    7.2040   12.2270   25.5700 C   0  0  0  0  0  0  0  0  0  0  0  0
   12.7130   14.6420   21.2210 H   0  0  0  0  0  0  0  0  0  0  0  0
   12.3360   15.9600   22.3630 H   0  0  0  0  0  0  0  0  0  0  0  0
   11.1360   15.3390   21.2850 H   0  0  0  0  0  0  0  0  0  0  0  0
   11.1490   13.8130   24.8610 H   0  0  0  0  0  0  0  0  0  0  0  0
   12.3600   15.0600   24.4900 H   0  0  0  0  0  0  0  0  0  0  0  0
   12.7590   13.3430   24.3120 H   0  0  0  0  0  0  0  0  0  0  0  0
   10.1520   13.4510   21.3130 H   0  0  0  0  0  0  0  0  0  0  0  0
   10.9020   10.7560   22.0690 H   0  0  0  0  0  0  0  0  0  0  0  0
    9.8010    8.9300   23.2430 H   0  0  0  0  0  0  0  0  0  0  0  0
    8.0120    9.4210   24.9410 H   0  0  0  0  0  0  0  0  0  0  0  0
    8.5820   14.7040   24.1040 H   0  0  0  0  0  0  0  0  0  0  0  0
    6.7970   14.4100   25.8400 H   0  0  0  0  0  0  0  0  0  0  0  0
    6.5230   11.7360   26.2510 H   0  0  0  0  0  0  0  0  0  0  0  0
  1  2  1  0
  2  3  1  0
  2  4  2  3
  4  5  1  0
  5  6  2  0
  6  7  1  0
  7  8  2  0
  8  9  1  0
  9 10  2  0
 10 11  1  0
 11 12  1  0
 12 13  2  0
 10  5  1  0
 13  9  1  0
  1 14  1  0
  1 15  1  0
  1 16  1  0
  3 17  1  0
  3 18  1  0
  3 19  1  0
  4 20  1  0
  6 21  1  0
  7 22  1  0
  8 23  1  0
 11 24  1  0
 12 25  1  0
 13 26  1  0
A    1
 C1 
A    2
 C2 
A    3
 C3 
A    4
 C4 
A    5
 C5 
A    6
 C6 
A    7
 C7 
A    8
 C8 
A    9
 C9 
A   10
 C10
A   11
 N1 
A   12
 C11
A   13
 C12
A   14
 H1 
A   15
 H2 
A   16
 H3 
A   17
 H4 
A   18
 H5 
A   19
 H6 
A   20
 H7 
A   21
 H8 
A   22
 H9 
A   23
 H10
A   24
 H11
A   25
 H12
A   26
 H13
M  END
>  <ref_pdb>  (34) 
x0310_0A

>  <ref_mols>  (34) 
x0554_0A,x0739_0A

>  <original SMILES>  (34) 
CC(C)=Cc1cccc2cc[nH]c12

>  <rationale>  (34) 
info hydroph_interaction:P107; 

>  <intxn_cluster>  (34) 
208

>  <intxn_cluster_rank>  (34) 
125

>  <N_interactions>  (34) 
2

>  <∆∆G>  (34) 
-9.170622

>  <$/mg>  (34) 
163.0

>  <comRMSD>  (34) 
0.731061

>  <N_rotatable_bonds>  (34) 
3

>  <hbond:SER:7>  (34) 
hbond:SER:7    0
hbond:SER:7    0
Name: 33, dtype: object

>  <halogenbond:SER:7>  (34) 
halogenbond:SER:7    0
halogenbond:SER:7    0
Name: 33, dtype: object

>  <hbond:GLY:8>  (34) 
hbond:GLY:8    0
hbond:GLY:8    0
Name: 33, dtype: object

>  <hydroph_interaction:ASN:19>  (34) 
hydroph_interaction:ASN:19    0
hydroph_interaction:ASN:19    0
Name: 33, dtype: object

>  <hbond:ASN:19>  (34) 
hbond:ASN:19    0
hbond:ASN:19    0
Name: 33, dtype: object

>  <halogenbond:ASN:19>  (34) 
halogenbond:ASN:19    0
halogenbond:ASN:19    0
Name: 33, dtype: object

>  <hbond:ARG:20>  (34) 
hbond:ARG:20    0
hbond:ARG:20    0
Name: 33, dtype: object

>  <hydroph_interaction:ARG:20>  (34) 
hydroph_interaction:ARG:20    0
hydroph_interaction:ARG:20    0
Name: 33, dtype: object

>  <saltbridge:ARG:20>  (34) 
saltbridge:ARG:20    0
saltbridge:ARG:20    0
Name: 33, dtype: object

>  <halogenbond:ARG:20>  (34) 
halogenbond:ARG:20    0
halogenbond:ARG:20    0
Name: 33, dtype: object

>  <pication:ARG:20>  (34) 
pication:ARG:20    0
pication:ARG:20    0
Name: 33, dtype: object

>  <hbond:HIS:21>  (34) 
hbond:HIS:21    0
hbond:HIS:21    0
Name: 33, dtype: object

>  <hydroph_interaction:HIS:21>  (34) 
hydroph_interaction:HIS:21    0
hydroph_interaction:HIS:21    0
Name: 33, dtype: object

>  <saltbridge:HIS:21>  (34) 
saltbridge:HIS:21    0
saltbridge:HIS:21    0
Name: 33, dtype: object

>  <pistack:HIS:21>  (34) 
pistack:HIS:21    0
pistack:HIS:21    0
Name: 33, dtype: object

>  <pication:HIS:21>  (34) 
pication:HIS:21    0
pication:HIS:21    0
Name: 33, dtype: object

>  <halogenbond:HIS:21>  (34) 
halogenbond:HIS:21    0
halogenbond:HIS:21    0
Name: 33, dtype: object

>  <hydroph_interaction:LEU:22>  (34) 
hydroph_interaction:LEU:22    0
hydroph_interaction:LEU:22    0
Name: 33, dtype: object

>  <hbond:LEU:22>  (34) 
hbond:LEU:22    0
hbond:LEU:22    0
Name: 33, dtype: object

>  <hydroph_interaction:TRP:28>  (34) 
hydroph_interaction:TRP:28    0
hydroph_interaction:TRP:28    0
Name: 33, dtype: object

>  <hbond:SER:36>  (34) 
hbond:SER:36    0
hbond:SER:36    0
Name: 33, dtype: object

>  <halogenbond:SER:36>  (34) 
halogenbond:SER:36    0
halogenbond:SER:36    0
Name: 33, dtype: object

>  <hbond:ARG:38>  (34) 
hbond:ARG:38    0
hbond:ARG:38    0
Name: 33, dtype: object

>  <halogenbond:ARG:38>  (34) 
halogenbond:ARG:38    0
halogenbond:ARG:38    0
Name: 33, dtype: object

>  <hbond:ASP:39>  (34) 
hbond:ASP:39    0
hbond:ASP:39    0
Name: 33, dtype: object

>  <saltbridge:ASP:39>  (34) 
saltbridge:ASP:39    0
saltbridge:ASP:39    0
Name: 33, dtype: object

>  <hydroph_interaction:ASP:39>  (34) 
hydroph_interaction:ASP:39    0
hydroph_interaction:ASP:39    0
Name: 33, dtype: object

>  <halogenbond:ASP:39>  (34) 
halogenbond:ASP:39    0
halogenbond:ASP:39    0
Name: 33, dtype: object

>  <hydroph_interaction:LEU:40>  (34) 
hydroph_interaction:LEU:40    0
hydroph_interaction:LEU:40    0
Name: 33, dtype: object

>  <hydroph_interaction:TYR:63>  (34) 
hydroph_interaction:TYR:63    0
hydroph_interaction:TYR:63    0
Name: 33, dtype: object

>  <pistack:TYR:63>  (34) 
pistack:TYR:63    0
pistack:TYR:63    0
Name: 33, dtype: object

>  <hbond:TYR:63>  (34) 
hbond:TYR:63    0
hbond:TYR:63    0
Name: 33, dtype: object

>  <hbond:TYR:64>  (34) 
hbond:TYR:64    0
hbond:TYR:64    0
Name: 33, dtype: object

>  <halogenbond:TYR:64>  (34) 
halogenbond:TYR:64    0
halogenbond:TYR:64    0
Name: 33, dtype: object

>  <hydroph_interaction:TYR:64>  (34) 
hydroph_interaction:TYR:64    0
hydroph_interaction:TYR:64    0
Name: 33, dtype: object

>  <hbond:CYS:65>  (34) 
hbond:CYS:65    0
hbond:CYS:65    0
Name: 33, dtype: object

>  <halogenbond:CYS:65>  (34) 
halogenbond:CYS:65    0
halogenbond:CYS:65    0
Name: 33, dtype: object

>  <hbond:SER:66>  (34) 
hbond:SER:66    0
hbond:SER:66    0
Name: 33, dtype: object

>  <hbond:SER:67>  (34) 
hbond:SER:67    0
hbond:SER:67    0
Name: 33, dtype: object

>  <halogenbond:SER:67>  (34) 
halogenbond:SER:67    0
halogenbond:SER:67    0
Name: 33, dtype: object

>  <hydroph_interaction:ARG:68>  (34) 
hydroph_interaction:ARG:68    0
hydroph_interaction:ARG:68    0
Name: 33, dtype: object

>  <hbond:ARG:68>  (34) 
hbond:ARG:68    0
hbond:ARG:68    0
Name: 33, dtype: object

>  <saltbridge:ARG:68>  (34) 
saltbridge:ARG:68    0
saltbridge:ARG:68    0
Name: 33, dtype: object

>  <pication:ARG:68>  (34) 
pication:ARG:68    0
pication:ARG:68    0
Name: 33, dtype: object

>  <hydroph_interaction:TYR:72>  (34) 
hydroph_interaction:TYR:72    0
hydroph_interaction:TYR:72    0
Name: 33, dtype: object

>  <hydroph_interaction:VAL:74>  (34) 
hydroph_interaction:VAL:74    0
hydroph_interaction:VAL:74    0
Name: 33, dtype: object

>  <hydroph_interaction:PHE:76>  (34) 
hydroph_interaction:PHE:76    0
hydroph_interaction:PHE:76    0
Name: 33, dtype: object

>  <hbond:SER:77>  (34) 
hbond:SER:77    0
hbond:SER:77    0
Name: 33, dtype: object

>  <hbond:SER:80>  (34) 
hbond:SER:80    0
hbond:SER:80    0
Name: 33, dtype: object

>  <hbond:LEU:81>  (34) 
hbond:LEU:81    0
hbond:LEU:81    0
Name: 33, dtype: object

>  <halogenbond:LEU:81>  (34) 
halogenbond:LEU:81    0
halogenbond:LEU:81    0
Name: 33, dtype: object

>  <hydroph_interaction:LEU:81>  (34) 
hydroph_interaction:LEU:81    0
hydroph_interaction:LEU:81    0
Name: 33, dtype: object

>  <hydroph_interaction:ILE:82>  (34) 
hydroph_interaction:ILE:82    0
hydroph_interaction:ILE:82    0
Name: 33, dtype: object

>  <hbond:ILE:82>  (34) 
hbond:ILE:82    0
hbond:ILE:82    0
Name: 33, dtype: object

>  <hydroph_interaction:PHE:83>  (34) 
hydroph_interaction:PHE:83    0
hydroph_interaction:PHE:83    0
Name: 33, dtype: object

>  <hbond:PHE:83>  (34) 
hbond:PHE:83    0
hbond:PHE:83    0
Name: 33, dtype: object

>  <halogenbond:PHE:83>  (34) 
halogenbond:PHE:83    0
halogenbond:PHE:83    0
Name: 33, dtype: object

>  <pistack:PHE:83>  (34) 
pistack:PHE:83    0
pistack:PHE:83    0
Name: 33, dtype: object

>  <hydroph_interaction:VAL:84>  (34) 
hydroph_interaction:VAL:84    0
hydroph_interaction:VAL:84    0
Name: 33, dtype: object

>  <hbond:VAL:84>  (34) 
hbond:VAL:84    0
hbond:VAL:84    0
Name: 33, dtype: object

>  <halogenbond:VAL:84>  (34) 
halogenbond:VAL:84    0
halogenbond:VAL:84    0
Name: 33, dtype: object

>  <hydroph_interaction:GLU:85>  (34) 
hydroph_interaction:GLU:85    0
hydroph_interaction:GLU:85    0
Name: 33, dtype: object

>  <hbond:GLU:85>  (34) 
hbond:GLU:85    0
hbond:GLU:85    0
Name: 33, dtype: object

>  <saltbridge:GLU:85>  (34) 
saltbridge:GLU:85    0
saltbridge:GLU:85    0
Name: 33, dtype: object

>  <halogenbond:GLU:85>  (34) 
halogenbond:GLU:85    0
halogenbond:GLU:85    0
Name: 33, dtype: object

>  <hbond:ALA:86>  (34) 
hbond:ALA:86    0
hbond:ALA:86    0
Name: 33, dtype: object

>  <halogenbond:ALA:86>  (34) 
halogenbond:ALA:86    0
halogenbond:ALA:86    0
Name: 33, dtype: object

>  <hydroph_interaction:ALA:86>  (34) 
hydroph_interaction:ALA:86    0
hydroph_interaction:ALA:86    0
Name: 33, dtype: object

>  <hbond:SER:87>  (34) 
hbond:SER:87    0
hbond:SER:87    0
Name: 33, dtype: object

>  <halogenbond:SER:87>  (34) 
halogenbond:SER:87    0
halogenbond:SER:87    0
Name: 33, dtype: object

>  <hbond:GLU:88>  (34) 
hbond:GLU:88    0
hbond:GLU:88    0
Name: 33, dtype: object

>  <hydroph_interaction:GLU:88>  (34) 
hydroph_interaction:GLU:88    0
hydroph_interaction:GLU:88    0
Name: 33, dtype: object

>  <halogenbond:GLU:88>  (34) 
halogenbond:GLU:88    0
halogenbond:GLU:88    0
Name: 33, dtype: object

>  <saltbridge:GLU:88>  (34) 
saltbridge:GLU:88    0
saltbridge:GLU:88    0
Name: 33, dtype: object

>  <hydroph_interaction:TYR:89>  (34) 
hydroph_interaction:TYR:89    0
hydroph_interaction:TYR:89    0
Name: 33, dtype: object

>  <pistack:TYR:89>  (34) 
pistack:TYR:89    0
pistack:TYR:89    0
Name: 33, dtype: object

>  <hbond:TYR:89>  (34) 
hbond:TYR:89    0
hbond:TYR:89    0
Name: 33, dtype: object

>  <halogenbond:TYR:89>  (34) 
halogenbond:TYR:89    0
halogenbond:TYR:89    0
Name: 33, dtype: object

>  <hbond:TYR:90>  (34) 
hbond:TYR:90    0
hbond:TYR:90    0
Name: 33, dtype: object

>  <hydroph_interaction:TYR:90>  (34) 
hydroph_interaction:TYR:90    0
hydroph_interaction:TYR:90    0
Name: 33, dtype: object

>  <pistack:TYR:90>  (34) 
pistack:TYR:90    0
pistack:TYR:90    0
Name: 33, dtype: object

>  <halogenbond:TYR:90>  (34) 
halogenbond:TYR:90    0
halogenbond:TYR:90    0
Name: 33, dtype: object

>  <pication:TYR:90>  (34) 
pication:TYR:90    0
pication:TYR:90    0
Name: 33, dtype: object

>  <hydroph_interaction:PRO:91>  (34) 
hydroph_interaction:PRO:91    0
hydroph_interaction:PRO:91    0
Name: 33, dtype: object

>  <halogenbond:PRO:91>  (34) 
halogenbond:PRO:91    0
halogenbond:PRO:91    0
Name: 33, dtype: object

>  <hbond:PRO:91>  (34) 
hbond:PRO:91    0
hbond:PRO:91    0
Name: 33, dtype: object

>  <hydroph_interaction:ALA:92>  (34) 
hydroph_interaction:ALA:92    0
hydroph_interaction:ALA:92    0
Name: 33, dtype: object

>  <hbond:ARG:93>  (34) 
hbond:ARG:93    0
hbond:ARG:93    0
Name: 33, dtype: object

>  <pication:ARG:93>  (34) 
pication:ARG:93    0
pication:ARG:93    0
Name: 33, dtype: object

>  <saltbridge:ARG:93>  (34) 
saltbridge:ARG:93    0
saltbridge:ARG:93    0
Name: 33, dtype: object

>  <hydroph_interaction:ARG:93>  (34) 
hydroph_interaction:ARG:93    0
hydroph_interaction:ARG:93    0
Name: 33, dtype: object

>  <halogenbond:ARG:93>  (34) 
halogenbond:ARG:93    0
halogenbond:ARG:93    0
Name: 33, dtype: object

>  <hydroph_interaction:TYR:94>  (34) 
hydroph_interaction:TYR:94    0
hydroph_interaction:TYR:94    0
Name: 33, dtype: object

>  <hbond:TYR:94>  (34) 
hbond:TYR:94    0
hbond:TYR:94    0
Name: 33, dtype: object

>  <halogenbond:GLN:95>  (34) 
halogenbond:GLN:95    0
halogenbond:GLN:95    0
Name: 33, dtype: object

>  <hbond:GLN:95>  (34) 
hbond:GLN:95    0
hbond:GLN:95    0
Name: 33, dtype: object

>  <hydroph_interaction:GLN:95>  (34) 
hydroph_interaction:GLN:95    0
hydroph_interaction:GLN:95    0
Name: 33, dtype: object

>  <hbond:SER:96>  (34) 
hbond:SER:96    0
hbond:SER:96    0
Name: 33, dtype: object

>  <hydroph_interaction:LEU:98>  (34) 
hydroph_interaction:LEU:98    0
hydroph_interaction:LEU:98    0
Name: 33, dtype: object

>  <hbond:LEU:98>  (34) 
hbond:LEU:98    0
hbond:LEU:98    0
Name: 33, dtype: object

>  <hbond:MET:99>  (34) 
hbond:MET:99    0
hbond:MET:99    0
Name: 33, dtype: object

>  <hydroph_interaction:MET:99>  (34) 
hydroph_interaction:MET:99    0
hydroph_interaction:MET:99    0
Name: 33, dtype: object

>  <halogenbond:MET:99>  (34) 
halogenbond:MET:99    0
halogenbond:MET:99    0
Name: 33, dtype: object

>  <hydroph_interaction:LEU:100>  (34) 
hydroph_interaction:LEU:100    0
hydroph_interaction:LEU:100    0
Name: 33, dtype: object

>  <hbond:LEU:100>  (34) 
hbond:LEU:100    0
hbond:LEU:100    0
Name: 33, dtype: object

>  <hbond:ALA:101>  (34) 
hbond:ALA:101    0
hbond:ALA:101    0
Name: 33, dtype: object

>  <hydroph_interaction:ALA:101>  (34) 
hydroph_interaction:ALA:101    0
hydroph_interaction:ALA:101    0
Name: 33, dtype: object

>  <hydroph_interaction:VAL:102>  (34) 
hydroph_interaction:VAL:102    0
hydroph_interaction:VAL:102    0
Name: 33, dtype: object

>  <hbond:VAL:102>  (34) 
hbond:VAL:102    0
hbond:VAL:102    0
Name: 33, dtype: object

>  <hbond:GLY:103>  (34) 
hbond:GLY:103    0
hbond:GLY:103    0
Name: 33, dtype: object

>  <halogenbond:GLY:103>  (34) 
halogenbond:GLY:103    0
halogenbond:GLY:103    0
Name: 33, dtype: object

>  <hydroph_interaction:HIS:104>  (34) 
hydroph_interaction:HIS:104    0
hydroph_interaction:HIS:104    0
Name: 33, dtype: object

>  <hbond:HIS:104>  (34) 
hbond:HIS:104    0
hbond:HIS:104    0
Name: 33, dtype: object

>  <saltbridge:HIS:104>  (34) 
saltbridge:HIS:104    0
saltbridge:HIS:104    0
Name: 33, dtype: object

>  <pication:HIS:104>  (34) 
pication:HIS:104    0
pication:HIS:104    0
Name: 33, dtype: object

>  <pistack:HIS:104>  (34) 
pistack:HIS:104    0
pistack:HIS:104    0
Name: 33, dtype: object

>  <halogenbond:HIS:104>  (34) 
halogenbond:HIS:104    0
halogenbond:HIS:104    0
Name: 33, dtype: object

>  <hbond:SER:105>  (34) 
hbond:SER:105    0
hbond:SER:105    0
Name: 33, dtype: object

>  <halogenbond:SER:105>  (34) 
halogenbond:SER:105    0
halogenbond:SER:105    0
Name: 33, dtype: object

>  <hbond:GLU:106>  (34) 
hbond:GLU:106    0
hbond:GLU:106    0
Name: 33, dtype: object

>  <hydroph_interaction:GLU:106>  (34) 
hydroph_interaction:GLU:106    0
hydroph_interaction:GLU:106    0
Name: 33, dtype: object

>  <saltbridge:GLU:106>  (34) 
saltbridge:GLU:106    0
saltbridge:GLU:106    0
Name: 33, dtype: object

>  <halogenbond:GLU:106>  (34) 
halogenbond:GLU:106    0
halogenbond:GLU:106    0
Name: 33, dtype: object

>  <hydroph_interaction:PRO:107>  (34) 
hydroph_interaction:PRO:107    2
hydroph_interaction:PRO:107    2
Name: 33, dtype: object

>  <hbond:PRO:107>  (34) 
hbond:PRO:107    0
hbond:PRO:107    0
Name: 33, dtype: object

>  <halogenbond:PRO:107>  (34) 
halogenbond:PRO:107    0
halogenbond:PRO:107    0
Name: 33, dtype: object

>  <hbond:GLY:108>  (34) 
hbond:GLY:108    0
hbond:GLY:108    0
Name: 33, dtype: object

>  <halogenbond:GLY:108>  (34) 
halogenbond:GLY:108    0
halogenbond:GLY:108    0
Name: 33, dtype: object

>  <hbond:ASP:109>  (34) 
hbond:ASP:109    0
hbond:ASP:109    0
Name: 33, dtype: object

>  <hydroph_interaction:ASP:109>  (34) 
hydroph_interaction:ASP:109    0
hydroph_interaction:ASP:109    0
Name: 33, dtype: object

>  <saltbridge:ASP:109>  (34) 
saltbridge:ASP:109    0
saltbridge:ASP:109    0
Name: 33, dtype: object

>  <hbond:CYS:110>  (34) 
hbond:CYS:110    0
hbond:CYS:110    0
Name: 33, dtype: object

>  <halogenbond:CYS:110>  (34) 
halogenbond:CYS:110    0
halogenbond:CYS:110    0
Name: 33, dtype: object

>  <hbond:GLY:111>  (34) 
hbond:GLY:111    0
hbond:GLY:111    0
Name: 33, dtype: object

>  <hbond:GLY:112>  (34) 
hbond:GLY:112    0
hbond:GLY:112    0
Name: 33, dtype: object

>  <hbond:ILE:113>  (34) 
hbond:ILE:113    0
hbond:ILE:113    0
Name: 33, dtype: object

>  <hydroph_interaction:LEU:114>  (34) 
hydroph_interaction:LEU:114    0
hydroph_interaction:LEU:114    0
Name: 33, dtype: object

>  <hbond:LEU:114>  (34) 
hbond:LEU:114    0
hbond:LEU:114    0
Name: 33, dtype: object

>  <hydroph_interaction:ILE:123>  (34) 
hydroph_interaction:ILE:123    0
hydroph_interaction:ILE:123    0
Name: 33, dtype: object

>  <hbond:ILE:123>  (34) 
hbond:ILE:123    0
hbond:ILE:123    0
Name: 33, dtype: object

>  <hydroph_interaction:VAL:124>  (34) 
hydroph_interaction:VAL:124    0
hydroph_interaction:VAL:124    0
Name: 33, dtype: object

>  <hbond:VAL:124>  (34) 
hbond:VAL:124    0
hbond:VAL:124    0
Name: 33, dtype: object

>  <halogenbond:VAL:124>  (34) 
halogenbond:VAL:124    0
halogenbond:VAL:124    0
Name: 33, dtype: object

>  <hbond:SER:125>  (34) 
hbond:SER:125    0
hbond:SER:125    0
Name: 33, dtype: object

>  <halogenbond:SER:125>  (34) 
halogenbond:SER:125    0
halogenbond:SER:125    0
Name: 33, dtype: object

>  <hydroph_interaction:THR:126>  (34) 
hydroph_interaction:THR:126    0
hydroph_interaction:THR:126    0
Name: 33, dtype: object

>  <hbond:THR:126>  (34) 
hbond:THR:126    0
hbond:THR:126    0
Name: 33, dtype: object

>  <halogenbond:THR:126>  (34) 
halogenbond:THR:126    0
halogenbond:THR:126    0
Name: 33, dtype: object

>  <hbond:GLY:127>  (34) 
hbond:GLY:127    0
hbond:GLY:127    0
Name: 33, dtype: object

>  <halogenbond:GLY:127>  (34) 
halogenbond:GLY:127    0
halogenbond:GLY:127    0
Name: 33, dtype: object

>  <hydroph_interaction:GLY:127>  (34) 
hydroph_interaction:GLY:127    0
hydroph_interaction:GLY:127    0
Name: 33, dtype: object

>  <hbond:GLY:128>  (34) 
hbond:GLY:128    0
hbond:GLY:128    0
Name: 33, dtype: object

>  <halogenbond:GLY:128>  (34) 
halogenbond:GLY:128    0
halogenbond:GLY:128    0
Name: 33, dtype: object

>  <hydroph_interaction:GLY:128>  (34) 
hydroph_interaction:GLY:128    0
hydroph_interaction:GLY:128    0
Name: 33, dtype: object

>  <hbond:ASN:129>  (34) 
hbond:ASN:129    0
hbond:ASN:129    0
Name: 33, dtype: object

>  <hydroph_interaction:ASN:129>  (34) 
hydroph_interaction:ASN:129    0
hydroph_interaction:ASN:129    0
Name: 33, dtype: object

>  <halogenbond:ASN:129>  (34) 
halogenbond:ASN:129    0
halogenbond:ASN:129    0
Name: 33, dtype: object

>  <hbond:GLY:130>  (34) 
hbond:GLY:130    0
hbond:GLY:130    0
Name: 33, dtype: object

>  <hydroph_interaction:LEU:131>  (34) 
hydroph_interaction:LEU:131    0
hydroph_interaction:LEU:131    0
Name: 33, dtype: object

>  <hbond:LEU:131>  (34) 
hbond:LEU:131    0
hbond:LEU:131    0
Name: 33, dtype: object

>  <halogenbond:LEU:131>  (34) 
halogenbond:LEU:131    0
halogenbond:LEU:131    0
Name: 33, dtype: object

>  <hydroph_interaction:VAL:132>  (34) 
hydroph_interaction:VAL:132    0
hydroph_interaction:VAL:132    0
Name: 33, dtype: object

>  <hbond:VAL:132>  (34) 
hbond:VAL:132    0
hbond:VAL:132    0
Name: 33, dtype: object

>  <hbond:GLY:133>  (34) 
hbond:GLY:133    0
hbond:GLY:133    0
Name: 33, dtype: object

>  <halogenbond:GLY:133>  (34) 
halogenbond:GLY:133    0
halogenbond:GLY:133    0
Name: 33, dtype: object

>  <hydroph_interaction:PHE:134>  (34) 
hydroph_interaction:PHE:134    0
hydroph_interaction:PHE:134    0
Name: 33, dtype: object

>  <hbond:PHE:134>  (34) 
hbond:PHE:134    0
hbond:PHE:134    0
Name: 33, dtype: object

>  <pistack:PHE:134>  (34) 
pistack:PHE:134    0
pistack:PHE:134    0
Name: 33, dtype: object

>  <pication:PHE:134>  (34) 
pication:PHE:134    0
pication:PHE:134    0
Name: 33, dtype: object

>  <hydroph_interaction:ALA:135>  (34) 
hydroph_interaction:ALA:135    0
hydroph_interaction:ALA:135    0
Name: 33, dtype: object

>  <hbond:ALA:135>  (34) 
hbond:ALA:135    0
hbond:ALA:135    0
Name: 33, dtype: object

$$$$
Z1285735601
     RDKit          3D

 32 33  0  0  0  0  0  0  0  0999 V2000
   10.2050    9.2600   22.6770 C   0  0  0  0  0  0  0  0  0  0  0  0
    9.5590   10.3910   23.4190 C   0  0  0  0  0  0  0  0  0  0  0  0
    9.9980   11.7160   23.2760 C   0  0  0  0  0  0  0  0  0  0  0  0
    9.3770   12.7460   23.9940 C   0  0  0  0  0  0  0  0  0  0  0  0
    8.3090   12.4360   24.8430 C   0  0  0  0  0  0  0  0  0  0  0  0
    7.6500   13.4170   25.6010 O   0  0  0  0  0  0  0  0  0  0  0  0
    7.5070   14.6640   25.0160 C   0  0  0  0  0  0  0  0  0  0  0  0
    7.5620   14.9000   23.8230 O   0  0  0  0  0  0  0  0  0  0  0  0
    7.2750   15.6660   26.1350 C   0  0  0  0  0  0  0  0  0  0  0  0
    6.4470   15.0870   27.2670 C   0  0  0  0  0  0  0  0  0  0  0  0
    6.5300   16.0960   28.4070 C   0  0  0  0  0  0  0  0  0  0  0  0
    7.9870   16.5380   28.5500 C   0  0  0  0  0  0  0  0  0  0  0  0
    8.8100   16.1440   26.9840 S   0  0  0  0  0  0  0  0  0  0  0  0
    7.8530   11.1400   24.9790 C   0  0  0  0  0  0  0  0  0  0  0  0
    6.6960   10.8510   25.8680 C   0  0  0  0  0  0  0  0  0  0  0  0
    8.4910   10.1250   24.2710 C   0  0  0  0  0  0  0  0  0  0  0  0
   10.6630    9.6340   21.7600 H   0  0  0  0  0  0  0  0  0  0  0  0
   10.9760    8.7730   23.2810 H   0  0  0  0  0  0  0  0  0  0  0  0
    9.4690    8.5000   22.4090 H   0  0  0  0  0  0  0  0  0  0  0  0
   10.8290   11.9530   22.6130 H   0  0  0  0  0  0  0  0  0  0  0  0
    9.7240   13.7680   23.8900 H   0  0  0  0  0  0  0  0  0  0  0  0
    6.8240   16.5780   25.7300 H   0  0  0  0  0  0  0  0  0  0  0  0
    6.8290   14.1080   27.5730 H   0  0  0  0  0  0  0  0  0  0  0  0
    5.4020   14.9390   26.9620 H   0  0  0  0  0  0  0  0  0  0  0  0
    6.1650   15.6590   29.3430 H   0  0  0  0  0  0  0  0  0  0  0  0
    5.8910   16.9610   28.1890 H   0  0  0  0  0  0  0  0  0  0  0  0
    8.0530   17.6200   28.7110 H   0  0  0  0  0  0  0  0  0  0  0  0
    8.4820   16.0360   29.3850 H   0  0  0  0  0  0  0  0  0  0  0  0
    6.2080    9.9250   25.5590 H   0  0  0  0  0  0  0  0  0  0  0  0
    6.9890   10.7410   26.9130 H   0  0  0  0  0  0  0  0  0  0  0  0
    5.9680   11.6680   25.8210 H   0  0  0  0  0  0  0  0  0  0  0  0
    8.1500    9.1030   24.3790 H   0  0  0  0  0  0  0  0  0  0  0  0
  1  2  1  0
  2  3  2  0
  3  4  1  0
  4  5  2  0
  5  6  1  0
  6  7  1  0
  7  8  2  0
  7  9  1  0
  9 10  1  0
 10 11  1  0
 11 12  1  0
 12 13  1  0
  5 14  1  0
 14 15  1  0
 14 16  2  0
 16  2  1  0
 13  9  1  0
  1 17  1  0
  1 18  1  0
  1 19  1  0
  3 20  1  0
  4 21  1  0
  9 22  1  0
 10 23  1  0
 10 24  1  0
 11 25  1  0
 11 26  1  0
 12 27  1  0
 12 28  1  0
 15 29  1  0
 15 30  1  0
 15 31  1  0
 16 32  1  0
A    1
 C1 
A    2
 C2 
A    3
 C3 
A    4
 C4 
A    5
 C5 
A    6
 O1 
A    7
 C6 
A    8
 O2 
A    9
 C7 
A   10
 C8 
A   11
 C9 
A   12
 C10
A   13
 S1 
A   14
 C11
A   15
 C12
A   16
 C13
A   17
 H1 
A   18
 H2 
A   19
 H3 
A   20
 H4 
A   21
 H5 
A   22
 H6 
A   23
 H7 
A   24
 H8 
A   25
 H9 
A   26
 H10
A   27
 H11
A   28
 H12
A   29
 H13
A   30
 H14
A   31
 H15
A   32
 H16
M  END
>  <ref_pdb>  (35) 
x0310_0A

>  <ref_mols>  (35) 
x0554_0A,x0812_0A,x0416_0A

>  <original SMILES>  (35) 
Cc1ccc(OC(=O)C2CCCS2)c(C)c1

>  <rationale>  (35) 
info hydroph_interaction:P107+V124; 

>  <intxn_cluster>  (35) 
103

>  <intxn_cluster_rank>  (35) 
130

>  <N_interactions>  (35) 
2

>  <∆∆G>  (35) 
-9.959745

>  <$/mg>  (35) 
0.0

>  <comRMSD>  (35) 
0.92302

>  <N_rotatable_bonds>  (35) 
4

>  <hbond:SER:7>  (35) 
hbond:SER:7    0
hbond:SER:7    0
Name: 34, dtype: object

>  <halogenbond:SER:7>  (35) 
halogenbond:SER:7    0
halogenbond:SER:7    0
Name: 34, dtype: object

>  <hbond:GLY:8>  (35) 
hbond:GLY:8    0
hbond:GLY:8    0
Name: 34, dtype: object

>  <hydroph_interaction:ASN:19>  (35) 
hydroph_interaction:ASN:19    0
hydroph_interaction:ASN:19    0
Name: 34, dtype: object

>  <hbond:ASN:19>  (35) 
hbond:ASN:19    0
hbond:ASN:19    0
Name: 34, dtype: object

>  <halogenbond:ASN:19>  (35) 
halogenbond:ASN:19    0
halogenbond:ASN:19    0
Name: 34, dtype: object

>  <hbond:ARG:20>  (35) 
hbond:ARG:20    0
hbond:ARG:20    0
Name: 34, dtype: object

>  <hydroph_interaction:ARG:20>  (35) 
hydroph_interaction:ARG:20    0
hydroph_interaction:ARG:20    0
Name: 34, dtype: object

>  <saltbridge:ARG:20>  (35) 
saltbridge:ARG:20    0
saltbridge:ARG:20    0
Name: 34, dtype: object

>  <halogenbond:ARG:20>  (35) 
halogenbond:ARG:20    0
halogenbond:ARG:20    0
Name: 34, dtype: object

>  <pication:ARG:20>  (35) 
pication:ARG:20    0
pication:ARG:20    0
Name: 34, dtype: object

>  <hbond:HIS:21>  (35) 
hbond:HIS:21    0
hbond:HIS:21    0
Name: 34, dtype: object

>  <hydroph_interaction:HIS:21>  (35) 
hydroph_interaction:HIS:21    0
hydroph_interaction:HIS:21    0
Name: 34, dtype: object

>  <saltbridge:HIS:21>  (35) 
saltbridge:HIS:21    0
saltbridge:HIS:21    0
Name: 34, dtype: object

>  <pistack:HIS:21>  (35) 
pistack:HIS:21    0
pistack:HIS:21    0
Name: 34, dtype: object

>  <pication:HIS:21>  (35) 
pication:HIS:21    0
pication:HIS:21    0
Name: 34, dtype: object

>  <halogenbond:HIS:21>  (35) 
halogenbond:HIS:21    0
halogenbond:HIS:21    0
Name: 34, dtype: object

>  <hydroph_interaction:LEU:22>  (35) 
hydroph_interaction:LEU:22    0
hydroph_interaction:LEU:22    0
Name: 34, dtype: object

>  <hbond:LEU:22>  (35) 
hbond:LEU:22    0
hbond:LEU:22    0
Name: 34, dtype: object

>  <hydroph_interaction:TRP:28>  (35) 
hydroph_interaction:TRP:28    0
hydroph_interaction:TRP:28    0
Name: 34, dtype: object

>  <hbond:SER:36>  (35) 
hbond:SER:36    0
hbond:SER:36    0
Name: 34, dtype: object

>  <halogenbond:SER:36>  (35) 
halogenbond:SER:36    0
halogenbond:SER:36    0
Name: 34, dtype: object

>  <hbond:ARG:38>  (35) 
hbond:ARG:38    0
hbond:ARG:38    0
Name: 34, dtype: object

>  <halogenbond:ARG:38>  (35) 
halogenbond:ARG:38    0
halogenbond:ARG:38    0
Name: 34, dtype: object

>  <hbond:ASP:39>  (35) 
hbond:ASP:39    0
hbond:ASP:39    0
Name: 34, dtype: object

>  <saltbridge:ASP:39>  (35) 
saltbridge:ASP:39    0
saltbridge:ASP:39    0
Name: 34, dtype: object

>  <hydroph_interaction:ASP:39>  (35) 
hydroph_interaction:ASP:39    0
hydroph_interaction:ASP:39    0
Name: 34, dtype: object

>  <halogenbond:ASP:39>  (35) 
halogenbond:ASP:39    0
halogenbond:ASP:39    0
Name: 34, dtype: object

>  <hydroph_interaction:LEU:40>  (35) 
hydroph_interaction:LEU:40    0
hydroph_interaction:LEU:40    0
Name: 34, dtype: object

>  <hydroph_interaction:TYR:63>  (35) 
hydroph_interaction:TYR:63    0
hydroph_interaction:TYR:63    0
Name: 34, dtype: object

>  <pistack:TYR:63>  (35) 
pistack:TYR:63    0
pistack:TYR:63    0
Name: 34, dtype: object

>  <hbond:TYR:63>  (35) 
hbond:TYR:63    0
hbond:TYR:63    0
Name: 34, dtype: object

>  <hbond:TYR:64>  (35) 
hbond:TYR:64    0
hbond:TYR:64    0
Name: 34, dtype: object

>  <halogenbond:TYR:64>  (35) 
halogenbond:TYR:64    0
halogenbond:TYR:64    0
Name: 34, dtype: object

>  <hydroph_interaction:TYR:64>  (35) 
hydroph_interaction:TYR:64    0
hydroph_interaction:TYR:64    0
Name: 34, dtype: object

>  <hbond:CYS:65>  (35) 
hbond:CYS:65    0
hbond:CYS:65    0
Name: 34, dtype: object

>  <halogenbond:CYS:65>  (35) 
halogenbond:CYS:65    0
halogenbond:CYS:65    0
Name: 34, dtype: object

>  <hbond:SER:66>  (35) 
hbond:SER:66    0
hbond:SER:66    0
Name: 34, dtype: object

>  <hbond:SER:67>  (35) 
hbond:SER:67    0
hbond:SER:67    0
Name: 34, dtype: object

>  <halogenbond:SER:67>  (35) 
halogenbond:SER:67    0
halogenbond:SER:67    0
Name: 34, dtype: object

>  <hydroph_interaction:ARG:68>  (35) 
hydroph_interaction:ARG:68    0
hydroph_interaction:ARG:68    0
Name: 34, dtype: object

>  <hbond:ARG:68>  (35) 
hbond:ARG:68    0
hbond:ARG:68    0
Name: 34, dtype: object

>  <saltbridge:ARG:68>  (35) 
saltbridge:ARG:68    0
saltbridge:ARG:68    0
Name: 34, dtype: object

>  <pication:ARG:68>  (35) 
pication:ARG:68    0
pication:ARG:68    0
Name: 34, dtype: object

>  <hydroph_interaction:TYR:72>  (35) 
hydroph_interaction:TYR:72    0
hydroph_interaction:TYR:72    0
Name: 34, dtype: object

>  <hydroph_interaction:VAL:74>  (35) 
hydroph_interaction:VAL:74    0
hydroph_interaction:VAL:74    0
Name: 34, dtype: object

>  <hydroph_interaction:PHE:76>  (35) 
hydroph_interaction:PHE:76    0
hydroph_interaction:PHE:76    0
Name: 34, dtype: object

>  <hbond:SER:77>  (35) 
hbond:SER:77    0
hbond:SER:77    0
Name: 34, dtype: object

>  <hbond:SER:80>  (35) 
hbond:SER:80    0
hbond:SER:80    0
Name: 34, dtype: object

>  <hbond:LEU:81>  (35) 
hbond:LEU:81    0
hbond:LEU:81    0
Name: 34, dtype: object

>  <halogenbond:LEU:81>  (35) 
halogenbond:LEU:81    0
halogenbond:LEU:81    0
Name: 34, dtype: object

>  <hydroph_interaction:LEU:81>  (35) 
hydroph_interaction:LEU:81    0
hydroph_interaction:LEU:81    0
Name: 34, dtype: object

>  <hydroph_interaction:ILE:82>  (35) 
hydroph_interaction:ILE:82    0
hydroph_interaction:ILE:82    0
Name: 34, dtype: object

>  <hbond:ILE:82>  (35) 
hbond:ILE:82    0
hbond:ILE:82    0
Name: 34, dtype: object

>  <hydroph_interaction:PHE:83>  (35) 
hydroph_interaction:PHE:83    0
hydroph_interaction:PHE:83    0
Name: 34, dtype: object

>  <hbond:PHE:83>  (35) 
hbond:PHE:83    0
hbond:PHE:83    0
Name: 34, dtype: object

>  <halogenbond:PHE:83>  (35) 
halogenbond:PHE:83    0
halogenbond:PHE:83    0
Name: 34, dtype: object

>  <pistack:PHE:83>  (35) 
pistack:PHE:83    0
pistack:PHE:83    0
Name: 34, dtype: object

>  <hydroph_interaction:VAL:84>  (35) 
hydroph_interaction:VAL:84    0
hydroph_interaction:VAL:84    0
Name: 34, dtype: object

>  <hbond:VAL:84>  (35) 
hbond:VAL:84    0
hbond:VAL:84    0
Name: 34, dtype: object

>  <halogenbond:VAL:84>  (35) 
halogenbond:VAL:84    0
halogenbond:VAL:84    0
Name: 34, dtype: object

>  <hydroph_interaction:GLU:85>  (35) 
hydroph_interaction:GLU:85    0
hydroph_interaction:GLU:85    0
Name: 34, dtype: object

>  <hbond:GLU:85>  (35) 
hbond:GLU:85    0
hbond:GLU:85    0
Name: 34, dtype: object

>  <saltbridge:GLU:85>  (35) 
saltbridge:GLU:85    0
saltbridge:GLU:85    0
Name: 34, dtype: object

>  <halogenbond:GLU:85>  (35) 
halogenbond:GLU:85    0
halogenbond:GLU:85    0
Name: 34, dtype: object

>  <hbond:ALA:86>  (35) 
hbond:ALA:86    0
hbond:ALA:86    0
Name: 34, dtype: object

>  <halogenbond:ALA:86>  (35) 
halogenbond:ALA:86    0
halogenbond:ALA:86    0
Name: 34, dtype: object

>  <hydroph_interaction:ALA:86>  (35) 
hydroph_interaction:ALA:86    0
hydroph_interaction:ALA:86    0
Name: 34, dtype: object

>  <hbond:SER:87>  (35) 
hbond:SER:87    0
hbond:SER:87    0
Name: 34, dtype: object

>  <halogenbond:SER:87>  (35) 
halogenbond:SER:87    0
halogenbond:SER:87    0
Name: 34, dtype: object

>  <hbond:GLU:88>  (35) 
hbond:GLU:88    0
hbond:GLU:88    0
Name: 34, dtype: object

>  <hydroph_interaction:GLU:88>  (35) 
hydroph_interaction:GLU:88    0
hydroph_interaction:GLU:88    0
Name: 34, dtype: object

>  <halogenbond:GLU:88>  (35) 
halogenbond:GLU:88    0
halogenbond:GLU:88    0
Name: 34, dtype: object

>  <saltbridge:GLU:88>  (35) 
saltbridge:GLU:88    0
saltbridge:GLU:88    0
Name: 34, dtype: object

>  <hydroph_interaction:TYR:89>  (35) 
hydroph_interaction:TYR:89    0
hydroph_interaction:TYR:89    0
Name: 34, dtype: object

>  <pistack:TYR:89>  (35) 
pistack:TYR:89    0
pistack:TYR:89    0
Name: 34, dtype: object

>  <hbond:TYR:89>  (35) 
hbond:TYR:89    0
hbond:TYR:89    0
Name: 34, dtype: object

>  <halogenbond:TYR:89>  (35) 
halogenbond:TYR:89    0
halogenbond:TYR:89    0
Name: 34, dtype: object

>  <hbond:TYR:90>  (35) 
hbond:TYR:90    0
hbond:TYR:90    0
Name: 34, dtype: object

>  <hydroph_interaction:TYR:90>  (35) 
hydroph_interaction:TYR:90    0
hydroph_interaction:TYR:90    0
Name: 34, dtype: object

>  <pistack:TYR:90>  (35) 
pistack:TYR:90    0
pistack:TYR:90    0
Name: 34, dtype: object

>  <halogenbond:TYR:90>  (35) 
halogenbond:TYR:90    0
halogenbond:TYR:90    0
Name: 34, dtype: object

>  <pication:TYR:90>  (35) 
pication:TYR:90    0
pication:TYR:90    0
Name: 34, dtype: object

>  <hydroph_interaction:PRO:91>  (35) 
hydroph_interaction:PRO:91    0
hydroph_interaction:PRO:91    0
Name: 34, dtype: object

>  <halogenbond:PRO:91>  (35) 
halogenbond:PRO:91    0
halogenbond:PRO:91    0
Name: 34, dtype: object

>  <hbond:PRO:91>  (35) 
hbond:PRO:91    0
hbond:PRO:91    0
Name: 34, dtype: object

>  <hydroph_interaction:ALA:92>  (35) 
hydroph_interaction:ALA:92    0
hydroph_interaction:ALA:92    0
Name: 34, dtype: object

>  <hbond:ARG:93>  (35) 
hbond:ARG:93    0
hbond:ARG:93    0
Name: 34, dtype: object

>  <pication:ARG:93>  (35) 
pication:ARG:93    0
pication:ARG:93    0
Name: 34, dtype: object

>  <saltbridge:ARG:93>  (35) 
saltbridge:ARG:93    0
saltbridge:ARG:93    0
Name: 34, dtype: object

>  <hydroph_interaction:ARG:93>  (35) 
hydroph_interaction:ARG:93    0
hydroph_interaction:ARG:93    0
Name: 34, dtype: object

>  <halogenbond:ARG:93>  (35) 
halogenbond:ARG:93    0
halogenbond:ARG:93    0
Name: 34, dtype: object

>  <hydroph_interaction:TYR:94>  (35) 
hydroph_interaction:TYR:94    0
hydroph_interaction:TYR:94    0
Name: 34, dtype: object

>  <hbond:TYR:94>  (35) 
hbond:TYR:94    0
hbond:TYR:94    0
Name: 34, dtype: object

>  <halogenbond:GLN:95>  (35) 
halogenbond:GLN:95    0
halogenbond:GLN:95    0
Name: 34, dtype: object

>  <hbond:GLN:95>  (35) 
hbond:GLN:95    0
hbond:GLN:95    0
Name: 34, dtype: object

>  <hydroph_interaction:GLN:95>  (35) 
hydroph_interaction:GLN:95    0
hydroph_interaction:GLN:95    0
Name: 34, dtype: object

>  <hbond:SER:96>  (35) 
hbond:SER:96    0
hbond:SER:96    0
Name: 34, dtype: object

>  <hydroph_interaction:LEU:98>  (35) 
hydroph_interaction:LEU:98    0
hydroph_interaction:LEU:98    0
Name: 34, dtype: object

>  <hbond:LEU:98>  (35) 
hbond:LEU:98    0
hbond:LEU:98    0
Name: 34, dtype: object

>  <hbond:MET:99>  (35) 
hbond:MET:99    0
hbond:MET:99    0
Name: 34, dtype: object

>  <hydroph_interaction:MET:99>  (35) 
hydroph_interaction:MET:99    0
hydroph_interaction:MET:99    0
Name: 34, dtype: object

>  <halogenbond:MET:99>  (35) 
halogenbond:MET:99    0
halogenbond:MET:99    0
Name: 34, dtype: object

>  <hydroph_interaction:LEU:100>  (35) 
hydroph_interaction:LEU:100    0
hydroph_interaction:LEU:100    0
Name: 34, dtype: object

>  <hbond:LEU:100>  (35) 
hbond:LEU:100    0
hbond:LEU:100    0
Name: 34, dtype: object

>  <hbond:ALA:101>  (35) 
hbond:ALA:101    0
hbond:ALA:101    0
Name: 34, dtype: object

>  <hydroph_interaction:ALA:101>  (35) 
hydroph_interaction:ALA:101    0
hydroph_interaction:ALA:101    0
Name: 34, dtype: object

>  <hydroph_interaction:VAL:102>  (35) 
hydroph_interaction:VAL:102    0
hydroph_interaction:VAL:102    0
Name: 34, dtype: object

>  <hbond:VAL:102>  (35) 
hbond:VAL:102    0
hbond:VAL:102    0
Name: 34, dtype: object

>  <hbond:GLY:103>  (35) 
hbond:GLY:103    0
hbond:GLY:103    0
Name: 34, dtype: object

>  <halogenbond:GLY:103>  (35) 
halogenbond:GLY:103    0
halogenbond:GLY:103    0
Name: 34, dtype: object

>  <hydroph_interaction:HIS:104>  (35) 
hydroph_interaction:HIS:104    0
hydroph_interaction:HIS:104    0
Name: 34, dtype: object

>  <hbond:HIS:104>  (35) 
hbond:HIS:104    0
hbond:HIS:104    0
Name: 34, dtype: object

>  <saltbridge:HIS:104>  (35) 
saltbridge:HIS:104    0
saltbridge:HIS:104    0
Name: 34, dtype: object

>  <pication:HIS:104>  (35) 
pication:HIS:104    0
pication:HIS:104    0
Name: 34, dtype: object

>  <pistack:HIS:104>  (35) 
pistack:HIS:104    0
pistack:HIS:104    0
Name: 34, dtype: object

>  <halogenbond:HIS:104>  (35) 
halogenbond:HIS:104    0
halogenbond:HIS:104    0
Name: 34, dtype: object

>  <hbond:SER:105>  (35) 
hbond:SER:105    0
hbond:SER:105    0
Name: 34, dtype: object

>  <halogenbond:SER:105>  (35) 
halogenbond:SER:105    0
halogenbond:SER:105    0
Name: 34, dtype: object

>  <hbond:GLU:106>  (35) 
hbond:GLU:106    0
hbond:GLU:106    0
Name: 34, dtype: object

>  <hydroph_interaction:GLU:106>  (35) 
hydroph_interaction:GLU:106    0
hydroph_interaction:GLU:106    0
Name: 34, dtype: object

>  <saltbridge:GLU:106>  (35) 
saltbridge:GLU:106    0
saltbridge:GLU:106    0
Name: 34, dtype: object

>  <halogenbond:GLU:106>  (35) 
halogenbond:GLU:106    0
halogenbond:GLU:106    0
Name: 34, dtype: object

>  <hydroph_interaction:PRO:107>  (35) 
hydroph_interaction:PRO:107    1
hydroph_interaction:PRO:107    1
Name: 34, dtype: object

>  <hbond:PRO:107>  (35) 
hbond:PRO:107    0
hbond:PRO:107    0
Name: 34, dtype: object

>  <halogenbond:PRO:107>  (35) 
halogenbond:PRO:107    0
halogenbond:PRO:107    0
Name: 34, dtype: object

>  <hbond:GLY:108>  (35) 
hbond:GLY:108    0
hbond:GLY:108    0
Name: 34, dtype: object

>  <halogenbond:GLY:108>  (35) 
halogenbond:GLY:108    0
halogenbond:GLY:108    0
Name: 34, dtype: object

>  <hbond:ASP:109>  (35) 
hbond:ASP:109    0
hbond:ASP:109    0
Name: 34, dtype: object

>  <hydroph_interaction:ASP:109>  (35) 
hydroph_interaction:ASP:109    0
hydroph_interaction:ASP:109    0
Name: 34, dtype: object

>  <saltbridge:ASP:109>  (35) 
saltbridge:ASP:109    0
saltbridge:ASP:109    0
Name: 34, dtype: object

>  <hbond:CYS:110>  (35) 
hbond:CYS:110    0
hbond:CYS:110    0
Name: 34, dtype: object

>  <halogenbond:CYS:110>  (35) 
halogenbond:CYS:110    0
halogenbond:CYS:110    0
Name: 34, dtype: object

>  <hbond:GLY:111>  (35) 
hbond:GLY:111    0
hbond:GLY:111    0
Name: 34, dtype: object

>  <hbond:GLY:112>  (35) 
hbond:GLY:112    0
hbond:GLY:112    0
Name: 34, dtype: object

>  <hbond:ILE:113>  (35) 
hbond:ILE:113    0
hbond:ILE:113    0
Name: 34, dtype: object

>  <hydroph_interaction:LEU:114>  (35) 
hydroph_interaction:LEU:114    0
hydroph_interaction:LEU:114    0
Name: 34, dtype: object

>  <hbond:LEU:114>  (35) 
hbond:LEU:114    0
hbond:LEU:114    0
Name: 34, dtype: object

>  <hydroph_interaction:ILE:123>  (35) 
hydroph_interaction:ILE:123    0
hydroph_interaction:ILE:123    0
Name: 34, dtype: object

>  <hbond:ILE:123>  (35) 
hbond:ILE:123    0
hbond:ILE:123    0
Name: 34, dtype: object

>  <hydroph_interaction:VAL:124>  (35) 
hydroph_interaction:VAL:124    1
hydroph_interaction:VAL:124    1
Name: 34, dtype: object

>  <hbond:VAL:124>  (35) 
hbond:VAL:124    0
hbond:VAL:124    0
Name: 34, dtype: object

>  <halogenbond:VAL:124>  (35) 
halogenbond:VAL:124    0
halogenbond:VAL:124    0
Name: 34, dtype: object

>  <hbond:SER:125>  (35) 
hbond:SER:125    0
hbond:SER:125    0
Name: 34, dtype: object

>  <halogenbond:SER:125>  (35) 
halogenbond:SER:125    0
halogenbond:SER:125    0
Name: 34, dtype: object

>  <hydroph_interaction:THR:126>  (35) 
hydroph_interaction:THR:126    0
hydroph_interaction:THR:126    0
Name: 34, dtype: object

>  <hbond:THR:126>  (35) 
hbond:THR:126    0
hbond:THR:126    0
Name: 34, dtype: object

>  <halogenbond:THR:126>  (35) 
halogenbond:THR:126    0
halogenbond:THR:126    0
Name: 34, dtype: object

>  <hbond:GLY:127>  (35) 
hbond:GLY:127    0
hbond:GLY:127    0
Name: 34, dtype: object

>  <halogenbond:GLY:127>  (35) 
halogenbond:GLY:127    0
halogenbond:GLY:127    0
Name: 34, dtype: object

>  <hydroph_interaction:GLY:127>  (35) 
hydroph_interaction:GLY:127    0
hydroph_interaction:GLY:127    0
Name: 34, dtype: object

>  <hbond:GLY:128>  (35) 
hbond:GLY:128    0
hbond:GLY:128    0
Name: 34, dtype: object

>  <halogenbond:GLY:128>  (35) 
halogenbond:GLY:128    0
halogenbond:GLY:128    0
Name: 34, dtype: object

>  <hydroph_interaction:GLY:128>  (35) 
hydroph_interaction:GLY:128    0
hydroph_interaction:GLY:128    0
Name: 34, dtype: object

>  <hbond:ASN:129>  (35) 
hbond:ASN:129    0
hbond:ASN:129    0
Name: 34, dtype: object

>  <hydroph_interaction:ASN:129>  (35) 
hydroph_interaction:ASN:129    0
hydroph_interaction:ASN:129    0
Name: 34, dtype: object

>  <halogenbond:ASN:129>  (35) 
halogenbond:ASN:129    0
halogenbond:ASN:129    0
Name: 34, dtype: object

>  <hbond:GLY:130>  (35) 
hbond:GLY:130    0
hbond:GLY:130    0
Name: 34, dtype: object

>  <hydroph_interaction:LEU:131>  (35) 
hydroph_interaction:LEU:131    0
hydroph_interaction:LEU:131    0
Name: 34, dtype: object

>  <hbond:LEU:131>  (35) 
hbond:LEU:131    0
hbond:LEU:131    0
Name: 34, dtype: object

>  <halogenbond:LEU:131>  (35) 
halogenbond:LEU:131    0
halogenbond:LEU:131    0
Name: 34, dtype: object

>  <hydroph_interaction:VAL:132>  (35) 
hydroph_interaction:VAL:132    0
hydroph_interaction:VAL:132    0
Name: 34, dtype: object

>  <hbond:VAL:132>  (35) 
hbond:VAL:132    0
hbond:VAL:132    0
Name: 34, dtype: object

>  <hbond:GLY:133>  (35) 
hbond:GLY:133    0
hbond:GLY:133    0
Name: 34, dtype: object

>  <halogenbond:GLY:133>  (35) 
halogenbond:GLY:133    0
halogenbond:GLY:133    0
Name: 34, dtype: object

>  <hydroph_interaction:PHE:134>  (35) 
hydroph_interaction:PHE:134    0
hydroph_interaction:PHE:134    0
Name: 34, dtype: object

>  <hbond:PHE:134>  (35) 
hbond:PHE:134    0
hbond:PHE:134    0
Name: 34, dtype: object

>  <pistack:PHE:134>  (35) 
pistack:PHE:134    0
pistack:PHE:134    0
Name: 34, dtype: object

>  <pication:PHE:134>  (35) 
pication:PHE:134    0
pication:PHE:134    0
Name: 34, dtype: object

>  <hydroph_interaction:ALA:135>  (35) 
hydroph_interaction:ALA:135    0
hydroph_interaction:ALA:135    0
Name: 34, dtype: object

>  <hbond:ALA:135>  (35) 
hbond:ALA:135    0
hbond:ALA:135    0
Name: 34, dtype: object

$$$$
Z1335009889
     RDKit          3D

 36 37  0  0  0  0  0  0  0  0999 V2000
   10.1680    9.0790   22.5930 C   0  0  0  0  0  0  0  0  0  0  0  0
    9.6310   10.2580   23.3330 C   0  0  0  0  0  0  0  0  0  0  0  0
   10.1890   11.5160   23.1720 C   0  0  0  0  0  0  0  0  0  0  0  0
    9.6910   12.6160   23.8810 C   0  0  0  0  0  0  0  0  0  0  0  0
   10.3890   13.9310   23.6610 C   0  0  0  0  0  0  0  0  0  0  0  0
    8.5860   12.4240   24.7540 C   0  0  0  0  0  0  0  0  0  0  0  0
    8.0460   13.5120   25.4970 N   0  0  0  0  0  0  0  0  0  0  0  0
    7.4090   14.6390   25.0170 C   0  0  0  0  0  0  0  0  0  0  0  0
    7.0710   14.8360   23.8560 O   0  0  0  0  0  0  0  0  0  0  0  0
    7.1540   15.6700   26.1200 C   0  0  1  0  0  0  0  0  0  0  0  0
    6.1750   15.2090   27.2130 C   0  0  0  0  0  0  0  0  0  0  0  0
    6.5890   15.9290   28.4820 C   0  0  0  0  0  0  0  0  0  0  0  0
    7.9600   16.4700   28.1520 C   0  0  0  0  0  0  0  0  0  0  0  0
    8.5080   17.1730   28.9790 O   0  0  0  0  0  0  0  0  0  0  0  0
    8.3380   16.0340   26.8940 N   0  0  0  0  0  0  0  0  0  0  0  0
    8.0070   11.1650   24.9140 C   0  0  0  0  0  0  0  0  0  0  0  0
    6.8320   10.9360   25.8170 C   0  0  0  0  0  0  0  0  0  0  0  0
    8.5540   10.0990   24.2010 C   0  0  0  0  0  0  0  0  0  0  0  0
    9.3490    8.4420   22.2600 H   0  0  0  0  0  0  0  0  0  0  0  0
   10.7300    9.4010   21.7140 H   0  0  0  0  0  0  0  0  0  0  0  0
   10.8510    8.4910   23.2150 H   0  0  0  0  0  0  0  0  0  0  0  0
   11.0260   11.6470   22.4940 H   0  0  0  0  0  0  0  0  0  0  0  0
   10.3000   14.5850   24.5350 H   0  0  0  0  0  0  0  0  0  0  0  0
    9.9490   14.4530   22.8060 H   0  0  0  0  0  0  0  0  0  0  0  0
   11.4570   13.7660   23.4840 H   0  0  0  0  0  0  0  0  0  0  0  0
    7.8080   13.2980   26.4560 H   0  0  0  0  0  0  0  0  0  0  0  0
    6.7280   16.5740   25.6620 H   0  0  0  0  0  0  0  0  0  0  0  0
    6.2290   14.1230   27.3640 H   0  0  0  0  0  0  0  0  0  0  0  0
    5.1410   15.4550   26.9460 H   0  0  0  0  0  0  0  0  0  0  0  0
    5.8880   16.7320   28.7380 H   0  0  0  0  0  0  0  0  0  0  0  0
    6.6440   15.2210   29.3160 H   0  0  0  0  0  0  0  0  0  0  0  0
    9.1650   16.4460   26.4870 H   0  0  0  0  0  0  0  0  0  0  0  0
    6.1190   11.7620   25.7180 H   0  0  0  0  0  0  0  0  0  0  0  0
    7.1130   10.8570   26.8650 H   0  0  0  0  0  0  0  0  0  0  0  0
    6.3310   10.0020   25.5560 H   0  0  0  0  0  0  0  0  0  0  0  0
    8.1210    9.1060   24.3220 H   0  0  0  0  0  0  0  0  0  0  0  0
  1  2  1  0
  2  3  2  0
  3  4  1  0
  4  5  1  0
  4  6  2  0
  6  7  1  0
  7  8  1  0
  8  9  2  0
  8 10  1  0
 10 11  1  0
 11 12  1  0
 12 13  1  0
 13 14  2  0
 13 15  1  0
  6 16  1  0
 16 17  1  0
 16 18  2  0
 18  2  1  0
 15 10  1  0
  1 19  1  0
  1 20  1  0
  1 21  1  0
  3 22  1  0
  5 23  1  0
  5 24  1  0
  5 25  1  0
  7 26  1  0
 10 27  1  6
 11 28  1  0
 11 29  1  0
 12 30  1  0
 12 31  1  0
 15 32  1  0
 17 33  1  0
 17 34  1  0
 17 35  1  0
 18 36  1  0
A    1
 C1 
A    2
 C2 
A    3
 C3 
A    4
 C4 
A    5
 C5 
A    6
 C6 
A    7
 N1 
A    8
 C7 
A    9
 O1 
A   10
 C8 
A   11
 C9 
A   12
 C10
A   13
 C11
A   14
 O2 
A   15
 N2 
A   16
 C12
A   17
 C13
A   18
 C14
A   19
 H1 
A   20
 H2 
A   21
 H3 
A   22
 H4 
A   23
 H5 
A   24
 H6 
A   25
 H7 
A   26
 H8 
A   27
 H9 
A   28
 H10
A   29
 H11
A   30
 H12
A   31
 H13
A   32
 H14
A   33
 H15
A   34
 H16
A   35
 H17
A   36
 H18
M  END
>  <ref_pdb>  (36) 
x0310_0A

>  <ref_mols>  (36) 
x0554_0A,x0812_0A,x0416_0A

>  <original SMILES>  (36) 
Cc1cc(C)c(NC(=O)[C@H]2CCC(=O)N2)c(C)c1

>  <rationale>  (36) 
info hbond:E88; hydroph_interaction:P107+V124; 

>  <intxn_cluster>  (36) 
103

>  <intxn_cluster_rank>  (36) 
141

>  <N_interactions>  (36) 
3

>  <∆∆G>  (36) 
-10.102999

>  <$/mg>  (36) 
163.0

>  <comRMSD>  (36) 
0.858812

>  <N_rotatable_bonds>  (36) 
5

>  <hbond:SER:7>  (36) 
hbond:SER:7    0
hbond:SER:7    0
Name: 35, dtype: object

>  <halogenbond:SER:7>  (36) 
halogenbond:SER:7    0
halogenbond:SER:7    0
Name: 35, dtype: object

>  <hbond:GLY:8>  (36) 
hbond:GLY:8    0
hbond:GLY:8    0
Name: 35, dtype: object

>  <hydroph_interaction:ASN:19>  (36) 
hydroph_interaction:ASN:19    0
hydroph_interaction:ASN:19    0
Name: 35, dtype: object

>  <hbond:ASN:19>  (36) 
hbond:ASN:19    0
hbond:ASN:19    0
Name: 35, dtype: object

>  <halogenbond:ASN:19>  (36) 
halogenbond:ASN:19    0
halogenbond:ASN:19    0
Name: 35, dtype: object

>  <hbond:ARG:20>  (36) 
hbond:ARG:20    0
hbond:ARG:20    0
Name: 35, dtype: object

>  <hydroph_interaction:ARG:20>  (36) 
hydroph_interaction:ARG:20    0
hydroph_interaction:ARG:20    0
Name: 35, dtype: object

>  <saltbridge:ARG:20>  (36) 
saltbridge:ARG:20    0
saltbridge:ARG:20    0
Name: 35, dtype: object

>  <halogenbond:ARG:20>  (36) 
halogenbond:ARG:20    0
halogenbond:ARG:20    0
Name: 35, dtype: object

>  <pication:ARG:20>  (36) 
pication:ARG:20    0
pication:ARG:20    0
Name: 35, dtype: object

>  <hbond:HIS:21>  (36) 
hbond:HIS:21    0
hbond:HIS:21    0
Name: 35, dtype: object

>  <hydroph_interaction:HIS:21>  (36) 
hydroph_interaction:HIS:21    0
hydroph_interaction:HIS:21    0
Name: 35, dtype: object

>  <saltbridge:HIS:21>  (36) 
saltbridge:HIS:21    0
saltbridge:HIS:21    0
Name: 35, dtype: object

>  <pistack:HIS:21>  (36) 
pistack:HIS:21    0
pistack:HIS:21    0
Name: 35, dtype: object

>  <pication:HIS:21>  (36) 
pication:HIS:21    0
pication:HIS:21    0
Name: 35, dtype: object

>  <halogenbond:HIS:21>  (36) 
halogenbond:HIS:21    0
halogenbond:HIS:21    0
Name: 35, dtype: object

>  <hydroph_interaction:LEU:22>  (36) 
hydroph_interaction:LEU:22    0
hydroph_interaction:LEU:22    0
Name: 35, dtype: object

>  <hbond:LEU:22>  (36) 
hbond:LEU:22    0
hbond:LEU:22    0
Name: 35, dtype: object

>  <hydroph_interaction:TRP:28>  (36) 
hydroph_interaction:TRP:28    0
hydroph_interaction:TRP:28    0
Name: 35, dtype: object

>  <hbond:SER:36>  (36) 
hbond:SER:36    0
hbond:SER:36    0
Name: 35, dtype: object

>  <halogenbond:SER:36>  (36) 
halogenbond:SER:36    0
halogenbond:SER:36    0
Name: 35, dtype: object

>  <hbond:ARG:38>  (36) 
hbond:ARG:38    0
hbond:ARG:38    0
Name: 35, dtype: object

>  <halogenbond:ARG:38>  (36) 
halogenbond:ARG:38    0
halogenbond:ARG:38    0
Name: 35, dtype: object

>  <hbond:ASP:39>  (36) 
hbond:ASP:39    0
hbond:ASP:39    0
Name: 35, dtype: object

>  <saltbridge:ASP:39>  (36) 
saltbridge:ASP:39    0
saltbridge:ASP:39    0
Name: 35, dtype: object

>  <hydroph_interaction:ASP:39>  (36) 
hydroph_interaction:ASP:39    0
hydroph_interaction:ASP:39    0
Name: 35, dtype: object

>  <halogenbond:ASP:39>  (36) 
halogenbond:ASP:39    0
halogenbond:ASP:39    0
Name: 35, dtype: object

>  <hydroph_interaction:LEU:40>  (36) 
hydroph_interaction:LEU:40    0
hydroph_interaction:LEU:40    0
Name: 35, dtype: object

>  <hydroph_interaction:TYR:63>  (36) 
hydroph_interaction:TYR:63    0
hydroph_interaction:TYR:63    0
Name: 35, dtype: object

>  <pistack:TYR:63>  (36) 
pistack:TYR:63    0
pistack:TYR:63    0
Name: 35, dtype: object

>  <hbond:TYR:63>  (36) 
hbond:TYR:63    0
hbond:TYR:63    0
Name: 35, dtype: object

>  <hbond:TYR:64>  (36) 
hbond:TYR:64    0
hbond:TYR:64    0
Name: 35, dtype: object

>  <halogenbond:TYR:64>  (36) 
halogenbond:TYR:64    0
halogenbond:TYR:64    0
Name: 35, dtype: object

>  <hydroph_interaction:TYR:64>  (36) 
hydroph_interaction:TYR:64    0
hydroph_interaction:TYR:64    0
Name: 35, dtype: object

>  <hbond:CYS:65>  (36) 
hbond:CYS:65    0
hbond:CYS:65    0
Name: 35, dtype: object

>  <halogenbond:CYS:65>  (36) 
halogenbond:CYS:65    0
halogenbond:CYS:65    0
Name: 35, dtype: object

>  <hbond:SER:66>  (36) 
hbond:SER:66    0
hbond:SER:66    0
Name: 35, dtype: object

>  <hbond:SER:67>  (36) 
hbond:SER:67    0
hbond:SER:67    0
Name: 35, dtype: object

>  <halogenbond:SER:67>  (36) 
halogenbond:SER:67    0
halogenbond:SER:67    0
Name: 35, dtype: object

>  <hydroph_interaction:ARG:68>  (36) 
hydroph_interaction:ARG:68    0
hydroph_interaction:ARG:68    0
Name: 35, dtype: object

>  <hbond:ARG:68>  (36) 
hbond:ARG:68    0
hbond:ARG:68    0
Name: 35, dtype: object

>  <saltbridge:ARG:68>  (36) 
saltbridge:ARG:68    0
saltbridge:ARG:68    0
Name: 35, dtype: object

>  <pication:ARG:68>  (36) 
pication:ARG:68    0
pication:ARG:68    0
Name: 35, dtype: object

>  <hydroph_interaction:TYR:72>  (36) 
hydroph_interaction:TYR:72    0
hydroph_interaction:TYR:72    0
Name: 35, dtype: object

>  <hydroph_interaction:VAL:74>  (36) 
hydroph_interaction:VAL:74    0
hydroph_interaction:VAL:74    0
Name: 35, dtype: object

>  <hydroph_interaction:PHE:76>  (36) 
hydroph_interaction:PHE:76    0
hydroph_interaction:PHE:76    0
Name: 35, dtype: object

>  <hbond:SER:77>  (36) 
hbond:SER:77    0
hbond:SER:77    0
Name: 35, dtype: object

>  <hbond:SER:80>  (36) 
hbond:SER:80    0
hbond:SER:80    0
Name: 35, dtype: object

>  <hbond:LEU:81>  (36) 
hbond:LEU:81    0
hbond:LEU:81    0
Name: 35, dtype: object

>  <halogenbond:LEU:81>  (36) 
halogenbond:LEU:81    0
halogenbond:LEU:81    0
Name: 35, dtype: object

>  <hydroph_interaction:LEU:81>  (36) 
hydroph_interaction:LEU:81    0
hydroph_interaction:LEU:81    0
Name: 35, dtype: object

>  <hydroph_interaction:ILE:82>  (36) 
hydroph_interaction:ILE:82    0
hydroph_interaction:ILE:82    0
Name: 35, dtype: object

>  <hbond:ILE:82>  (36) 
hbond:ILE:82    0
hbond:ILE:82    0
Name: 35, dtype: object

>  <hydroph_interaction:PHE:83>  (36) 
hydroph_interaction:PHE:83    0
hydroph_interaction:PHE:83    0
Name: 35, dtype: object

>  <hbond:PHE:83>  (36) 
hbond:PHE:83    0
hbond:PHE:83    0
Name: 35, dtype: object

>  <halogenbond:PHE:83>  (36) 
halogenbond:PHE:83    0
halogenbond:PHE:83    0
Name: 35, dtype: object

>  <pistack:PHE:83>  (36) 
pistack:PHE:83    0
pistack:PHE:83    0
Name: 35, dtype: object

>  <hydroph_interaction:VAL:84>  (36) 
hydroph_interaction:VAL:84    0
hydroph_interaction:VAL:84    0
Name: 35, dtype: object

>  <hbond:VAL:84>  (36) 
hbond:VAL:84    0
hbond:VAL:84    0
Name: 35, dtype: object

>  <halogenbond:VAL:84>  (36) 
halogenbond:VAL:84    0
halogenbond:VAL:84    0
Name: 35, dtype: object

>  <hydroph_interaction:GLU:85>  (36) 
hydroph_interaction:GLU:85    0
hydroph_interaction:GLU:85    0
Name: 35, dtype: object

>  <hbond:GLU:85>  (36) 
hbond:GLU:85    0
hbond:GLU:85    0
Name: 35, dtype: object

>  <saltbridge:GLU:85>  (36) 
saltbridge:GLU:85    0
saltbridge:GLU:85    0
Name: 35, dtype: object

>  <halogenbond:GLU:85>  (36) 
halogenbond:GLU:85    0
halogenbond:GLU:85    0
Name: 35, dtype: object

>  <hbond:ALA:86>  (36) 
hbond:ALA:86    0
hbond:ALA:86    0
Name: 35, dtype: object

>  <halogenbond:ALA:86>  (36) 
halogenbond:ALA:86    0
halogenbond:ALA:86    0
Name: 35, dtype: object

>  <hydroph_interaction:ALA:86>  (36) 
hydroph_interaction:ALA:86    0
hydroph_interaction:ALA:86    0
Name: 35, dtype: object

>  <hbond:SER:87>  (36) 
hbond:SER:87    0
hbond:SER:87    0
Name: 35, dtype: object

>  <halogenbond:SER:87>  (36) 
halogenbond:SER:87    0
halogenbond:SER:87    0
Name: 35, dtype: object

>  <hbond:GLU:88>  (36) 
hbond:GLU:88    1
hbond:GLU:88    1
Name: 35, dtype: object

>  <hydroph_interaction:GLU:88>  (36) 
hydroph_interaction:GLU:88    0
hydroph_interaction:GLU:88    0
Name: 35, dtype: object

>  <halogenbond:GLU:88>  (36) 
halogenbond:GLU:88    0
halogenbond:GLU:88    0
Name: 35, dtype: object

>  <saltbridge:GLU:88>  (36) 
saltbridge:GLU:88    0
saltbridge:GLU:88    0
Name: 35, dtype: object

>  <hydroph_interaction:TYR:89>  (36) 
hydroph_interaction:TYR:89    0
hydroph_interaction:TYR:89    0
Name: 35, dtype: object

>  <pistack:TYR:89>  (36) 
pistack:TYR:89    0
pistack:TYR:89    0
Name: 35, dtype: object

>  <hbond:TYR:89>  (36) 
hbond:TYR:89    0
hbond:TYR:89    0
Name: 35, dtype: object

>  <halogenbond:TYR:89>  (36) 
halogenbond:TYR:89    0
halogenbond:TYR:89    0
Name: 35, dtype: object

>  <hbond:TYR:90>  (36) 
hbond:TYR:90    0
hbond:TYR:90    0
Name: 35, dtype: object

>  <hydroph_interaction:TYR:90>  (36) 
hydroph_interaction:TYR:90    0
hydroph_interaction:TYR:90    0
Name: 35, dtype: object

>  <pistack:TYR:90>  (36) 
pistack:TYR:90    0
pistack:TYR:90    0
Name: 35, dtype: object

>  <halogenbond:TYR:90>  (36) 
halogenbond:TYR:90    0
halogenbond:TYR:90    0
Name: 35, dtype: object

>  <pication:TYR:90>  (36) 
pication:TYR:90    0
pication:TYR:90    0
Name: 35, dtype: object

>  <hydroph_interaction:PRO:91>  (36) 
hydroph_interaction:PRO:91    0
hydroph_interaction:PRO:91    0
Name: 35, dtype: object

>  <halogenbond:PRO:91>  (36) 
halogenbond:PRO:91    0
halogenbond:PRO:91    0
Name: 35, dtype: object

>  <hbond:PRO:91>  (36) 
hbond:PRO:91    0
hbond:PRO:91    0
Name: 35, dtype: object

>  <hydroph_interaction:ALA:92>  (36) 
hydroph_interaction:ALA:92    0
hydroph_interaction:ALA:92    0
Name: 35, dtype: object

>  <hbond:ARG:93>  (36) 
hbond:ARG:93    0
hbond:ARG:93    0
Name: 35, dtype: object

>  <pication:ARG:93>  (36) 
pication:ARG:93    0
pication:ARG:93    0
Name: 35, dtype: object

>  <saltbridge:ARG:93>  (36) 
saltbridge:ARG:93    0
saltbridge:ARG:93    0
Name: 35, dtype: object

>  <hydroph_interaction:ARG:93>  (36) 
hydroph_interaction:ARG:93    0
hydroph_interaction:ARG:93    0
Name: 35, dtype: object

>  <halogenbond:ARG:93>  (36) 
halogenbond:ARG:93    0
halogenbond:ARG:93    0
Name: 35, dtype: object

>  <hydroph_interaction:TYR:94>  (36) 
hydroph_interaction:TYR:94    0
hydroph_interaction:TYR:94    0
Name: 35, dtype: object

>  <hbond:TYR:94>  (36) 
hbond:TYR:94    0
hbond:TYR:94    0
Name: 35, dtype: object

>  <halogenbond:GLN:95>  (36) 
halogenbond:GLN:95    0
halogenbond:GLN:95    0
Name: 35, dtype: object

>  <hbond:GLN:95>  (36) 
hbond:GLN:95    0
hbond:GLN:95    0
Name: 35, dtype: object

>  <hydroph_interaction:GLN:95>  (36) 
hydroph_interaction:GLN:95    0
hydroph_interaction:GLN:95    0
Name: 35, dtype: object

>  <hbond:SER:96>  (36) 
hbond:SER:96    0
hbond:SER:96    0
Name: 35, dtype: object

>  <hydroph_interaction:LEU:98>  (36) 
hydroph_interaction:LEU:98    0
hydroph_interaction:LEU:98    0
Name: 35, dtype: object

>  <hbond:LEU:98>  (36) 
hbond:LEU:98    0
hbond:LEU:98    0
Name: 35, dtype: object

>  <hbond:MET:99>  (36) 
hbond:MET:99    0
hbond:MET:99    0
Name: 35, dtype: object

>  <hydroph_interaction:MET:99>  (36) 
hydroph_interaction:MET:99    0
hydroph_interaction:MET:99    0
Name: 35, dtype: object

>  <halogenbond:MET:99>  (36) 
halogenbond:MET:99    0
halogenbond:MET:99    0
Name: 35, dtype: object

>  <hydroph_interaction:LEU:100>  (36) 
hydroph_interaction:LEU:100    0
hydroph_interaction:LEU:100    0
Name: 35, dtype: object

>  <hbond:LEU:100>  (36) 
hbond:LEU:100    0
hbond:LEU:100    0
Name: 35, dtype: object

>  <hbond:ALA:101>  (36) 
hbond:ALA:101    0
hbond:ALA:101    0
Name: 35, dtype: object

>  <hydroph_interaction:ALA:101>  (36) 
hydroph_interaction:ALA:101    0
hydroph_interaction:ALA:101    0
Name: 35, dtype: object

>  <hydroph_interaction:VAL:102>  (36) 
hydroph_interaction:VAL:102    0
hydroph_interaction:VAL:102    0
Name: 35, dtype: object

>  <hbond:VAL:102>  (36) 
hbond:VAL:102    0
hbond:VAL:102    0
Name: 35, dtype: object

>  <hbond:GLY:103>  (36) 
hbond:GLY:103    0
hbond:GLY:103    0
Name: 35, dtype: object

>  <halogenbond:GLY:103>  (36) 
halogenbond:GLY:103    0
halogenbond:GLY:103    0
Name: 35, dtype: object

>  <hydroph_interaction:HIS:104>  (36) 
hydroph_interaction:HIS:104    0
hydroph_interaction:HIS:104    0
Name: 35, dtype: object

>  <hbond:HIS:104>  (36) 
hbond:HIS:104    0
hbond:HIS:104    0
Name: 35, dtype: object

>  <saltbridge:HIS:104>  (36) 
saltbridge:HIS:104    0
saltbridge:HIS:104    0
Name: 35, dtype: object

>  <pication:HIS:104>  (36) 
pication:HIS:104    0
pication:HIS:104    0
Name: 35, dtype: object

>  <pistack:HIS:104>  (36) 
pistack:HIS:104    0
pistack:HIS:104    0
Name: 35, dtype: object

>  <halogenbond:HIS:104>  (36) 
halogenbond:HIS:104    0
halogenbond:HIS:104    0
Name: 35, dtype: object

>  <hbond:SER:105>  (36) 
hbond:SER:105    0
hbond:SER:105    0
Name: 35, dtype: object

>  <halogenbond:SER:105>  (36) 
halogenbond:SER:105    0
halogenbond:SER:105    0
Name: 35, dtype: object

>  <hbond:GLU:106>  (36) 
hbond:GLU:106    0
hbond:GLU:106    0
Name: 35, dtype: object

>  <hydroph_interaction:GLU:106>  (36) 
hydroph_interaction:GLU:106    0
hydroph_interaction:GLU:106    0
Name: 35, dtype: object

>  <saltbridge:GLU:106>  (36) 
saltbridge:GLU:106    0
saltbridge:GLU:106    0
Name: 35, dtype: object

>  <halogenbond:GLU:106>  (36) 
halogenbond:GLU:106    0
halogenbond:GLU:106    0
Name: 35, dtype: object

>  <hydroph_interaction:PRO:107>  (36) 
hydroph_interaction:PRO:107    1
hydroph_interaction:PRO:107    1
Name: 35, dtype: object

>  <hbond:PRO:107>  (36) 
hbond:PRO:107    0
hbond:PRO:107    0
Name: 35, dtype: object

>  <halogenbond:PRO:107>  (36) 
halogenbond:PRO:107    0
halogenbond:PRO:107    0
Name: 35, dtype: object

>  <hbond:GLY:108>  (36) 
hbond:GLY:108    0
hbond:GLY:108    0
Name: 35, dtype: object

>  <halogenbond:GLY:108>  (36) 
halogenbond:GLY:108    0
halogenbond:GLY:108    0
Name: 35, dtype: object

>  <hbond:ASP:109>  (36) 
hbond:ASP:109    0
hbond:ASP:109    0
Name: 35, dtype: object

>  <hydroph_interaction:ASP:109>  (36) 
hydroph_interaction:ASP:109    0
hydroph_interaction:ASP:109    0
Name: 35, dtype: object

>  <saltbridge:ASP:109>  (36) 
saltbridge:ASP:109    0
saltbridge:ASP:109    0
Name: 35, dtype: object

>  <hbond:CYS:110>  (36) 
hbond:CYS:110    0
hbond:CYS:110    0
Name: 35, dtype: object

>  <halogenbond:CYS:110>  (36) 
halogenbond:CYS:110    0
halogenbond:CYS:110    0
Name: 35, dtype: object

>  <hbond:GLY:111>  (36) 
hbond:GLY:111    0
hbond:GLY:111    0
Name: 35, dtype: object

>  <hbond:GLY:112>  (36) 
hbond:GLY:112    0
hbond:GLY:112    0
Name: 35, dtype: object

>  <hbond:ILE:113>  (36) 
hbond:ILE:113    0
hbond:ILE:113    0
Name: 35, dtype: object

>  <hydroph_interaction:LEU:114>  (36) 
hydroph_interaction:LEU:114    0
hydroph_interaction:LEU:114    0
Name: 35, dtype: object

>  <hbond:LEU:114>  (36) 
hbond:LEU:114    0
hbond:LEU:114    0
Name: 35, dtype: object

>  <hydroph_interaction:ILE:123>  (36) 
hydroph_interaction:ILE:123    0
hydroph_interaction:ILE:123    0
Name: 35, dtype: object

>  <hbond:ILE:123>  (36) 
hbond:ILE:123    0
hbond:ILE:123    0
Name: 35, dtype: object

>  <hydroph_interaction:VAL:124>  (36) 
hydroph_interaction:VAL:124    1
hydroph_interaction:VAL:124    1
Name: 35, dtype: object

>  <hbond:VAL:124>  (36) 
hbond:VAL:124    0
hbond:VAL:124    0
Name: 35, dtype: object

>  <halogenbond:VAL:124>  (36) 
halogenbond:VAL:124    0
halogenbond:VAL:124    0
Name: 35, dtype: object

>  <hbond:SER:125>  (36) 
hbond:SER:125    0
hbond:SER:125    0
Name: 35, dtype: object

>  <halogenbond:SER:125>  (36) 
halogenbond:SER:125    0
halogenbond:SER:125    0
Name: 35, dtype: object

>  <hydroph_interaction:THR:126>  (36) 
hydroph_interaction:THR:126    0
hydroph_interaction:THR:126    0
Name: 35, dtype: object

>  <hbond:THR:126>  (36) 
hbond:THR:126    0
hbond:THR:126    0
Name: 35, dtype: object

>  <halogenbond:THR:126>  (36) 
halogenbond:THR:126    0
halogenbond:THR:126    0
Name: 35, dtype: object

>  <hbond:GLY:127>  (36) 
hbond:GLY:127    0
hbond:GLY:127    0
Name: 35, dtype: object

>  <halogenbond:GLY:127>  (36) 
halogenbond:GLY:127    0
halogenbond:GLY:127    0
Name: 35, dtype: object

>  <hydroph_interaction:GLY:127>  (36) 
hydroph_interaction:GLY:127    0
hydroph_interaction:GLY:127    0
Name: 35, dtype: object

>  <hbond:GLY:128>  (36) 
hbond:GLY:128    0
hbond:GLY:128    0
Name: 35, dtype: object

>  <halogenbond:GLY:128>  (36) 
halogenbond:GLY:128    0
halogenbond:GLY:128    0
Name: 35, dtype: object

>  <hydroph_interaction:GLY:128>  (36) 
hydroph_interaction:GLY:128    0
hydroph_interaction:GLY:128    0
Name: 35, dtype: object

>  <hbond:ASN:129>  (36) 
hbond:ASN:129    0
hbond:ASN:129    0
Name: 35, dtype: object

>  <hydroph_interaction:ASN:129>  (36) 
hydroph_interaction:ASN:129    0
hydroph_interaction:ASN:129    0
Name: 35, dtype: object

>  <halogenbond:ASN:129>  (36) 
halogenbond:ASN:129    0
halogenbond:ASN:129    0
Name: 35, dtype: object

>  <hbond:GLY:130>  (36) 
hbond:GLY:130    0
hbond:GLY:130    0
Name: 35, dtype: object

>  <hydroph_interaction:LEU:131>  (36) 
hydroph_interaction:LEU:131    0
hydroph_interaction:LEU:131    0
Name: 35, dtype: object

>  <hbond:LEU:131>  (36) 
hbond:LEU:131    0
hbond:LEU:131    0
Name: 35, dtype: object

>  <halogenbond:LEU:131>  (36) 
halogenbond:LEU:131    0
halogenbond:LEU:131    0
Name: 35, dtype: object

>  <hydroph_interaction:VAL:132>  (36) 
hydroph_interaction:VAL:132    0
hydroph_interaction:VAL:132    0
Name: 35, dtype: object

>  <hbond:VAL:132>  (36) 
hbond:VAL:132    0
hbond:VAL:132    0
Name: 35, dtype: object

>  <hbond:GLY:133>  (36) 
hbond:GLY:133    0
hbond:GLY:133    0
Name: 35, dtype: object

>  <halogenbond:GLY:133>  (36) 
halogenbond:GLY:133    0
halogenbond:GLY:133    0
Name: 35, dtype: object

>  <hydroph_interaction:PHE:134>  (36) 
hydroph_interaction:PHE:134    0
hydroph_interaction:PHE:134    0
Name: 35, dtype: object

>  <hbond:PHE:134>  (36) 
hbond:PHE:134    0
hbond:PHE:134    0
Name: 35, dtype: object

>  <pistack:PHE:134>  (36) 
pistack:PHE:134    0
pistack:PHE:134    0
Name: 35, dtype: object

>  <pication:PHE:134>  (36) 
pication:PHE:134    0
pication:PHE:134    0
Name: 35, dtype: object

>  <hydroph_interaction:ALA:135>  (36) 
hydroph_interaction:ALA:135    0
hydroph_interaction:ALA:135    0
Name: 35, dtype: object

>  <hbond:ALA:135>  (36) 
hbond:ALA:135    0
hbond:ALA:135    0
Name: 35, dtype: object

$$$$
PV_002863543806
     RDKit          3D

 29 30  0  0  0  0  0  0  0  0999 V2000
   12.0270   15.7090   21.5830 C   0  0  0  0  0  0  0  0  0  0  0  0
   11.1240   14.4800   21.8060 C   0  0  0  0  0  0  0  0  0  0  0  0
   10.7980   13.9490   23.2110 C   0  0  0  0  0  0  0  0  0  0  0  0
   11.4310   14.7340   24.3430 C   0  0  0  0  0  0  0  0  0  0  0  0
   10.0300   12.8140   23.4880 C   0  0  0  0  0  0  0  0  0  0  0  0
   10.3780   11.5870   22.8410 C   0  0  0  0  0  0  0  0  0  0  0  0
    9.5550   10.6390   23.2860 N   0  0  0  0  0  0  0  0  0  0  0  0
    9.6450    9.3460   22.8710 C   0  0  0  0  0  0  0  0  0  0  0  0
    8.6200   11.1950   24.2300 C   0  0  0  0  0  0  0  0  0  0  0  0
    7.5940   10.6100   24.9550 C   0  0  0  0  0  0  0  0  0  0  0  0
    6.8000   11.3730   25.8170 C   0  0  0  0  0  0  0  0  0  0  0  0
    7.0680   12.7340   25.9310 C   0  0  0  0  0  0  0  0  0  0  0  0
    6.3250   13.4920   26.7490 F   0  0  0  0  0  0  0  0  0  0  0  0
    8.1240   13.3210   25.1940 C   0  0  0  0  0  0  0  0  0  0  0  0
    8.9090   12.5580   24.3420 C   0  0  0  0  0  0  0  0  0  0  0  0
   12.5430   16.0200   22.4970 H   0  0  0  0  0  0  0  0  0  0  0  0
   11.4410   16.5610   21.2290 H   0  0  0  0  0  0  0  0  0  0  0  0
   12.7960   15.4910   20.8320 H   0  0  0  0  0  0  0  0  0  0  0  0
   10.7160   13.9690   20.9260 H   0  0  0  0  0  0  0  0  0  0  0  0
   10.7150   14.9280   25.1500 H   0  0  0  0  0  0  0  0  0  0  0  0
   12.2550   14.1590   24.7670 H   0  0  0  0  0  0  0  0  0  0  0  0
   11.8320   15.6960   24.0130 H   0  0  0  0  0  0  0  0  0  0  0  0
   11.1380   11.3680   22.1340 H   0  0  0  0  0  0  0  0  0  0  0  0
    8.6660    8.9030   22.9290 H   0  0  0  0  0  0  0  0  0  0  0  0
   10.3360    8.8280   23.5160 H   0  0  0  0  0  0  0  0  0  0  0  0
   10.0020    9.3320   21.8520 H   0  0  0  0  0  0  0  0  0  0  0  0
    7.4020    9.5480   24.8530 H   0  0  0  0  0  0  0  0  0  0  0  0
    5.9970   10.9020   26.3770 H   0  0  0  0  0  0  0  0  0  0  0  0
    8.3240   14.3860   25.2990 H   0  0  0  0  0  0  0  0  0  0  0  0
  1  2  1  0
  2  3  2  3
  3  4  1  0
  3  5  1  0
  5  6  2  0
  6  7  1  0
  7  8  1  0
  7  9  1  0
  9 10  2  0
 10 11  1  0
 11 12  2  0
 12 13  1  0
 12 14  1  0
 14 15  2  0
 15  5  1  0
 15  9  1  0
  1 16  1  0
  1 17  1  0
  1 18  1  0
  2 19  1  0
  4 20  1  0
  4 21  1  0
  4 22  1  0
  6 23  1  0
  8 24  1  0
  8 25  1  0
  8 26  1  0
 10 27  1  0
 11 28  1  0
 14 29  1  0
A    1
 C1 
A    2
 C2 
A    3
 C3 
A    4
 C4 
A    5
 C5 
A    6
 C6 
A    7
 N1 
A    8
 C7 
A    9
 C8 
A   10
 C9 
A   11
 C10
A   12
 C11
A   13
 F1 
A   14
 C12
A   15
 C13
A   16
 H1 
A   17
 H2 
A   18
 H3 
A   19
 H4 
A   20
 H5 
A   21
 H6 
A   22
 H7 
A   23
 H8 
A   24
 H9 
A   25
 H10
A   26
 H11
A   27
 H12
A   28
 H13
A   29
 H14
M  END
>  <ref_pdb>  (37) 
x0310_0A

>  <ref_mols>  (37) 
x0451_0A,x0528_0A

>  <original SMILES>  (37) 
CC=C(C)c1cn(C)c2ccc(F)cc12

>  <rationale>  (37) 
info hydroph_interaction:P107+Y90; 

>  <intxn_cluster>  (37) 
208

>  <intxn_cluster_rank>  (37) 
153

>  <N_interactions>  (37) 
3

>  <∆∆G>  (37) 
-10.095378

>  <$/mg>  (37) 
163.0

>  <comRMSD>  (37) 
0.876061

>  <N_rotatable_bonds>  (37) 
4

>  <hbond:SER:7>  (37) 
hbond:SER:7    0
hbond:SER:7    0
Name: 36, dtype: object

>  <halogenbond:SER:7>  (37) 
halogenbond:SER:7    0
halogenbond:SER:7    0
Name: 36, dtype: object

>  <hbond:GLY:8>  (37) 
hbond:GLY:8    0
hbond:GLY:8    0
Name: 36, dtype: object

>  <hydroph_interaction:ASN:19>  (37) 
hydroph_interaction:ASN:19    0
hydroph_interaction:ASN:19    0
Name: 36, dtype: object

>  <hbond:ASN:19>  (37) 
hbond:ASN:19    0
hbond:ASN:19    0
Name: 36, dtype: object

>  <halogenbond:ASN:19>  (37) 
halogenbond:ASN:19    0
halogenbond:ASN:19    0
Name: 36, dtype: object

>  <hbond:ARG:20>  (37) 
hbond:ARG:20    0
hbond:ARG:20    0
Name: 36, dtype: object

>  <hydroph_interaction:ARG:20>  (37) 
hydroph_interaction:ARG:20    0
hydroph_interaction:ARG:20    0
Name: 36, dtype: object

>  <saltbridge:ARG:20>  (37) 
saltbridge:ARG:20    0
saltbridge:ARG:20    0
Name: 36, dtype: object

>  <halogenbond:ARG:20>  (37) 
halogenbond:ARG:20    0
halogenbond:ARG:20    0
Name: 36, dtype: object

>  <pication:ARG:20>  (37) 
pication:ARG:20    0
pication:ARG:20    0
Name: 36, dtype: object

>  <hbond:HIS:21>  (37) 
hbond:HIS:21    0
hbond:HIS:21    0
Name: 36, dtype: object

>  <hydroph_interaction:HIS:21>  (37) 
hydroph_interaction:HIS:21    0
hydroph_interaction:HIS:21    0
Name: 36, dtype: object

>  <saltbridge:HIS:21>  (37) 
saltbridge:HIS:21    0
saltbridge:HIS:21    0
Name: 36, dtype: object

>  <pistack:HIS:21>  (37) 
pistack:HIS:21    0
pistack:HIS:21    0
Name: 36, dtype: object

>  <pication:HIS:21>  (37) 
pication:HIS:21    0
pication:HIS:21    0
Name: 36, dtype: object

>  <halogenbond:HIS:21>  (37) 
halogenbond:HIS:21    0
halogenbond:HIS:21    0
Name: 36, dtype: object

>  <hydroph_interaction:LEU:22>  (37) 
hydroph_interaction:LEU:22    0
hydroph_interaction:LEU:22    0
Name: 36, dtype: object

>  <hbond:LEU:22>  (37) 
hbond:LEU:22    0
hbond:LEU:22    0
Name: 36, dtype: object

>  <hydroph_interaction:TRP:28>  (37) 
hydroph_interaction:TRP:28    0
hydroph_interaction:TRP:28    0
Name: 36, dtype: object

>  <hbond:SER:36>  (37) 
hbond:SER:36    0
hbond:SER:36    0
Name: 36, dtype: object

>  <halogenbond:SER:36>  (37) 
halogenbond:SER:36    0
halogenbond:SER:36    0
Name: 36, dtype: object

>  <hbond:ARG:38>  (37) 
hbond:ARG:38    0
hbond:ARG:38    0
Name: 36, dtype: object

>  <halogenbond:ARG:38>  (37) 
halogenbond:ARG:38    0
halogenbond:ARG:38    0
Name: 36, dtype: object

>  <hbond:ASP:39>  (37) 
hbond:ASP:39    0
hbond:ASP:39    0
Name: 36, dtype: object

>  <saltbridge:ASP:39>  (37) 
saltbridge:ASP:39    0
saltbridge:ASP:39    0
Name: 36, dtype: object

>  <hydroph_interaction:ASP:39>  (37) 
hydroph_interaction:ASP:39    0
hydroph_interaction:ASP:39    0
Name: 36, dtype: object

>  <halogenbond:ASP:39>  (37) 
halogenbond:ASP:39    0
halogenbond:ASP:39    0
Name: 36, dtype: object

>  <hydroph_interaction:LEU:40>  (37) 
hydroph_interaction:LEU:40    0
hydroph_interaction:LEU:40    0
Name: 36, dtype: object

>  <hydroph_interaction:TYR:63>  (37) 
hydroph_interaction:TYR:63    0
hydroph_interaction:TYR:63    0
Name: 36, dtype: object

>  <pistack:TYR:63>  (37) 
pistack:TYR:63    0
pistack:TYR:63    0
Name: 36, dtype: object

>  <hbond:TYR:63>  (37) 
hbond:TYR:63    0
hbond:TYR:63    0
Name: 36, dtype: object

>  <hbond:TYR:64>  (37) 
hbond:TYR:64    0
hbond:TYR:64    0
Name: 36, dtype: object

>  <halogenbond:TYR:64>  (37) 
halogenbond:TYR:64    0
halogenbond:TYR:64    0
Name: 36, dtype: object

>  <hydroph_interaction:TYR:64>  (37) 
hydroph_interaction:TYR:64    0
hydroph_interaction:TYR:64    0
Name: 36, dtype: object

>  <hbond:CYS:65>  (37) 
hbond:CYS:65    0
hbond:CYS:65    0
Name: 36, dtype: object

>  <halogenbond:CYS:65>  (37) 
halogenbond:CYS:65    0
halogenbond:CYS:65    0
Name: 36, dtype: object

>  <hbond:SER:66>  (37) 
hbond:SER:66    0
hbond:SER:66    0
Name: 36, dtype: object

>  <hbond:SER:67>  (37) 
hbond:SER:67    0
hbond:SER:67    0
Name: 36, dtype: object

>  <halogenbond:SER:67>  (37) 
halogenbond:SER:67    0
halogenbond:SER:67    0
Name: 36, dtype: object

>  <hydroph_interaction:ARG:68>  (37) 
hydroph_interaction:ARG:68    0
hydroph_interaction:ARG:68    0
Name: 36, dtype: object

>  <hbond:ARG:68>  (37) 
hbond:ARG:68    0
hbond:ARG:68    0
Name: 36, dtype: object

>  <saltbridge:ARG:68>  (37) 
saltbridge:ARG:68    0
saltbridge:ARG:68    0
Name: 36, dtype: object

>  <pication:ARG:68>  (37) 
pication:ARG:68    0
pication:ARG:68    0
Name: 36, dtype: object

>  <hydroph_interaction:TYR:72>  (37) 
hydroph_interaction:TYR:72    0
hydroph_interaction:TYR:72    0
Name: 36, dtype: object

>  <hydroph_interaction:VAL:74>  (37) 
hydroph_interaction:VAL:74    0
hydroph_interaction:VAL:74    0
Name: 36, dtype: object

>  <hydroph_interaction:PHE:76>  (37) 
hydroph_interaction:PHE:76    0
hydroph_interaction:PHE:76    0
Name: 36, dtype: object

>  <hbond:SER:77>  (37) 
hbond:SER:77    0
hbond:SER:77    0
Name: 36, dtype: object

>  <hbond:SER:80>  (37) 
hbond:SER:80    0
hbond:SER:80    0
Name: 36, dtype: object

>  <hbond:LEU:81>  (37) 
hbond:LEU:81    0
hbond:LEU:81    0
Name: 36, dtype: object

>  <halogenbond:LEU:81>  (37) 
halogenbond:LEU:81    0
halogenbond:LEU:81    0
Name: 36, dtype: object

>  <hydroph_interaction:LEU:81>  (37) 
hydroph_interaction:LEU:81    0
hydroph_interaction:LEU:81    0
Name: 36, dtype: object

>  <hydroph_interaction:ILE:82>  (37) 
hydroph_interaction:ILE:82    0
hydroph_interaction:ILE:82    0
Name: 36, dtype: object

>  <hbond:ILE:82>  (37) 
hbond:ILE:82    0
hbond:ILE:82    0
Name: 36, dtype: object

>  <hydroph_interaction:PHE:83>  (37) 
hydroph_interaction:PHE:83    0
hydroph_interaction:PHE:83    0
Name: 36, dtype: object

>  <hbond:PHE:83>  (37) 
hbond:PHE:83    0
hbond:PHE:83    0
Name: 36, dtype: object

>  <halogenbond:PHE:83>  (37) 
halogenbond:PHE:83    0
halogenbond:PHE:83    0
Name: 36, dtype: object

>  <pistack:PHE:83>  (37) 
pistack:PHE:83    0
pistack:PHE:83    0
Name: 36, dtype: object

>  <hydroph_interaction:VAL:84>  (37) 
hydroph_interaction:VAL:84    0
hydroph_interaction:VAL:84    0
Name: 36, dtype: object

>  <hbond:VAL:84>  (37) 
hbond:VAL:84    0
hbond:VAL:84    0
Name: 36, dtype: object

>  <halogenbond:VAL:84>  (37) 
halogenbond:VAL:84    0
halogenbond:VAL:84    0
Name: 36, dtype: object

>  <hydroph_interaction:GLU:85>  (37) 
hydroph_interaction:GLU:85    0
hydroph_interaction:GLU:85    0
Name: 36, dtype: object

>  <hbond:GLU:85>  (37) 
hbond:GLU:85    0
hbond:GLU:85    0
Name: 36, dtype: object

>  <saltbridge:GLU:85>  (37) 
saltbridge:GLU:85    0
saltbridge:GLU:85    0
Name: 36, dtype: object

>  <halogenbond:GLU:85>  (37) 
halogenbond:GLU:85    0
halogenbond:GLU:85    0
Name: 36, dtype: object

>  <hbond:ALA:86>  (37) 
hbond:ALA:86    0
hbond:ALA:86    0
Name: 36, dtype: object

>  <halogenbond:ALA:86>  (37) 
halogenbond:ALA:86    0
halogenbond:ALA:86    0
Name: 36, dtype: object

>  <hydroph_interaction:ALA:86>  (37) 
hydroph_interaction:ALA:86    0
hydroph_interaction:ALA:86    0
Name: 36, dtype: object

>  <hbond:SER:87>  (37) 
hbond:SER:87    0
hbond:SER:87    0
Name: 36, dtype: object

>  <halogenbond:SER:87>  (37) 
halogenbond:SER:87    0
halogenbond:SER:87    0
Name: 36, dtype: object

>  <hbond:GLU:88>  (37) 
hbond:GLU:88    0
hbond:GLU:88    0
Name: 36, dtype: object

>  <hydroph_interaction:GLU:88>  (37) 
hydroph_interaction:GLU:88    0
hydroph_interaction:GLU:88    0
Name: 36, dtype: object

>  <halogenbond:GLU:88>  (37) 
halogenbond:GLU:88    0
halogenbond:GLU:88    0
Name: 36, dtype: object

>  <saltbridge:GLU:88>  (37) 
saltbridge:GLU:88    0
saltbridge:GLU:88    0
Name: 36, dtype: object

>  <hydroph_interaction:TYR:89>  (37) 
hydroph_interaction:TYR:89    0
hydroph_interaction:TYR:89    0
Name: 36, dtype: object

>  <pistack:TYR:89>  (37) 
pistack:TYR:89    0
pistack:TYR:89    0
Name: 36, dtype: object

>  <hbond:TYR:89>  (37) 
hbond:TYR:89    0
hbond:TYR:89    0
Name: 36, dtype: object

>  <halogenbond:TYR:89>  (37) 
halogenbond:TYR:89    0
halogenbond:TYR:89    0
Name: 36, dtype: object

>  <hbond:TYR:90>  (37) 
hbond:TYR:90    0
hbond:TYR:90    0
Name: 36, dtype: object

>  <hydroph_interaction:TYR:90>  (37) 
hydroph_interaction:TYR:90    1
hydroph_interaction:TYR:90    1
Name: 36, dtype: object

>  <pistack:TYR:90>  (37) 
pistack:TYR:90    0
pistack:TYR:90    0
Name: 36, dtype: object

>  <halogenbond:TYR:90>  (37) 
halogenbond:TYR:90    0
halogenbond:TYR:90    0
Name: 36, dtype: object

>  <pication:TYR:90>  (37) 
pication:TYR:90    0
pication:TYR:90    0
Name: 36, dtype: object

>  <hydroph_interaction:PRO:91>  (37) 
hydroph_interaction:PRO:91    0
hydroph_interaction:PRO:91    0
Name: 36, dtype: object

>  <halogenbond:PRO:91>  (37) 
halogenbond:PRO:91    0
halogenbond:PRO:91    0
Name: 36, dtype: object

>  <hbond:PRO:91>  (37) 
hbond:PRO:91    0
hbond:PRO:91    0
Name: 36, dtype: object

>  <hydroph_interaction:ALA:92>  (37) 
hydroph_interaction:ALA:92    0
hydroph_interaction:ALA:92    0
Name: 36, dtype: object

>  <hbond:ARG:93>  (37) 
hbond:ARG:93    0
hbond:ARG:93    0
Name: 36, dtype: object

>  <pication:ARG:93>  (37) 
pication:ARG:93    0
pication:ARG:93    0
Name: 36, dtype: object

>  <saltbridge:ARG:93>  (37) 
saltbridge:ARG:93    0
saltbridge:ARG:93    0
Name: 36, dtype: object

>  <hydroph_interaction:ARG:93>  (37) 
hydroph_interaction:ARG:93    0
hydroph_interaction:ARG:93    0
Name: 36, dtype: object

>  <halogenbond:ARG:93>  (37) 
halogenbond:ARG:93    0
halogenbond:ARG:93    0
Name: 36, dtype: object

>  <hydroph_interaction:TYR:94>  (37) 
hydroph_interaction:TYR:94    0
hydroph_interaction:TYR:94    0
Name: 36, dtype: object

>  <hbond:TYR:94>  (37) 
hbond:TYR:94    0
hbond:TYR:94    0
Name: 36, dtype: object

>  <halogenbond:GLN:95>  (37) 
halogenbond:GLN:95    0
halogenbond:GLN:95    0
Name: 36, dtype: object

>  <hbond:GLN:95>  (37) 
hbond:GLN:95    0
hbond:GLN:95    0
Name: 36, dtype: object

>  <hydroph_interaction:GLN:95>  (37) 
hydroph_interaction:GLN:95    0
hydroph_interaction:GLN:95    0
Name: 36, dtype: object

>  <hbond:SER:96>  (37) 
hbond:SER:96    0
hbond:SER:96    0
Name: 36, dtype: object

>  <hydroph_interaction:LEU:98>  (37) 
hydroph_interaction:LEU:98    0
hydroph_interaction:LEU:98    0
Name: 36, dtype: object

>  <hbond:LEU:98>  (37) 
hbond:LEU:98    0
hbond:LEU:98    0
Name: 36, dtype: object

>  <hbond:MET:99>  (37) 
hbond:MET:99    0
hbond:MET:99    0
Name: 36, dtype: object

>  <hydroph_interaction:MET:99>  (37) 
hydroph_interaction:MET:99    0
hydroph_interaction:MET:99    0
Name: 36, dtype: object

>  <halogenbond:MET:99>  (37) 
halogenbond:MET:99    0
halogenbond:MET:99    0
Name: 36, dtype: object

>  <hydroph_interaction:LEU:100>  (37) 
hydroph_interaction:LEU:100    0
hydroph_interaction:LEU:100    0
Name: 36, dtype: object

>  <hbond:LEU:100>  (37) 
hbond:LEU:100    0
hbond:LEU:100    0
Name: 36, dtype: object

>  <hbond:ALA:101>  (37) 
hbond:ALA:101    0
hbond:ALA:101    0
Name: 36, dtype: object

>  <hydroph_interaction:ALA:101>  (37) 
hydroph_interaction:ALA:101    0
hydroph_interaction:ALA:101    0
Name: 36, dtype: object

>  <hydroph_interaction:VAL:102>  (37) 
hydroph_interaction:VAL:102    0
hydroph_interaction:VAL:102    0
Name: 36, dtype: object

>  <hbond:VAL:102>  (37) 
hbond:VAL:102    0
hbond:VAL:102    0
Name: 36, dtype: object

>  <hbond:GLY:103>  (37) 
hbond:GLY:103    0
hbond:GLY:103    0
Name: 36, dtype: object

>  <halogenbond:GLY:103>  (37) 
halogenbond:GLY:103    0
halogenbond:GLY:103    0
Name: 36, dtype: object

>  <hydroph_interaction:HIS:104>  (37) 
hydroph_interaction:HIS:104    0
hydroph_interaction:HIS:104    0
Name: 36, dtype: object

>  <hbond:HIS:104>  (37) 
hbond:HIS:104    0
hbond:HIS:104    0
Name: 36, dtype: object

>  <saltbridge:HIS:104>  (37) 
saltbridge:HIS:104    0
saltbridge:HIS:104    0
Name: 36, dtype: object

>  <pication:HIS:104>  (37) 
pication:HIS:104    0
pication:HIS:104    0
Name: 36, dtype: object

>  <pistack:HIS:104>  (37) 
pistack:HIS:104    0
pistack:HIS:104    0
Name: 36, dtype: object

>  <halogenbond:HIS:104>  (37) 
halogenbond:HIS:104    0
halogenbond:HIS:104    0
Name: 36, dtype: object

>  <hbond:SER:105>  (37) 
hbond:SER:105    0
hbond:SER:105    0
Name: 36, dtype: object

>  <halogenbond:SER:105>  (37) 
halogenbond:SER:105    0
halogenbond:SER:105    0
Name: 36, dtype: object

>  <hbond:GLU:106>  (37) 
hbond:GLU:106    0
hbond:GLU:106    0
Name: 36, dtype: object

>  <hydroph_interaction:GLU:106>  (37) 
hydroph_interaction:GLU:106    0
hydroph_interaction:GLU:106    0
Name: 36, dtype: object

>  <saltbridge:GLU:106>  (37) 
saltbridge:GLU:106    0
saltbridge:GLU:106    0
Name: 36, dtype: object

>  <halogenbond:GLU:106>  (37) 
halogenbond:GLU:106    0
halogenbond:GLU:106    0
Name: 36, dtype: object

>  <hydroph_interaction:PRO:107>  (37) 
hydroph_interaction:PRO:107    2
hydroph_interaction:PRO:107    2
Name: 36, dtype: object

>  <hbond:PRO:107>  (37) 
hbond:PRO:107    0
hbond:PRO:107    0
Name: 36, dtype: object

>  <halogenbond:PRO:107>  (37) 
halogenbond:PRO:107    0
halogenbond:PRO:107    0
Name: 36, dtype: object

>  <hbond:GLY:108>  (37) 
hbond:GLY:108    0
hbond:GLY:108    0
Name: 36, dtype: object

>  <halogenbond:GLY:108>  (37) 
halogenbond:GLY:108    0
halogenbond:GLY:108    0
Name: 36, dtype: object

>  <hbond:ASP:109>  (37) 
hbond:ASP:109    0
hbond:ASP:109    0
Name: 36, dtype: object

>  <hydroph_interaction:ASP:109>  (37) 
hydroph_interaction:ASP:109    0
hydroph_interaction:ASP:109    0
Name: 36, dtype: object

>  <saltbridge:ASP:109>  (37) 
saltbridge:ASP:109    0
saltbridge:ASP:109    0
Name: 36, dtype: object

>  <hbond:CYS:110>  (37) 
hbond:CYS:110    0
hbond:CYS:110    0
Name: 36, dtype: object

>  <halogenbond:CYS:110>  (37) 
halogenbond:CYS:110    0
halogenbond:CYS:110    0
Name: 36, dtype: object

>  <hbond:GLY:111>  (37) 
hbond:GLY:111    0
hbond:GLY:111    0
Name: 36, dtype: object

>  <hbond:GLY:112>  (37) 
hbond:GLY:112    0
hbond:GLY:112    0
Name: 36, dtype: object

>  <hbond:ILE:113>  (37) 
hbond:ILE:113    0
hbond:ILE:113    0
Name: 36, dtype: object

>  <hydroph_interaction:LEU:114>  (37) 
hydroph_interaction:LEU:114    0
hydroph_interaction:LEU:114    0
Name: 36, dtype: object

>  <hbond:LEU:114>  (37) 
hbond:LEU:114    0
hbond:LEU:114    0
Name: 36, dtype: object

>  <hydroph_interaction:ILE:123>  (37) 
hydroph_interaction:ILE:123    0
hydroph_interaction:ILE:123    0
Name: 36, dtype: object

>  <hbond:ILE:123>  (37) 
hbond:ILE:123    0
hbond:ILE:123    0
Name: 36, dtype: object

>  <hydroph_interaction:VAL:124>  (37) 
hydroph_interaction:VAL:124    0
hydroph_interaction:VAL:124    0
Name: 36, dtype: object

>  <hbond:VAL:124>  (37) 
hbond:VAL:124    0
hbond:VAL:124    0
Name: 36, dtype: object

>  <halogenbond:VAL:124>  (37) 
halogenbond:VAL:124    0
halogenbond:VAL:124    0
Name: 36, dtype: object

>  <hbond:SER:125>  (37) 
hbond:SER:125    0
hbond:SER:125    0
Name: 36, dtype: object

>  <halogenbond:SER:125>  (37) 
halogenbond:SER:125    0
halogenbond:SER:125    0
Name: 36, dtype: object

>  <hydroph_interaction:THR:126>  (37) 
hydroph_interaction:THR:126    0
hydroph_interaction:THR:126    0
Name: 36, dtype: object

>  <hbond:THR:126>  (37) 
hbond:THR:126    0
hbond:THR:126    0
Name: 36, dtype: object

>  <halogenbond:THR:126>  (37) 
halogenbond:THR:126    0
halogenbond:THR:126    0
Name: 36, dtype: object

>  <hbond:GLY:127>  (37) 
hbond:GLY:127    0
hbond:GLY:127    0
Name: 36, dtype: object

>  <halogenbond:GLY:127>  (37) 
halogenbond:GLY:127    0
halogenbond:GLY:127    0
Name: 36, dtype: object

>  <hydroph_interaction:GLY:127>  (37) 
hydroph_interaction:GLY:127    0
hydroph_interaction:GLY:127    0
Name: 36, dtype: object

>  <hbond:GLY:128>  (37) 
hbond:GLY:128    0
hbond:GLY:128    0
Name: 36, dtype: object

>  <halogenbond:GLY:128>  (37) 
halogenbond:GLY:128    0
halogenbond:GLY:128    0
Name: 36, dtype: object

>  <hydroph_interaction:GLY:128>  (37) 
hydroph_interaction:GLY:128    0
hydroph_interaction:GLY:128    0
Name: 36, dtype: object

>  <hbond:ASN:129>  (37) 
hbond:ASN:129    0
hbond:ASN:129    0
Name: 36, dtype: object

>  <hydroph_interaction:ASN:129>  (37) 
hydroph_interaction:ASN:129    0
hydroph_interaction:ASN:129    0
Name: 36, dtype: object

>  <halogenbond:ASN:129>  (37) 
halogenbond:ASN:129    0
halogenbond:ASN:129    0
Name: 36, dtype: object

>  <hbond:GLY:130>  (37) 
hbond:GLY:130    0
hbond:GLY:130    0
Name: 36, dtype: object

>  <hydroph_interaction:LEU:131>  (37) 
hydroph_interaction:LEU:131    0
hydroph_interaction:LEU:131    0
Name: 36, dtype: object

>  <hbond:LEU:131>  (37) 
hbond:LEU:131    0
hbond:LEU:131    0
Name: 36, dtype: object

>  <halogenbond:LEU:131>  (37) 
halogenbond:LEU:131    0
halogenbond:LEU:131    0
Name: 36, dtype: object

>  <hydroph_interaction:VAL:132>  (37) 
hydroph_interaction:VAL:132    0
hydroph_interaction:VAL:132    0
Name: 36, dtype: object

>  <hbond:VAL:132>  (37) 
hbond:VAL:132    0
hbond:VAL:132    0
Name: 36, dtype: object

>  <hbond:GLY:133>  (37) 
hbond:GLY:133    0
hbond:GLY:133    0
Name: 36, dtype: object

>  <halogenbond:GLY:133>  (37) 
halogenbond:GLY:133    0
halogenbond:GLY:133    0
Name: 36, dtype: object

>  <hydroph_interaction:PHE:134>  (37) 
hydroph_interaction:PHE:134    0
hydroph_interaction:PHE:134    0
Name: 36, dtype: object

>  <hbond:PHE:134>  (37) 
hbond:PHE:134    0
hbond:PHE:134    0
Name: 36, dtype: object

>  <pistack:PHE:134>  (37) 
pistack:PHE:134    0
pistack:PHE:134    0
Name: 36, dtype: object

>  <pication:PHE:134>  (37) 
pication:PHE:134    0
pication:PHE:134    0
Name: 36, dtype: object

>  <hydroph_interaction:ALA:135>  (37) 
hydroph_interaction:ALA:135    0
hydroph_interaction:ALA:135    0
Name: 36, dtype: object

>  <hbond:ALA:135>  (37) 
hbond:ALA:135    0
hbond:ALA:135    0
Name: 36, dtype: object

$$$$
Z3377964920
     RDKit          3D

 25 26  0  0  0  0  0  0  0  0999 V2000
   12.3740   14.7830   21.9900 C   0  0  0  0  0  0  0  0  0  0  0  0
   11.5100   14.3470   23.1720 C   0  0  0  0  0  0  0  0  0  0  0  0
   11.9450   14.3290   24.3120 O   0  0  0  0  0  0  0  0  0  0  0  0
   10.1760   13.9930   22.7380 N   0  0  0  0  0  0  0  0  0  0  0  0
    9.7550   12.7340   23.1110 C   0  0  0  0  0  0  0  0  0  0  0  0
   10.2370   11.6250   22.5960 N   0  0  0  0  0  0  0  0  0  0  0  0
    9.5730   10.6570   23.1940 N   0  0  0  0  0  0  0  0  0  0  0  0
    9.8800    9.3230   22.8050 C   0  0  0  0  0  0  0  0  0  0  0  0
    8.6540   11.0910   24.1170 C   0  0  0  0  0  0  0  0  0  0  0  0
    7.7640   10.4360   24.9540 C   0  0  0  0  0  0  0  0  0  0  0  0
    6.9900   11.2290   25.7440 C   0  0  0  0  0  0  0  0  0  0  0  0
    7.0000   12.6090   25.8020 C   0  0  0  0  0  0  0  0  0  0  0  0
    7.8970   13.2690   24.9590 C   0  0  0  0  0  0  0  0  0  0  0  0
    8.7540   12.4750   24.0840 C   0  0  0  0  0  0  0  0  0  0  0  0
   13.3490   15.1430   22.3290 H   0  0  0  0  0  0  0  0  0  0  0  0
   11.8830   15.5970   21.4530 H   0  0  0  0  0  0  0  0  0  0  0  0
   12.5380   13.9390   21.3100 H   0  0  0  0  0  0  0  0  0  0  0  0
    9.8830   14.2820   21.8190 H   0  0  0  0  0  0  0  0  0  0  0  0
   10.5210    8.8610   23.5430 H   0  0  0  0  0  0  0  0  0  0  0  0
    8.9310    8.8070   22.7060 H   0  0  0  0  0  0  0  0  0  0  0  0
   10.3930    9.3390   21.8380 H   0  0  0  0  0  0  0  0  0  0  0  0
    7.6920    9.3670   24.9720 H   0  0  0  0  0  0  0  0  0  0  0  0
    6.2900   10.7160   26.4020 H   0  0  0  0  0  0  0  0  0  0  0  0
    6.3380   13.1420   26.4730 H   0  0  0  0  0  0  0  0  0  0  0  0
    7.9760   14.3520   24.9340 H   0  0  0  0  0  0  0  0  0  0  0  0
  1  2  1  0
  2  3  2  0
  2  4  1  0
  4  5  1  0
  5  6  2  0
  6  7  1  0
  7  8  1  0
  7  9  1  0
  9 10  2  0
 10 11  1  0
 11 12  2  0
 12 13  1  0
 13 14  2  0
 14  5  1  0
 14  9  1  0
  1 15  1  0
  1 16  1  0
  1 17  1  0
  4 18  1  0
  8 19  1  0
  8 20  1  0
  8 21  1  0
 10 22  1  0
 11 23  1  0
 12 24  1  0
 13 25  1  0
A    1
 C1 
A    2
 C2 
A    3
 O1 
A    4
 N1 
A    5
 C3 
A    6
 N2 
A    7
 N3 
A    8
 C4 
A    9
 C5 
A   10
 C6 
A   11
 C7 
A   12
 C8 
A   13
 C9 
A   14
 C10
A   15
 H1 
A   16
 H2 
A   17
 H3 
A   18
 H4 
A   19
 H5 
A   20
 H6 
A   21
 H7 
A   22
 H8 
A   23
 H9 
A   24
 H10
A   25
 H11
M  END
>  <ref_pdb>  (38) 
x0310_0A

>  <ref_mols>  (38) 
x0554_0A,x0451_0A

>  <original SMILES>  (38) 
CC(=O)Nc1nn(C)c2ccccc12

>  <rationale>  (38) 
info hbond:S87; 

>  <intxn_cluster>  (38) 
208

>  <intxn_cluster_rank>  (38) 
154

>  <N_interactions>  (38) 
2

>  <∆∆G>  (38) 
-9.53867

>  <$/mg>  (38) 
163.0

>  <comRMSD>  (38) 
0.616937

>  <N_rotatable_bonds>  (38) 
3

>  <hbond:SER:7>  (38) 
hbond:SER:7    0
hbond:SER:7    0
Name: 37, dtype: object

>  <halogenbond:SER:7>  (38) 
halogenbond:SER:7    0
halogenbond:SER:7    0
Name: 37, dtype: object

>  <hbond:GLY:8>  (38) 
hbond:GLY:8    0
hbond:GLY:8    0
Name: 37, dtype: object

>  <hydroph_interaction:ASN:19>  (38) 
hydroph_interaction:ASN:19    0
hydroph_interaction:ASN:19    0
Name: 37, dtype: object

>  <hbond:ASN:19>  (38) 
hbond:ASN:19    0
hbond:ASN:19    0
Name: 37, dtype: object

>  <halogenbond:ASN:19>  (38) 
halogenbond:ASN:19    0
halogenbond:ASN:19    0
Name: 37, dtype: object

>  <hbond:ARG:20>  (38) 
hbond:ARG:20    0
hbond:ARG:20    0
Name: 37, dtype: object

>  <hydroph_interaction:ARG:20>  (38) 
hydroph_interaction:ARG:20    0
hydroph_interaction:ARG:20    0
Name: 37, dtype: object

>  <saltbridge:ARG:20>  (38) 
saltbridge:ARG:20    0
saltbridge:ARG:20    0
Name: 37, dtype: object

>  <halogenbond:ARG:20>  (38) 
halogenbond:ARG:20    0
halogenbond:ARG:20    0
Name: 37, dtype: object

>  <pication:ARG:20>  (38) 
pication:ARG:20    0
pication:ARG:20    0
Name: 37, dtype: object

>  <hbond:HIS:21>  (38) 
hbond:HIS:21    0
hbond:HIS:21    0
Name: 37, dtype: object

>  <hydroph_interaction:HIS:21>  (38) 
hydroph_interaction:HIS:21    0
hydroph_interaction:HIS:21    0
Name: 37, dtype: object

>  <saltbridge:HIS:21>  (38) 
saltbridge:HIS:21    0
saltbridge:HIS:21    0
Name: 37, dtype: object

>  <pistack:HIS:21>  (38) 
pistack:HIS:21    0
pistack:HIS:21    0
Name: 37, dtype: object

>  <pication:HIS:21>  (38) 
pication:HIS:21    0
pication:HIS:21    0
Name: 37, dtype: object

>  <halogenbond:HIS:21>  (38) 
halogenbond:HIS:21    0
halogenbond:HIS:21    0
Name: 37, dtype: object

>  <hydroph_interaction:LEU:22>  (38) 
hydroph_interaction:LEU:22    0
hydroph_interaction:LEU:22    0
Name: 37, dtype: object

>  <hbond:LEU:22>  (38) 
hbond:LEU:22    0
hbond:LEU:22    0
Name: 37, dtype: object

>  <hydroph_interaction:TRP:28>  (38) 
hydroph_interaction:TRP:28    0
hydroph_interaction:TRP:28    0
Name: 37, dtype: object

>  <hbond:SER:36>  (38) 
hbond:SER:36    0
hbond:SER:36    0
Name: 37, dtype: object

>  <halogenbond:SER:36>  (38) 
halogenbond:SER:36    0
halogenbond:SER:36    0
Name: 37, dtype: object

>  <hbond:ARG:38>  (38) 
hbond:ARG:38    0
hbond:ARG:38    0
Name: 37, dtype: object

>  <halogenbond:ARG:38>  (38) 
halogenbond:ARG:38    0
halogenbond:ARG:38    0
Name: 37, dtype: object

>  <hbond:ASP:39>  (38) 
hbond:ASP:39    0
hbond:ASP:39    0
Name: 37, dtype: object

>  <saltbridge:ASP:39>  (38) 
saltbridge:ASP:39    0
saltbridge:ASP:39    0
Name: 37, dtype: object

>  <hydroph_interaction:ASP:39>  (38) 
hydroph_interaction:ASP:39    0
hydroph_interaction:ASP:39    0
Name: 37, dtype: object

>  <halogenbond:ASP:39>  (38) 
halogenbond:ASP:39    0
halogenbond:ASP:39    0
Name: 37, dtype: object

>  <hydroph_interaction:LEU:40>  (38) 
hydroph_interaction:LEU:40    0
hydroph_interaction:LEU:40    0
Name: 37, dtype: object

>  <hydroph_interaction:TYR:63>  (38) 
hydroph_interaction:TYR:63    0
hydroph_interaction:TYR:63    0
Name: 37, dtype: object

>  <pistack:TYR:63>  (38) 
pistack:TYR:63    0
pistack:TYR:63    0
Name: 37, dtype: object

>  <hbond:TYR:63>  (38) 
hbond:TYR:63    0
hbond:TYR:63    0
Name: 37, dtype: object

>  <hbond:TYR:64>  (38) 
hbond:TYR:64    0
hbond:TYR:64    0
Name: 37, dtype: object

>  <halogenbond:TYR:64>  (38) 
halogenbond:TYR:64    0
halogenbond:TYR:64    0
Name: 37, dtype: object

>  <hydroph_interaction:TYR:64>  (38) 
hydroph_interaction:TYR:64    0
hydroph_interaction:TYR:64    0
Name: 37, dtype: object

>  <hbond:CYS:65>  (38) 
hbond:CYS:65    0
hbond:CYS:65    0
Name: 37, dtype: object

>  <halogenbond:CYS:65>  (38) 
halogenbond:CYS:65    0
halogenbond:CYS:65    0
Name: 37, dtype: object

>  <hbond:SER:66>  (38) 
hbond:SER:66    0
hbond:SER:66    0
Name: 37, dtype: object

>  <hbond:SER:67>  (38) 
hbond:SER:67    0
hbond:SER:67    0
Name: 37, dtype: object

>  <halogenbond:SER:67>  (38) 
halogenbond:SER:67    0
halogenbond:SER:67    0
Name: 37, dtype: object

>  <hydroph_interaction:ARG:68>  (38) 
hydroph_interaction:ARG:68    0
hydroph_interaction:ARG:68    0
Name: 37, dtype: object

>  <hbond:ARG:68>  (38) 
hbond:ARG:68    0
hbond:ARG:68    0
Name: 37, dtype: object

>  <saltbridge:ARG:68>  (38) 
saltbridge:ARG:68    0
saltbridge:ARG:68    0
Name: 37, dtype: object

>  <pication:ARG:68>  (38) 
pication:ARG:68    0
pication:ARG:68    0
Name: 37, dtype: object

>  <hydroph_interaction:TYR:72>  (38) 
hydroph_interaction:TYR:72    0
hydroph_interaction:TYR:72    0
Name: 37, dtype: object

>  <hydroph_interaction:VAL:74>  (38) 
hydroph_interaction:VAL:74    0
hydroph_interaction:VAL:74    0
Name: 37, dtype: object

>  <hydroph_interaction:PHE:76>  (38) 
hydroph_interaction:PHE:76    0
hydroph_interaction:PHE:76    0
Name: 37, dtype: object

>  <hbond:SER:77>  (38) 
hbond:SER:77    0
hbond:SER:77    0
Name: 37, dtype: object

>  <hbond:SER:80>  (38) 
hbond:SER:80    0
hbond:SER:80    0
Name: 37, dtype: object

>  <hbond:LEU:81>  (38) 
hbond:LEU:81    0
hbond:LEU:81    0
Name: 37, dtype: object

>  <halogenbond:LEU:81>  (38) 
halogenbond:LEU:81    0
halogenbond:LEU:81    0
Name: 37, dtype: object

>  <hydroph_interaction:LEU:81>  (38) 
hydroph_interaction:LEU:81    0
hydroph_interaction:LEU:81    0
Name: 37, dtype: object

>  <hydroph_interaction:ILE:82>  (38) 
hydroph_interaction:ILE:82    0
hydroph_interaction:ILE:82    0
Name: 37, dtype: object

>  <hbond:ILE:82>  (38) 
hbond:ILE:82    0
hbond:ILE:82    0
Name: 37, dtype: object

>  <hydroph_interaction:PHE:83>  (38) 
hydroph_interaction:PHE:83    0
hydroph_interaction:PHE:83    0
Name: 37, dtype: object

>  <hbond:PHE:83>  (38) 
hbond:PHE:83    0
hbond:PHE:83    0
Name: 37, dtype: object

>  <halogenbond:PHE:83>  (38) 
halogenbond:PHE:83    0
halogenbond:PHE:83    0
Name: 37, dtype: object

>  <pistack:PHE:83>  (38) 
pistack:PHE:83    0
pistack:PHE:83    0
Name: 37, dtype: object

>  <hydroph_interaction:VAL:84>  (38) 
hydroph_interaction:VAL:84    0
hydroph_interaction:VAL:84    0
Name: 37, dtype: object

>  <hbond:VAL:84>  (38) 
hbond:VAL:84    0
hbond:VAL:84    0
Name: 37, dtype: object

>  <halogenbond:VAL:84>  (38) 
halogenbond:VAL:84    0
halogenbond:VAL:84    0
Name: 37, dtype: object

>  <hydroph_interaction:GLU:85>  (38) 
hydroph_interaction:GLU:85    0
hydroph_interaction:GLU:85    0
Name: 37, dtype: object

>  <hbond:GLU:85>  (38) 
hbond:GLU:85    0
hbond:GLU:85    0
Name: 37, dtype: object

>  <saltbridge:GLU:85>  (38) 
saltbridge:GLU:85    0
saltbridge:GLU:85    0
Name: 37, dtype: object

>  <halogenbond:GLU:85>  (38) 
halogenbond:GLU:85    0
halogenbond:GLU:85    0
Name: 37, dtype: object

>  <hbond:ALA:86>  (38) 
hbond:ALA:86    0
hbond:ALA:86    0
Name: 37, dtype: object

>  <halogenbond:ALA:86>  (38) 
halogenbond:ALA:86    0
halogenbond:ALA:86    0
Name: 37, dtype: object

>  <hydroph_interaction:ALA:86>  (38) 
hydroph_interaction:ALA:86    0
hydroph_interaction:ALA:86    0
Name: 37, dtype: object

>  <hbond:SER:87>  (38) 
hbond:SER:87    2
hbond:SER:87    2
Name: 37, dtype: object

>  <halogenbond:SER:87>  (38) 
halogenbond:SER:87    0
halogenbond:SER:87    0
Name: 37, dtype: object

>  <hbond:GLU:88>  (38) 
hbond:GLU:88    0
hbond:GLU:88    0
Name: 37, dtype: object

>  <hydroph_interaction:GLU:88>  (38) 
hydroph_interaction:GLU:88    0
hydroph_interaction:GLU:88    0
Name: 37, dtype: object

>  <halogenbond:GLU:88>  (38) 
halogenbond:GLU:88    0
halogenbond:GLU:88    0
Name: 37, dtype: object

>  <saltbridge:GLU:88>  (38) 
saltbridge:GLU:88    0
saltbridge:GLU:88    0
Name: 37, dtype: object

>  <hydroph_interaction:TYR:89>  (38) 
hydroph_interaction:TYR:89    0
hydroph_interaction:TYR:89    0
Name: 37, dtype: object

>  <pistack:TYR:89>  (38) 
pistack:TYR:89    0
pistack:TYR:89    0
Name: 37, dtype: object

>  <hbond:TYR:89>  (38) 
hbond:TYR:89    0
hbond:TYR:89    0
Name: 37, dtype: object

>  <halogenbond:TYR:89>  (38) 
halogenbond:TYR:89    0
halogenbond:TYR:89    0
Name: 37, dtype: object

>  <hbond:TYR:90>  (38) 
hbond:TYR:90    0
hbond:TYR:90    0
Name: 37, dtype: object

>  <hydroph_interaction:TYR:90>  (38) 
hydroph_interaction:TYR:90    0
hydroph_interaction:TYR:90    0
Name: 37, dtype: object

>  <pistack:TYR:90>  (38) 
pistack:TYR:90    0
pistack:TYR:90    0
Name: 37, dtype: object

>  <halogenbond:TYR:90>  (38) 
halogenbond:TYR:90    0
halogenbond:TYR:90    0
Name: 37, dtype: object

>  <pication:TYR:90>  (38) 
pication:TYR:90    0
pication:TYR:90    0
Name: 37, dtype: object

>  <hydroph_interaction:PRO:91>  (38) 
hydroph_interaction:PRO:91    0
hydroph_interaction:PRO:91    0
Name: 37, dtype: object

>  <halogenbond:PRO:91>  (38) 
halogenbond:PRO:91    0
halogenbond:PRO:91    0
Name: 37, dtype: object

>  <hbond:PRO:91>  (38) 
hbond:PRO:91    0
hbond:PRO:91    0
Name: 37, dtype: object

>  <hydroph_interaction:ALA:92>  (38) 
hydroph_interaction:ALA:92    0
hydroph_interaction:ALA:92    0
Name: 37, dtype: object

>  <hbond:ARG:93>  (38) 
hbond:ARG:93    0
hbond:ARG:93    0
Name: 37, dtype: object

>  <pication:ARG:93>  (38) 
pication:ARG:93    0
pication:ARG:93    0
Name: 37, dtype: object

>  <saltbridge:ARG:93>  (38) 
saltbridge:ARG:93    0
saltbridge:ARG:93    0
Name: 37, dtype: object

>  <hydroph_interaction:ARG:93>  (38) 
hydroph_interaction:ARG:93    0
hydroph_interaction:ARG:93    0
Name: 37, dtype: object

>  <halogenbond:ARG:93>  (38) 
halogenbond:ARG:93    0
halogenbond:ARG:93    0
Name: 37, dtype: object

>  <hydroph_interaction:TYR:94>  (38) 
hydroph_interaction:TYR:94    0
hydroph_interaction:TYR:94    0
Name: 37, dtype: object

>  <hbond:TYR:94>  (38) 
hbond:TYR:94    0
hbond:TYR:94    0
Name: 37, dtype: object

>  <halogenbond:GLN:95>  (38) 
halogenbond:GLN:95    0
halogenbond:GLN:95    0
Name: 37, dtype: object

>  <hbond:GLN:95>  (38) 
hbond:GLN:95    0
hbond:GLN:95    0
Name: 37, dtype: object

>  <hydroph_interaction:GLN:95>  (38) 
hydroph_interaction:GLN:95    0
hydroph_interaction:GLN:95    0
Name: 37, dtype: object

>  <hbond:SER:96>  (38) 
hbond:SER:96    0
hbond:SER:96    0
Name: 37, dtype: object

>  <hydroph_interaction:LEU:98>  (38) 
hydroph_interaction:LEU:98    0
hydroph_interaction:LEU:98    0
Name: 37, dtype: object

>  <hbond:LEU:98>  (38) 
hbond:LEU:98    0
hbond:LEU:98    0
Name: 37, dtype: object

>  <hbond:MET:99>  (38) 
hbond:MET:99    0
hbond:MET:99    0
Name: 37, dtype: object

>  <hydroph_interaction:MET:99>  (38) 
hydroph_interaction:MET:99    0
hydroph_interaction:MET:99    0
Name: 37, dtype: object

>  <halogenbond:MET:99>  (38) 
halogenbond:MET:99    0
halogenbond:MET:99    0
Name: 37, dtype: object

>  <hydroph_interaction:LEU:100>  (38) 
hydroph_interaction:LEU:100    0
hydroph_interaction:LEU:100    0
Name: 37, dtype: object

>  <hbond:LEU:100>  (38) 
hbond:LEU:100    0
hbond:LEU:100    0
Name: 37, dtype: object

>  <hbond:ALA:101>  (38) 
hbond:ALA:101    0
hbond:ALA:101    0
Name: 37, dtype: object

>  <hydroph_interaction:ALA:101>  (38) 
hydroph_interaction:ALA:101    0
hydroph_interaction:ALA:101    0
Name: 37, dtype: object

>  <hydroph_interaction:VAL:102>  (38) 
hydroph_interaction:VAL:102    0
hydroph_interaction:VAL:102    0
Name: 37, dtype: object

>  <hbond:VAL:102>  (38) 
hbond:VAL:102    0
hbond:VAL:102    0
Name: 37, dtype: object

>  <hbond:GLY:103>  (38) 
hbond:GLY:103    0
hbond:GLY:103    0
Name: 37, dtype: object

>  <halogenbond:GLY:103>  (38) 
halogenbond:GLY:103    0
halogenbond:GLY:103    0
Name: 37, dtype: object

>  <hydroph_interaction:HIS:104>  (38) 
hydroph_interaction:HIS:104    0
hydroph_interaction:HIS:104    0
Name: 37, dtype: object

>  <hbond:HIS:104>  (38) 
hbond:HIS:104    0
hbond:HIS:104    0
Name: 37, dtype: object

>  <saltbridge:HIS:104>  (38) 
saltbridge:HIS:104    0
saltbridge:HIS:104    0
Name: 37, dtype: object

>  <pication:HIS:104>  (38) 
pication:HIS:104    0
pication:HIS:104    0
Name: 37, dtype: object

>  <pistack:HIS:104>  (38) 
pistack:HIS:104    0
pistack:HIS:104    0
Name: 37, dtype: object

>  <halogenbond:HIS:104>  (38) 
halogenbond:HIS:104    0
halogenbond:HIS:104    0
Name: 37, dtype: object

>  <hbond:SER:105>  (38) 
hbond:SER:105    0
hbond:SER:105    0
Name: 37, dtype: object

>  <halogenbond:SER:105>  (38) 
halogenbond:SER:105    0
halogenbond:SER:105    0
Name: 37, dtype: object

>  <hbond:GLU:106>  (38) 
hbond:GLU:106    0
hbond:GLU:106    0
Name: 37, dtype: object

>  <hydroph_interaction:GLU:106>  (38) 
hydroph_interaction:GLU:106    0
hydroph_interaction:GLU:106    0
Name: 37, dtype: object

>  <saltbridge:GLU:106>  (38) 
saltbridge:GLU:106    0
saltbridge:GLU:106    0
Name: 37, dtype: object

>  <halogenbond:GLU:106>  (38) 
halogenbond:GLU:106    0
halogenbond:GLU:106    0
Name: 37, dtype: object

>  <hydroph_interaction:PRO:107>  (38) 
hydroph_interaction:PRO:107    0
hydroph_interaction:PRO:107    0
Name: 37, dtype: object

>  <hbond:PRO:107>  (38) 
hbond:PRO:107    0
hbond:PRO:107    0
Name: 37, dtype: object

>  <halogenbond:PRO:107>  (38) 
halogenbond:PRO:107    0
halogenbond:PRO:107    0
Name: 37, dtype: object

>  <hbond:GLY:108>  (38) 
hbond:GLY:108    0
hbond:GLY:108    0
Name: 37, dtype: object

>  <halogenbond:GLY:108>  (38) 
halogenbond:GLY:108    0
halogenbond:GLY:108    0
Name: 37, dtype: object

>  <hbond:ASP:109>  (38) 
hbond:ASP:109    0
hbond:ASP:109    0
Name: 37, dtype: object

>  <hydroph_interaction:ASP:109>  (38) 
hydroph_interaction:ASP:109    0
hydroph_interaction:ASP:109    0
Name: 37, dtype: object

>  <saltbridge:ASP:109>  (38) 
saltbridge:ASP:109    0
saltbridge:ASP:109    0
Name: 37, dtype: object

>  <hbond:CYS:110>  (38) 
hbond:CYS:110    0
hbond:CYS:110    0
Name: 37, dtype: object

>  <halogenbond:CYS:110>  (38) 
halogenbond:CYS:110    0
halogenbond:CYS:110    0
Name: 37, dtype: object

>  <hbond:GLY:111>  (38) 
hbond:GLY:111    0
hbond:GLY:111    0
Name: 37, dtype: object

>  <hbond:GLY:112>  (38) 
hbond:GLY:112    0
hbond:GLY:112    0
Name: 37, dtype: object

>  <hbond:ILE:113>  (38) 
hbond:ILE:113    0
hbond:ILE:113    0
Name: 37, dtype: object

>  <hydroph_interaction:LEU:114>  (38) 
hydroph_interaction:LEU:114    0
hydroph_interaction:LEU:114    0
Name: 37, dtype: object

>  <hbond:LEU:114>  (38) 
hbond:LEU:114    0
hbond:LEU:114    0
Name: 37, dtype: object

>  <hydroph_interaction:ILE:123>  (38) 
hydroph_interaction:ILE:123    0
hydroph_interaction:ILE:123    0
Name: 37, dtype: object

>  <hbond:ILE:123>  (38) 
hbond:ILE:123    0
hbond:ILE:123    0
Name: 37, dtype: object

>  <hydroph_interaction:VAL:124>  (38) 
hydroph_interaction:VAL:124    0
hydroph_interaction:VAL:124    0
Name: 37, dtype: object

>  <hbond:VAL:124>  (38) 
hbond:VAL:124    0
hbond:VAL:124    0
Name: 37, dtype: object

>  <halogenbond:VAL:124>  (38) 
halogenbond:VAL:124    0
halogenbond:VAL:124    0
Name: 37, dtype: object

>  <hbond:SER:125>  (38) 
hbond:SER:125    0
hbond:SER:125    0
Name: 37, dtype: object

>  <halogenbond:SER:125>  (38) 
halogenbond:SER:125    0
halogenbond:SER:125    0
Name: 37, dtype: object

>  <hydroph_interaction:THR:126>  (38) 
hydroph_interaction:THR:126    0
hydroph_interaction:THR:126    0
Name: 37, dtype: object

>  <hbond:THR:126>  (38) 
hbond:THR:126    0
hbond:THR:126    0
Name: 37, dtype: object

>  <halogenbond:THR:126>  (38) 
halogenbond:THR:126    0
halogenbond:THR:126    0
Name: 37, dtype: object

>  <hbond:GLY:127>  (38) 
hbond:GLY:127    0
hbond:GLY:127    0
Name: 37, dtype: object

>  <halogenbond:GLY:127>  (38) 
halogenbond:GLY:127    0
halogenbond:GLY:127    0
Name: 37, dtype: object

>  <hydroph_interaction:GLY:127>  (38) 
hydroph_interaction:GLY:127    0
hydroph_interaction:GLY:127    0
Name: 37, dtype: object

>  <hbond:GLY:128>  (38) 
hbond:GLY:128    0
hbond:GLY:128    0
Name: 37, dtype: object

>  <halogenbond:GLY:128>  (38) 
halogenbond:GLY:128    0
halogenbond:GLY:128    0
Name: 37, dtype: object

>  <hydroph_interaction:GLY:128>  (38) 
hydroph_interaction:GLY:128    0
hydroph_interaction:GLY:128    0
Name: 37, dtype: object

>  <hbond:ASN:129>  (38) 
hbond:ASN:129    0
hbond:ASN:129    0
Name: 37, dtype: object

>  <hydroph_interaction:ASN:129>  (38) 
hydroph_interaction:ASN:129    0
hydroph_interaction:ASN:129    0
Name: 37, dtype: object

>  <halogenbond:ASN:129>  (38) 
halogenbond:ASN:129    0
halogenbond:ASN:129    0
Name: 37, dtype: object

>  <hbond:GLY:130>  (38) 
hbond:GLY:130    0
hbond:GLY:130    0
Name: 37, dtype: object

>  <hydroph_interaction:LEU:131>  (38) 
hydroph_interaction:LEU:131    0
hydroph_interaction:LEU:131    0
Name: 37, dtype: object

>  <hbond:LEU:131>  (38) 
hbond:LEU:131    0
hbond:LEU:131    0
Name: 37, dtype: object

>  <halogenbond:LEU:131>  (38) 
halogenbond:LEU:131    0
halogenbond:LEU:131    0
Name: 37, dtype: object

>  <hydroph_interaction:VAL:132>  (38) 
hydroph_interaction:VAL:132    0
hydroph_interaction:VAL:132    0
Name: 37, dtype: object

>  <hbond:VAL:132>  (38) 
hbond:VAL:132    0
hbond:VAL:132    0
Name: 37, dtype: object

>  <hbond:GLY:133>  (38) 
hbond:GLY:133    0
hbond:GLY:133    0
Name: 37, dtype: object

>  <halogenbond:GLY:133>  (38) 
halogenbond:GLY:133    0
halogenbond:GLY:133    0
Name: 37, dtype: object

>  <hydroph_interaction:PHE:134>  (38) 
hydroph_interaction:PHE:134    0
hydroph_interaction:PHE:134    0
Name: 37, dtype: object

>  <hbond:PHE:134>  (38) 
hbond:PHE:134    0
hbond:PHE:134    0
Name: 37, dtype: object

>  <pistack:PHE:134>  (38) 
pistack:PHE:134    0
pistack:PHE:134    0
Name: 37, dtype: object

>  <pication:PHE:134>  (38) 
pication:PHE:134    0
pication:PHE:134    0
Name: 37, dtype: object

>  <hydroph_interaction:ALA:135>  (38) 
hydroph_interaction:ALA:135    0
hydroph_interaction:ALA:135    0
Name: 37, dtype: object

>  <hbond:ALA:135>  (38) 
hbond:ALA:135    0
hbond:ALA:135    0
Name: 37, dtype: object

$$$$
Z2698440606
     RDKit          3D

 28 29  0  0  0  0  0  0  0  0999 V2000
   12.5480   15.3620   22.0590 C   0  0  0  0  0  0  0  0  0  0  0  0
   11.2980   14.6070   22.0170 N   0  0  0  0  0  0  0  0  0  0  0  0
   10.4510   14.9830   20.9000 C   0  0  0  0  0  0  0  0  0  0  0  0
   10.8260   14.1570   23.2570 C   0  0  0  0  0  0  0  0  0  0  0  0
   11.0540   14.8280   24.2650 O   0  0  0  0  0  0  0  0  0  0  0  0
   10.0820   12.8350   23.4820 C   0  0  0  0  0  0  0  0  0  0  0  0
   10.4850   11.6130   22.8260 N   0  0  0  0  0  0  0  0  0  0  0  0
    9.6840   10.6430   23.2460 N   0  0  0  0  0  0  0  0  0  0  0  0
    9.8850    9.3230   22.7450 C   0  0  0  0  0  0  0  0  0  0  0  0
    8.7320   11.0970   24.1550 C   0  0  0  0  0  0  0  0  0  0  0  0
    7.7290   10.4630   24.8460 C   0  0  0  0  0  0  0  0  0  0  0  0
    6.8980   11.2700   25.7190 C   0  0  0  0  0  0  0  0  0  0  0  0
    7.1120   12.6320   25.8530 C   0  0  0  0  0  0  0  0  0  0  0  0
    8.1490   13.2390   25.1420 C   0  0  0  0  0  0  0  0  0  0  0  0
    8.9620   12.4860   24.3000 C   0  0  0  0  0  0  0  0  0  0  0  0
   12.9620   15.4770   21.0630 H   0  0  0  0  0  0  0  0  0  0  0  0
   13.2010   14.8890   22.7890 H   0  0  0  0  0  0  0  0  0  0  0  0
   12.3350   16.3710   22.4300 H   0  0  0  0  0  0  0  0  0  0  0  0
   10.5930   16.0560   20.7180 H   0  0  0  0  0  0  0  0  0  0  0  0
   10.7540   14.4240   20.0090 H   0  0  0  0  0  0  0  0  0  0  0  0
    9.3970   14.7770   21.0710 H   0  0  0  0  0  0  0  0  0  0  0  0
   10.5370    8.7540   23.4130 H   0  0  0  0  0  0  0  0  0  0  0  0
   10.3430    9.3460   21.7510 H   0  0  0  0  0  0  0  0  0  0  0  0
    8.9130    8.8390   22.6560 H   0  0  0  0  0  0  0  0  0  0  0  0
    7.4990    9.4160   24.7970 H   0  0  0  0  0  0  0  0  0  0  0  0
    6.0880   10.7930   26.2790 H   0  0  0  0  0  0  0  0  0  0  0  0
    6.4770   13.2290   26.5120 H   0  0  0  0  0  0  0  0  0  0  0  0
    8.3240   14.3070   25.2500 H   0  0  0  0  0  0  0  0  0  0  0  0
  1  2  1  0
  2  3  1  0
  2  4  1  0
  4  5  2  0
  4  6  1  0
  6  7  2  0
  7  8  1  0
  8  9  1  0
  8 10  1  0
 10 11  2  0
 11 12  1  0
 12 13  2  0
 13 14  1  0
 14 15  2  0
 15  6  1  0
 15 10  1  0
  1 16  1  0
  1 17  1  0
  1 18  1  0
  3 19  1  0
  3 20  1  0
  3 21  1  0
  9 22  1  0
  9 23  1  0
  9 24  1  0
 11 25  1  0
 12 26  1  0
 13 27  1  0
 14 28  1  0
A    1
 C1 
A    2
 N1 
A    3
 C2 
A    4
 C3 
A    5
 O1 
A    6
 C4 
A    7
 N2 
A    8
 N3 
A    9
 C5 
A   10
 C6 
A   11
 C7 
A   12
 C8 
A   13
 C9 
A   14
 C10
A   15
 C11
A   16
 H1 
A   17
 H2 
A   18
 H3 
A   19
 H4 
A   20
 H5 
A   21
 H6 
A   22
 H7 
A   23
 H8 
A   24
 H9 
A   25
 H10
A   26
 H11
A   27
 H12
A   28
 H13
M  END
>  <ref_pdb>  (39) 
x0310_0A

>  <ref_mols>  (39) 
x0451_0A,x0528_0A

>  <original SMILES>  (39) 
CN(C)C(=O)c1nn(C)c2ccccc12

>  <rationale>  (39) 
info hbond:E88; hydroph_interaction:P107; 

>  <intxn_cluster>  (39) 
208

>  <intxn_cluster_rank>  (39) 
163

>  <N_interactions>  (39) 
2

>  <∆∆G>  (39) 
-10.811295

>  <$/mg>  (39) 
163.0

>  <comRMSD>  (39) 
0.778863

>  <N_rotatable_bonds>  (39) 
4

>  <hbond:SER:7>  (39) 
hbond:SER:7    0
hbond:SER:7    0
Name: 38, dtype: object

>  <halogenbond:SER:7>  (39) 
halogenbond:SER:7    0
halogenbond:SER:7    0
Name: 38, dtype: object

>  <hbond:GLY:8>  (39) 
hbond:GLY:8    0
hbond:GLY:8    0
Name: 38, dtype: object

>  <hydroph_interaction:ASN:19>  (39) 
hydroph_interaction:ASN:19    0
hydroph_interaction:ASN:19    0
Name: 38, dtype: object

>  <hbond:ASN:19>  (39) 
hbond:ASN:19    0
hbond:ASN:19    0
Name: 38, dtype: object

>  <halogenbond:ASN:19>  (39) 
halogenbond:ASN:19    0
halogenbond:ASN:19    0
Name: 38, dtype: object

>  <hbond:ARG:20>  (39) 
hbond:ARG:20    0
hbond:ARG:20    0
Name: 38, dtype: object

>  <hydroph_interaction:ARG:20>  (39) 
hydroph_interaction:ARG:20    0
hydroph_interaction:ARG:20    0
Name: 38, dtype: object

>  <saltbridge:ARG:20>  (39) 
saltbridge:ARG:20    0
saltbridge:ARG:20    0
Name: 38, dtype: object

>  <halogenbond:ARG:20>  (39) 
halogenbond:ARG:20    0
halogenbond:ARG:20    0
Name: 38, dtype: object

>  <pication:ARG:20>  (39) 
pication:ARG:20    0
pication:ARG:20    0
Name: 38, dtype: object

>  <hbond:HIS:21>  (39) 
hbond:HIS:21    0
hbond:HIS:21    0
Name: 38, dtype: object

>  <hydroph_interaction:HIS:21>  (39) 
hydroph_interaction:HIS:21    0
hydroph_interaction:HIS:21    0
Name: 38, dtype: object

>  <saltbridge:HIS:21>  (39) 
saltbridge:HIS:21    0
saltbridge:HIS:21    0
Name: 38, dtype: object

>  <pistack:HIS:21>  (39) 
pistack:HIS:21    0
pistack:HIS:21    0
Name: 38, dtype: object

>  <pication:HIS:21>  (39) 
pication:HIS:21    0
pication:HIS:21    0
Name: 38, dtype: object

>  <halogenbond:HIS:21>  (39) 
halogenbond:HIS:21    0
halogenbond:HIS:21    0
Name: 38, dtype: object

>  <hydroph_interaction:LEU:22>  (39) 
hydroph_interaction:LEU:22    0
hydroph_interaction:LEU:22    0
Name: 38, dtype: object

>  <hbond:LEU:22>  (39) 
hbond:LEU:22    0
hbond:LEU:22    0
Name: 38, dtype: object

>  <hydroph_interaction:TRP:28>  (39) 
hydroph_interaction:TRP:28    0
hydroph_interaction:TRP:28    0
Name: 38, dtype: object

>  <hbond:SER:36>  (39) 
hbond:SER:36    0
hbond:SER:36    0
Name: 38, dtype: object

>  <halogenbond:SER:36>  (39) 
halogenbond:SER:36    0
halogenbond:SER:36    0
Name: 38, dtype: object

>  <hbond:ARG:38>  (39) 
hbond:ARG:38    0
hbond:ARG:38    0
Name: 38, dtype: object

>  <halogenbond:ARG:38>  (39) 
halogenbond:ARG:38    0
halogenbond:ARG:38    0
Name: 38, dtype: object

>  <hbond:ASP:39>  (39) 
hbond:ASP:39    0
hbond:ASP:39    0
Name: 38, dtype: object

>  <saltbridge:ASP:39>  (39) 
saltbridge:ASP:39    0
saltbridge:ASP:39    0
Name: 38, dtype: object

>  <hydroph_interaction:ASP:39>  (39) 
hydroph_interaction:ASP:39    0
hydroph_interaction:ASP:39    0
Name: 38, dtype: object

>  <halogenbond:ASP:39>  (39) 
halogenbond:ASP:39    0
halogenbond:ASP:39    0
Name: 38, dtype: object

>  <hydroph_interaction:LEU:40>  (39) 
hydroph_interaction:LEU:40    0
hydroph_interaction:LEU:40    0
Name: 38, dtype: object

>  <hydroph_interaction:TYR:63>  (39) 
hydroph_interaction:TYR:63    0
hydroph_interaction:TYR:63    0
Name: 38, dtype: object

>  <pistack:TYR:63>  (39) 
pistack:TYR:63    0
pistack:TYR:63    0
Name: 38, dtype: object

>  <hbond:TYR:63>  (39) 
hbond:TYR:63    0
hbond:TYR:63    0
Name: 38, dtype: object

>  <hbond:TYR:64>  (39) 
hbond:TYR:64    0
hbond:TYR:64    0
Name: 38, dtype: object

>  <halogenbond:TYR:64>  (39) 
halogenbond:TYR:64    0
halogenbond:TYR:64    0
Name: 38, dtype: object

>  <hydroph_interaction:TYR:64>  (39) 
hydroph_interaction:TYR:64    0
hydroph_interaction:TYR:64    0
Name: 38, dtype: object

>  <hbond:CYS:65>  (39) 
hbond:CYS:65    0
hbond:CYS:65    0
Name: 38, dtype: object

>  <halogenbond:CYS:65>  (39) 
halogenbond:CYS:65    0
halogenbond:CYS:65    0
Name: 38, dtype: object

>  <hbond:SER:66>  (39) 
hbond:SER:66    0
hbond:SER:66    0
Name: 38, dtype: object

>  <hbond:SER:67>  (39) 
hbond:SER:67    0
hbond:SER:67    0
Name: 38, dtype: object

>  <halogenbond:SER:67>  (39) 
halogenbond:SER:67    0
halogenbond:SER:67    0
Name: 38, dtype: object

>  <hydroph_interaction:ARG:68>  (39) 
hydroph_interaction:ARG:68    0
hydroph_interaction:ARG:68    0
Name: 38, dtype: object

>  <hbond:ARG:68>  (39) 
hbond:ARG:68    0
hbond:ARG:68    0
Name: 38, dtype: object

>  <saltbridge:ARG:68>  (39) 
saltbridge:ARG:68    0
saltbridge:ARG:68    0
Name: 38, dtype: object

>  <pication:ARG:68>  (39) 
pication:ARG:68    0
pication:ARG:68    0
Name: 38, dtype: object

>  <hydroph_interaction:TYR:72>  (39) 
hydroph_interaction:TYR:72    0
hydroph_interaction:TYR:72    0
Name: 38, dtype: object

>  <hydroph_interaction:VAL:74>  (39) 
hydroph_interaction:VAL:74    0
hydroph_interaction:VAL:74    0
Name: 38, dtype: object

>  <hydroph_interaction:PHE:76>  (39) 
hydroph_interaction:PHE:76    0
hydroph_interaction:PHE:76    0
Name: 38, dtype: object

>  <hbond:SER:77>  (39) 
hbond:SER:77    0
hbond:SER:77    0
Name: 38, dtype: object

>  <hbond:SER:80>  (39) 
hbond:SER:80    0
hbond:SER:80    0
Name: 38, dtype: object

>  <hbond:LEU:81>  (39) 
hbond:LEU:81    0
hbond:LEU:81    0
Name: 38, dtype: object

>  <halogenbond:LEU:81>  (39) 
halogenbond:LEU:81    0
halogenbond:LEU:81    0
Name: 38, dtype: object

>  <hydroph_interaction:LEU:81>  (39) 
hydroph_interaction:LEU:81    0
hydroph_interaction:LEU:81    0
Name: 38, dtype: object

>  <hydroph_interaction:ILE:82>  (39) 
hydroph_interaction:ILE:82    0
hydroph_interaction:ILE:82    0
Name: 38, dtype: object

>  <hbond:ILE:82>  (39) 
hbond:ILE:82    0
hbond:ILE:82    0
Name: 38, dtype: object

>  <hydroph_interaction:PHE:83>  (39) 
hydroph_interaction:PHE:83    0
hydroph_interaction:PHE:83    0
Name: 38, dtype: object

>  <hbond:PHE:83>  (39) 
hbond:PHE:83    0
hbond:PHE:83    0
Name: 38, dtype: object

>  <halogenbond:PHE:83>  (39) 
halogenbond:PHE:83    0
halogenbond:PHE:83    0
Name: 38, dtype: object

>  <pistack:PHE:83>  (39) 
pistack:PHE:83    0
pistack:PHE:83    0
Name: 38, dtype: object

>  <hydroph_interaction:VAL:84>  (39) 
hydroph_interaction:VAL:84    0
hydroph_interaction:VAL:84    0
Name: 38, dtype: object

>  <hbond:VAL:84>  (39) 
hbond:VAL:84    0
hbond:VAL:84    0
Name: 38, dtype: object

>  <halogenbond:VAL:84>  (39) 
halogenbond:VAL:84    0
halogenbond:VAL:84    0
Name: 38, dtype: object

>  <hydroph_interaction:GLU:85>  (39) 
hydroph_interaction:GLU:85    0
hydroph_interaction:GLU:85    0
Name: 38, dtype: object

>  <hbond:GLU:85>  (39) 
hbond:GLU:85    0
hbond:GLU:85    0
Name: 38, dtype: object

>  <saltbridge:GLU:85>  (39) 
saltbridge:GLU:85    0
saltbridge:GLU:85    0
Name: 38, dtype: object

>  <halogenbond:GLU:85>  (39) 
halogenbond:GLU:85    0
halogenbond:GLU:85    0
Name: 38, dtype: object

>  <hbond:ALA:86>  (39) 
hbond:ALA:86    0
hbond:ALA:86    0
Name: 38, dtype: object

>  <halogenbond:ALA:86>  (39) 
halogenbond:ALA:86    0
halogenbond:ALA:86    0
Name: 38, dtype: object

>  <hydroph_interaction:ALA:86>  (39) 
hydroph_interaction:ALA:86    0
hydroph_interaction:ALA:86    0
Name: 38, dtype: object

>  <hbond:SER:87>  (39) 
hbond:SER:87    0
hbond:SER:87    0
Name: 38, dtype: object

>  <halogenbond:SER:87>  (39) 
halogenbond:SER:87    0
halogenbond:SER:87    0
Name: 38, dtype: object

>  <hbond:GLU:88>  (39) 
hbond:GLU:88    1
hbond:GLU:88    1
Name: 38, dtype: object

>  <hydroph_interaction:GLU:88>  (39) 
hydroph_interaction:GLU:88    0
hydroph_interaction:GLU:88    0
Name: 38, dtype: object

>  <halogenbond:GLU:88>  (39) 
halogenbond:GLU:88    0
halogenbond:GLU:88    0
Name: 38, dtype: object

>  <saltbridge:GLU:88>  (39) 
saltbridge:GLU:88    0
saltbridge:GLU:88    0
Name: 38, dtype: object

>  <hydroph_interaction:TYR:89>  (39) 
hydroph_interaction:TYR:89    0
hydroph_interaction:TYR:89    0
Name: 38, dtype: object

>  <pistack:TYR:89>  (39) 
pistack:TYR:89    0
pistack:TYR:89    0
Name: 38, dtype: object

>  <hbond:TYR:89>  (39) 
hbond:TYR:89    0
hbond:TYR:89    0
Name: 38, dtype: object

>  <halogenbond:TYR:89>  (39) 
halogenbond:TYR:89    0
halogenbond:TYR:89    0
Name: 38, dtype: object

>  <hbond:TYR:90>  (39) 
hbond:TYR:90    0
hbond:TYR:90    0
Name: 38, dtype: object

>  <hydroph_interaction:TYR:90>  (39) 
hydroph_interaction:TYR:90    0
hydroph_interaction:TYR:90    0
Name: 38, dtype: object

>  <pistack:TYR:90>  (39) 
pistack:TYR:90    0
pistack:TYR:90    0
Name: 38, dtype: object

>  <halogenbond:TYR:90>  (39) 
halogenbond:TYR:90    0
halogenbond:TYR:90    0
Name: 38, dtype: object

>  <pication:TYR:90>  (39) 
pication:TYR:90    0
pication:TYR:90    0
Name: 38, dtype: object

>  <hydroph_interaction:PRO:91>  (39) 
hydroph_interaction:PRO:91    0
hydroph_interaction:PRO:91    0
Name: 38, dtype: object

>  <halogenbond:PRO:91>  (39) 
halogenbond:PRO:91    0
halogenbond:PRO:91    0
Name: 38, dtype: object

>  <hbond:PRO:91>  (39) 
hbond:PRO:91    0
hbond:PRO:91    0
Name: 38, dtype: object

>  <hydroph_interaction:ALA:92>  (39) 
hydroph_interaction:ALA:92    0
hydroph_interaction:ALA:92    0
Name: 38, dtype: object

>  <hbond:ARG:93>  (39) 
hbond:ARG:93    0
hbond:ARG:93    0
Name: 38, dtype: object

>  <pication:ARG:93>  (39) 
pication:ARG:93    0
pication:ARG:93    0
Name: 38, dtype: object

>  <saltbridge:ARG:93>  (39) 
saltbridge:ARG:93    0
saltbridge:ARG:93    0
Name: 38, dtype: object

>  <hydroph_interaction:ARG:93>  (39) 
hydroph_interaction:ARG:93    0
hydroph_interaction:ARG:93    0
Name: 38, dtype: object

>  <halogenbond:ARG:93>  (39) 
halogenbond:ARG:93    0
halogenbond:ARG:93    0
Name: 38, dtype: object

>  <hydroph_interaction:TYR:94>  (39) 
hydroph_interaction:TYR:94    0
hydroph_interaction:TYR:94    0
Name: 38, dtype: object

>  <hbond:TYR:94>  (39) 
hbond:TYR:94    0
hbond:TYR:94    0
Name: 38, dtype: object

>  <halogenbond:GLN:95>  (39) 
halogenbond:GLN:95    0
halogenbond:GLN:95    0
Name: 38, dtype: object

>  <hbond:GLN:95>  (39) 
hbond:GLN:95    0
hbond:GLN:95    0
Name: 38, dtype: object

>  <hydroph_interaction:GLN:95>  (39) 
hydroph_interaction:GLN:95    0
hydroph_interaction:GLN:95    0
Name: 38, dtype: object

>  <hbond:SER:96>  (39) 
hbond:SER:96    0
hbond:SER:96    0
Name: 38, dtype: object

>  <hydroph_interaction:LEU:98>  (39) 
hydroph_interaction:LEU:98    0
hydroph_interaction:LEU:98    0
Name: 38, dtype: object

>  <hbond:LEU:98>  (39) 
hbond:LEU:98    0
hbond:LEU:98    0
Name: 38, dtype: object

>  <hbond:MET:99>  (39) 
hbond:MET:99    0
hbond:MET:99    0
Name: 38, dtype: object

>  <hydroph_interaction:MET:99>  (39) 
hydroph_interaction:MET:99    0
hydroph_interaction:MET:99    0
Name: 38, dtype: object

>  <halogenbond:MET:99>  (39) 
halogenbond:MET:99    0
halogenbond:MET:99    0
Name: 38, dtype: object

>  <hydroph_interaction:LEU:100>  (39) 
hydroph_interaction:LEU:100    0
hydroph_interaction:LEU:100    0
Name: 38, dtype: object

>  <hbond:LEU:100>  (39) 
hbond:LEU:100    0
hbond:LEU:100    0
Name: 38, dtype: object

>  <hbond:ALA:101>  (39) 
hbond:ALA:101    0
hbond:ALA:101    0
Name: 38, dtype: object

>  <hydroph_interaction:ALA:101>  (39) 
hydroph_interaction:ALA:101    0
hydroph_interaction:ALA:101    0
Name: 38, dtype: object

>  <hydroph_interaction:VAL:102>  (39) 
hydroph_interaction:VAL:102    0
hydroph_interaction:VAL:102    0
Name: 38, dtype: object

>  <hbond:VAL:102>  (39) 
hbond:VAL:102    0
hbond:VAL:102    0
Name: 38, dtype: object

>  <hbond:GLY:103>  (39) 
hbond:GLY:103    0
hbond:GLY:103    0
Name: 38, dtype: object

>  <halogenbond:GLY:103>  (39) 
halogenbond:GLY:103    0
halogenbond:GLY:103    0
Name: 38, dtype: object

>  <hydroph_interaction:HIS:104>  (39) 
hydroph_interaction:HIS:104    0
hydroph_interaction:HIS:104    0
Name: 38, dtype: object

>  <hbond:HIS:104>  (39) 
hbond:HIS:104    0
hbond:HIS:104    0
Name: 38, dtype: object

>  <saltbridge:HIS:104>  (39) 
saltbridge:HIS:104    0
saltbridge:HIS:104    0
Name: 38, dtype: object

>  <pication:HIS:104>  (39) 
pication:HIS:104    0
pication:HIS:104    0
Name: 38, dtype: object

>  <pistack:HIS:104>  (39) 
pistack:HIS:104    0
pistack:HIS:104    0
Name: 38, dtype: object

>  <halogenbond:HIS:104>  (39) 
halogenbond:HIS:104    0
halogenbond:HIS:104    0
Name: 38, dtype: object

>  <hbond:SER:105>  (39) 
hbond:SER:105    0
hbond:SER:105    0
Name: 38, dtype: object

>  <halogenbond:SER:105>  (39) 
halogenbond:SER:105    0
halogenbond:SER:105    0
Name: 38, dtype: object

>  <hbond:GLU:106>  (39) 
hbond:GLU:106    0
hbond:GLU:106    0
Name: 38, dtype: object

>  <hydroph_interaction:GLU:106>  (39) 
hydroph_interaction:GLU:106    0
hydroph_interaction:GLU:106    0
Name: 38, dtype: object

>  <saltbridge:GLU:106>  (39) 
saltbridge:GLU:106    0
saltbridge:GLU:106    0
Name: 38, dtype: object

>  <halogenbond:GLU:106>  (39) 
halogenbond:GLU:106    0
halogenbond:GLU:106    0
Name: 38, dtype: object

>  <hydroph_interaction:PRO:107>  (39) 
hydroph_interaction:PRO:107    1
hydroph_interaction:PRO:107    1
Name: 38, dtype: object

>  <hbond:PRO:107>  (39) 
hbond:PRO:107    0
hbond:PRO:107    0
Name: 38, dtype: object

>  <halogenbond:PRO:107>  (39) 
halogenbond:PRO:107    0
halogenbond:PRO:107    0
Name: 38, dtype: object

>  <hbond:GLY:108>  (39) 
hbond:GLY:108    0
hbond:GLY:108    0
Name: 38, dtype: object

>  <halogenbond:GLY:108>  (39) 
halogenbond:GLY:108    0
halogenbond:GLY:108    0
Name: 38, dtype: object

>  <hbond:ASP:109>  (39) 
hbond:ASP:109    0
hbond:ASP:109    0
Name: 38, dtype: object

>  <hydroph_interaction:ASP:109>  (39) 
hydroph_interaction:ASP:109    0
hydroph_interaction:ASP:109    0
Name: 38, dtype: object

>  <saltbridge:ASP:109>  (39) 
saltbridge:ASP:109    0
saltbridge:ASP:109    0
Name: 38, dtype: object

>  <hbond:CYS:110>  (39) 
hbond:CYS:110    0
hbond:CYS:110    0
Name: 38, dtype: object

>  <halogenbond:CYS:110>  (39) 
halogenbond:CYS:110    0
halogenbond:CYS:110    0
Name: 38, dtype: object

>  <hbond:GLY:111>  (39) 
hbond:GLY:111    0
hbond:GLY:111    0
Name: 38, dtype: object

>  <hbond:GLY:112>  (39) 
hbond:GLY:112    0
hbond:GLY:112    0
Name: 38, dtype: object

>  <hbond:ILE:113>  (39) 
hbond:ILE:113    0
hbond:ILE:113    0
Name: 38, dtype: object

>  <hydroph_interaction:LEU:114>  (39) 
hydroph_interaction:LEU:114    0
hydroph_interaction:LEU:114    0
Name: 38, dtype: object

>  <hbond:LEU:114>  (39) 
hbond:LEU:114    0
hbond:LEU:114    0
Name: 38, dtype: object

>  <hydroph_interaction:ILE:123>  (39) 
hydroph_interaction:ILE:123    0
hydroph_interaction:ILE:123    0
Name: 38, dtype: object

>  <hbond:ILE:123>  (39) 
hbond:ILE:123    0
hbond:ILE:123    0
Name: 38, dtype: object

>  <hydroph_interaction:VAL:124>  (39) 
hydroph_interaction:VAL:124    0
hydroph_interaction:VAL:124    0
Name: 38, dtype: object

>  <hbond:VAL:124>  (39) 
hbond:VAL:124    0
hbond:VAL:124    0
Name: 38, dtype: object

>  <halogenbond:VAL:124>  (39) 
halogenbond:VAL:124    0
halogenbond:VAL:124    0
Name: 38, dtype: object

>  <hbond:SER:125>  (39) 
hbond:SER:125    0
hbond:SER:125    0
Name: 38, dtype: object

>  <halogenbond:SER:125>  (39) 
halogenbond:SER:125    0
halogenbond:SER:125    0
Name: 38, dtype: object

>  <hydroph_interaction:THR:126>  (39) 
hydroph_interaction:THR:126    0
hydroph_interaction:THR:126    0
Name: 38, dtype: object

>  <hbond:THR:126>  (39) 
hbond:THR:126    0
hbond:THR:126    0
Name: 38, dtype: object

>  <halogenbond:THR:126>  (39) 
halogenbond:THR:126    0
halogenbond:THR:126    0
Name: 38, dtype: object

>  <hbond:GLY:127>  (39) 
hbond:GLY:127    0
hbond:GLY:127    0
Name: 38, dtype: object

>  <halogenbond:GLY:127>  (39) 
halogenbond:GLY:127    0
halogenbond:GLY:127    0
Name: 38, dtype: object

>  <hydroph_interaction:GLY:127>  (39) 
hydroph_interaction:GLY:127    0
hydroph_interaction:GLY:127    0
Name: 38, dtype: object

>  <hbond:GLY:128>  (39) 
hbond:GLY:128    0
hbond:GLY:128    0
Name: 38, dtype: object

>  <halogenbond:GLY:128>  (39) 
halogenbond:GLY:128    0
halogenbond:GLY:128    0
Name: 38, dtype: object

>  <hydroph_interaction:GLY:128>  (39) 
hydroph_interaction:GLY:128    0
hydroph_interaction:GLY:128    0
Name: 38, dtype: object

>  <hbond:ASN:129>  (39) 
hbond:ASN:129    0
hbond:ASN:129    0
Name: 38, dtype: object

>  <hydroph_interaction:ASN:129>  (39) 
hydroph_interaction:ASN:129    0
hydroph_interaction:ASN:129    0
Name: 38, dtype: object

>  <halogenbond:ASN:129>  (39) 
halogenbond:ASN:129    0
halogenbond:ASN:129    0
Name: 38, dtype: object

>  <hbond:GLY:130>  (39) 
hbond:GLY:130    0
hbond:GLY:130    0
Name: 38, dtype: object

>  <hydroph_interaction:LEU:131>  (39) 
hydroph_interaction:LEU:131    0
hydroph_interaction:LEU:131    0
Name: 38, dtype: object

>  <hbond:LEU:131>  (39) 
hbond:LEU:131    0
hbond:LEU:131    0
Name: 38, dtype: object

>  <halogenbond:LEU:131>  (39) 
halogenbond:LEU:131    0
halogenbond:LEU:131    0
Name: 38, dtype: object

>  <hydroph_interaction:VAL:132>  (39) 
hydroph_interaction:VAL:132    0
hydroph_interaction:VAL:132    0
Name: 38, dtype: object

>  <hbond:VAL:132>  (39) 
hbond:VAL:132    0
hbond:VAL:132    0
Name: 38, dtype: object

>  <hbond:GLY:133>  (39) 
hbond:GLY:133    0
hbond:GLY:133    0
Name: 38, dtype: object

>  <halogenbond:GLY:133>  (39) 
halogenbond:GLY:133    0
halogenbond:GLY:133    0
Name: 38, dtype: object

>  <hydroph_interaction:PHE:134>  (39) 
hydroph_interaction:PHE:134    0
hydroph_interaction:PHE:134    0
Name: 38, dtype: object

>  <hbond:PHE:134>  (39) 
hbond:PHE:134    0
hbond:PHE:134    0
Name: 38, dtype: object

>  <pistack:PHE:134>  (39) 
pistack:PHE:134    0
pistack:PHE:134    0
Name: 38, dtype: object

>  <pication:PHE:134>  (39) 
pication:PHE:134    0
pication:PHE:134    0
Name: 38, dtype: object

>  <hydroph_interaction:ALA:135>  (39) 
hydroph_interaction:ALA:135    0
hydroph_interaction:ALA:135    0
Name: 38, dtype: object

>  <hbond:ALA:135>  (39) 
hbond:ALA:135    0
hbond:ALA:135    0
Name: 38, dtype: object

$$$$
Z5088932893
     RDKit          3D

 28 29  0  0  0  0  0  0  0  0999 V2000
   10.1940    8.7640   22.8600 C   0  0  0  0  0  0  0  0  0  0  0  0
    9.6440   10.0790   23.3100 C   0  0  0  0  0  0  0  0  0  0  0  0
    8.6580   10.1170   24.2710 C   0  0  0  0  0  0  0  0  0  0  0  0
    8.1960   11.3740   24.6360 C   0  0  0  0  0  0  0  0  0  0  0  0
    8.7350   12.5780   24.0190 C   0  0  0  0  0  0  0  0  0  0  0  0
    8.0950   13.6400   24.5670 N   0  0  0  0  0  0  0  0  0  0  0  0
    7.2120   13.1050   25.4730 C   0  0  0  0  0  0  0  0  0  0  0  0
    7.2600   11.7700   25.5270 N   0  0  0  0  0  0  0  0  0  0  0  0
    9.7260   12.4870   23.0520 C   0  0  0  0  0  0  0  0  0  0  0  0
   10.3030   13.6840   22.3840 C   0  0  0  0  0  0  0  0  0  0  0  0
    9.6210   14.2260   21.5230 O   0  0  0  0  0  0  0  0  0  0  0  0
   11.5370   14.1250   22.7460 N   0  0  0  0  0  0  0  0  0  0  0  0
   12.2840   14.7500   21.8310 C   0  0  0  0  0  0  0  0  0  0  0  0
   11.9230   14.3570   24.1220 C   0  0  0  0  0  0  0  0  0  0  0  0
   10.1530   11.2120   22.7320 C   0  0  0  0  0  0  0  0  0  0  0  0
   10.1620    8.0560   23.6630 H   0  0  0  0  0  0  0  0  0  0  0  0
    9.6010    8.3630   22.0330 H   0  0  0  0  0  0  0  0  0  0  0  0
   11.2120    8.8910   22.5070 H   0  0  0  0  0  0  0  0  0  0  0  0
    8.2860    9.2010   24.6950 H   0  0  0  0  0  0  0  0  0  0  0  0
    8.2680   14.6080   24.3240 H   0  0  0  0  0  0  0  0  0  0  0  0
    6.5520   13.7380   26.0730 H   0  0  0  0  0  0  0  0  0  0  0  0
   11.8070   15.6910   21.5430 H   0  0  0  0  0  0  0  0  0  0  0  0
   13.2220   15.0090   22.2990 H   0  0  0  0  0  0  0  0  0  0  0  0
   12.4970   14.2180   20.9140 H   0  0  0  0  0  0  0  0  0  0  0  0
   12.1860   15.4020   24.3170 H   0  0  0  0  0  0  0  0  0  0  0  0
   12.8070   13.7490   24.3360 H   0  0  0  0  0  0  0  0  0  0  0  0
   11.1000   14.0480   24.7710 H   0  0  0  0  0  0  0  0  0  0  0  0
   10.9190   11.1000   21.9910 H   0  0  0  0  0  0  0  0  0  0  0  0
  1  2  1  0
  2  3  2  0
  3  4  1  0
  4  5  2  0
  5  6  1  0
  6  7  1  0
  7  8  2  0
  5  9  1  0
  9 10  1  0
 10 11  2  0
 10 12  1  0
 12 13  1  0
 12 14  1  0
  9 15  2  0
 15  2  1  0
  8  4  1  0
  1 16  1  0
  1 17  1  0
  1 18  1  0
  3 19  1  0
  6 20  1  0
  7 21  1  0
 13 22  1  0
 13 23  1  0
 13 24  1  0
 14 25  1  0
 14 26  1  0
 14 27  1  0
 15 28  1  0
A    1
 C1 
A    2
 C2 
A    3
 C3 
A    4
 C4 
A    5
 C5 
A    6
 N1 
A    7
 C6 
A    8
 N2 
A    9
 C7 
A   10
 C8 
A   11
 O1 
A   12
 N3 
A   13
 C9 
A   14
 C10
A   15
 C11
A   16
 H1 
A   17
 H2 
A   18
 H3 
A   19
 H4 
A   20
 H5 
A   21
 H6 
A   22
 H7 
A   23
 H8 
A   24
 H9 
A   25
 H10
A   26
 H11
A   27
 H12
A   28
 H13
M  END
>  <ref_pdb>  (40) 
x0310_0A

>  <ref_mols>  (40) 
x0554_0A,x0739_0A

>  <original SMILES>  (40) 
Cc1cc(C(=O)N(C)C)c2[nH]cnc2c1

>  <rationale>  (40) 
info hbond:S87; hydroph_interaction:V124; 

>  <intxn_cluster>  (40) 
103

>  <intxn_cluster_rank>  (40) 
165

>  <N_interactions>  (40) 
2

>  <∆∆G>  (40) 
-11.432849

>  <$/mg>  (40) 
163.0

>  <comRMSD>  (40) 
0.766929

>  <N_rotatable_bonds>  (40) 
4

>  <hbond:SER:7>  (40) 
hbond:SER:7    0
hbond:SER:7    0
Name: 39, dtype: object

>  <halogenbond:SER:7>  (40) 
halogenbond:SER:7    0
halogenbond:SER:7    0
Name: 39, dtype: object

>  <hbond:GLY:8>  (40) 
hbond:GLY:8    0
hbond:GLY:8    0
Name: 39, dtype: object

>  <hydroph_interaction:ASN:19>  (40) 
hydroph_interaction:ASN:19    0
hydroph_interaction:ASN:19    0
Name: 39, dtype: object

>  <hbond:ASN:19>  (40) 
hbond:ASN:19    0
hbond:ASN:19    0
Name: 39, dtype: object

>  <halogenbond:ASN:19>  (40) 
halogenbond:ASN:19    0
halogenbond:ASN:19    0
Name: 39, dtype: object

>  <hbond:ARG:20>  (40) 
hbond:ARG:20    0
hbond:ARG:20    0
Name: 39, dtype: object

>  <hydroph_interaction:ARG:20>  (40) 
hydroph_interaction:ARG:20    0
hydroph_interaction:ARG:20    0
Name: 39, dtype: object

>  <saltbridge:ARG:20>  (40) 
saltbridge:ARG:20    0
saltbridge:ARG:20    0
Name: 39, dtype: object

>  <halogenbond:ARG:20>  (40) 
halogenbond:ARG:20    0
halogenbond:ARG:20    0
Name: 39, dtype: object

>  <pication:ARG:20>  (40) 
pication:ARG:20    0
pication:ARG:20    0
Name: 39, dtype: object

>  <hbond:HIS:21>  (40) 
hbond:HIS:21    0
hbond:HIS:21    0
Name: 39, dtype: object

>  <hydroph_interaction:HIS:21>  (40) 
hydroph_interaction:HIS:21    0
hydroph_interaction:HIS:21    0
Name: 39, dtype: object

>  <saltbridge:HIS:21>  (40) 
saltbridge:HIS:21    0
saltbridge:HIS:21    0
Name: 39, dtype: object

>  <pistack:HIS:21>  (40) 
pistack:HIS:21    0
pistack:HIS:21    0
Name: 39, dtype: object

>  <pication:HIS:21>  (40) 
pication:HIS:21    0
pication:HIS:21    0
Name: 39, dtype: object

>  <halogenbond:HIS:21>  (40) 
halogenbond:HIS:21    0
halogenbond:HIS:21    0
Name: 39, dtype: object

>  <hydroph_interaction:LEU:22>  (40) 
hydroph_interaction:LEU:22    0
hydroph_interaction:LEU:22    0
Name: 39, dtype: object

>  <hbond:LEU:22>  (40) 
hbond:LEU:22    0
hbond:LEU:22    0
Name: 39, dtype: object

>  <hydroph_interaction:TRP:28>  (40) 
hydroph_interaction:TRP:28    0
hydroph_interaction:TRP:28    0
Name: 39, dtype: object

>  <hbond:SER:36>  (40) 
hbond:SER:36    0
hbond:SER:36    0
Name: 39, dtype: object

>  <halogenbond:SER:36>  (40) 
halogenbond:SER:36    0
halogenbond:SER:36    0
Name: 39, dtype: object

>  <hbond:ARG:38>  (40) 
hbond:ARG:38    0
hbond:ARG:38    0
Name: 39, dtype: object

>  <halogenbond:ARG:38>  (40) 
halogenbond:ARG:38    0
halogenbond:ARG:38    0
Name: 39, dtype: object

>  <hbond:ASP:39>  (40) 
hbond:ASP:39    0
hbond:ASP:39    0
Name: 39, dtype: object

>  <saltbridge:ASP:39>  (40) 
saltbridge:ASP:39    0
saltbridge:ASP:39    0
Name: 39, dtype: object

>  <hydroph_interaction:ASP:39>  (40) 
hydroph_interaction:ASP:39    0
hydroph_interaction:ASP:39    0
Name: 39, dtype: object

>  <halogenbond:ASP:39>  (40) 
halogenbond:ASP:39    0
halogenbond:ASP:39    0
Name: 39, dtype: object

>  <hydroph_interaction:LEU:40>  (40) 
hydroph_interaction:LEU:40    0
hydroph_interaction:LEU:40    0
Name: 39, dtype: object

>  <hydroph_interaction:TYR:63>  (40) 
hydroph_interaction:TYR:63    0
hydroph_interaction:TYR:63    0
Name: 39, dtype: object

>  <pistack:TYR:63>  (40) 
pistack:TYR:63    0
pistack:TYR:63    0
Name: 39, dtype: object

>  <hbond:TYR:63>  (40) 
hbond:TYR:63    0
hbond:TYR:63    0
Name: 39, dtype: object

>  <hbond:TYR:64>  (40) 
hbond:TYR:64    0
hbond:TYR:64    0
Name: 39, dtype: object

>  <halogenbond:TYR:64>  (40) 
halogenbond:TYR:64    0
halogenbond:TYR:64    0
Name: 39, dtype: object

>  <hydroph_interaction:TYR:64>  (40) 
hydroph_interaction:TYR:64    0
hydroph_interaction:TYR:64    0
Name: 39, dtype: object

>  <hbond:CYS:65>  (40) 
hbond:CYS:65    0
hbond:CYS:65    0
Name: 39, dtype: object

>  <halogenbond:CYS:65>  (40) 
halogenbond:CYS:65    0
halogenbond:CYS:65    0
Name: 39, dtype: object

>  <hbond:SER:66>  (40) 
hbond:SER:66    0
hbond:SER:66    0
Name: 39, dtype: object

>  <hbond:SER:67>  (40) 
hbond:SER:67    0
hbond:SER:67    0
Name: 39, dtype: object

>  <halogenbond:SER:67>  (40) 
halogenbond:SER:67    0
halogenbond:SER:67    0
Name: 39, dtype: object

>  <hydroph_interaction:ARG:68>  (40) 
hydroph_interaction:ARG:68    0
hydroph_interaction:ARG:68    0
Name: 39, dtype: object

>  <hbond:ARG:68>  (40) 
hbond:ARG:68    0
hbond:ARG:68    0
Name: 39, dtype: object

>  <saltbridge:ARG:68>  (40) 
saltbridge:ARG:68    0
saltbridge:ARG:68    0
Name: 39, dtype: object

>  <pication:ARG:68>  (40) 
pication:ARG:68    0
pication:ARG:68    0
Name: 39, dtype: object

>  <hydroph_interaction:TYR:72>  (40) 
hydroph_interaction:TYR:72    0
hydroph_interaction:TYR:72    0
Name: 39, dtype: object

>  <hydroph_interaction:VAL:74>  (40) 
hydroph_interaction:VAL:74    0
hydroph_interaction:VAL:74    0
Name: 39, dtype: object

>  <hydroph_interaction:PHE:76>  (40) 
hydroph_interaction:PHE:76    0
hydroph_interaction:PHE:76    0
Name: 39, dtype: object

>  <hbond:SER:77>  (40) 
hbond:SER:77    0
hbond:SER:77    0
Name: 39, dtype: object

>  <hbond:SER:80>  (40) 
hbond:SER:80    0
hbond:SER:80    0
Name: 39, dtype: object

>  <hbond:LEU:81>  (40) 
hbond:LEU:81    0
hbond:LEU:81    0
Name: 39, dtype: object

>  <halogenbond:LEU:81>  (40) 
halogenbond:LEU:81    0
halogenbond:LEU:81    0
Name: 39, dtype: object

>  <hydroph_interaction:LEU:81>  (40) 
hydroph_interaction:LEU:81    0
hydroph_interaction:LEU:81    0
Name: 39, dtype: object

>  <hydroph_interaction:ILE:82>  (40) 
hydroph_interaction:ILE:82    0
hydroph_interaction:ILE:82    0
Name: 39, dtype: object

>  <hbond:ILE:82>  (40) 
hbond:ILE:82    0
hbond:ILE:82    0
Name: 39, dtype: object

>  <hydroph_interaction:PHE:83>  (40) 
hydroph_interaction:PHE:83    0
hydroph_interaction:PHE:83    0
Name: 39, dtype: object

>  <hbond:PHE:83>  (40) 
hbond:PHE:83    0
hbond:PHE:83    0
Name: 39, dtype: object

>  <halogenbond:PHE:83>  (40) 
halogenbond:PHE:83    0
halogenbond:PHE:83    0
Name: 39, dtype: object

>  <pistack:PHE:83>  (40) 
pistack:PHE:83    0
pistack:PHE:83    0
Name: 39, dtype: object

>  <hydroph_interaction:VAL:84>  (40) 
hydroph_interaction:VAL:84    0
hydroph_interaction:VAL:84    0
Name: 39, dtype: object

>  <hbond:VAL:84>  (40) 
hbond:VAL:84    0
hbond:VAL:84    0
Name: 39, dtype: object

>  <halogenbond:VAL:84>  (40) 
halogenbond:VAL:84    0
halogenbond:VAL:84    0
Name: 39, dtype: object

>  <hydroph_interaction:GLU:85>  (40) 
hydroph_interaction:GLU:85    0
hydroph_interaction:GLU:85    0
Name: 39, dtype: object

>  <hbond:GLU:85>  (40) 
hbond:GLU:85    0
hbond:GLU:85    0
Name: 39, dtype: object

>  <saltbridge:GLU:85>  (40) 
saltbridge:GLU:85    0
saltbridge:GLU:85    0
Name: 39, dtype: object

>  <halogenbond:GLU:85>  (40) 
halogenbond:GLU:85    0
halogenbond:GLU:85    0
Name: 39, dtype: object

>  <hbond:ALA:86>  (40) 
hbond:ALA:86    0
hbond:ALA:86    0
Name: 39, dtype: object

>  <halogenbond:ALA:86>  (40) 
halogenbond:ALA:86    0
halogenbond:ALA:86    0
Name: 39, dtype: object

>  <hydroph_interaction:ALA:86>  (40) 
hydroph_interaction:ALA:86    0
hydroph_interaction:ALA:86    0
Name: 39, dtype: object

>  <hbond:SER:87>  (40) 
hbond:SER:87    1
hbond:SER:87    1
Name: 39, dtype: object

>  <halogenbond:SER:87>  (40) 
halogenbond:SER:87    0
halogenbond:SER:87    0
Name: 39, dtype: object

>  <hbond:GLU:88>  (40) 
hbond:GLU:88    0
hbond:GLU:88    0
Name: 39, dtype: object

>  <hydroph_interaction:GLU:88>  (40) 
hydroph_interaction:GLU:88    0
hydroph_interaction:GLU:88    0
Name: 39, dtype: object

>  <halogenbond:GLU:88>  (40) 
halogenbond:GLU:88    0
halogenbond:GLU:88    0
Name: 39, dtype: object

>  <saltbridge:GLU:88>  (40) 
saltbridge:GLU:88    0
saltbridge:GLU:88    0
Name: 39, dtype: object

>  <hydroph_interaction:TYR:89>  (40) 
hydroph_interaction:TYR:89    0
hydroph_interaction:TYR:89    0
Name: 39, dtype: object

>  <pistack:TYR:89>  (40) 
pistack:TYR:89    0
pistack:TYR:89    0
Name: 39, dtype: object

>  <hbond:TYR:89>  (40) 
hbond:TYR:89    0
hbond:TYR:89    0
Name: 39, dtype: object

>  <halogenbond:TYR:89>  (40) 
halogenbond:TYR:89    0
halogenbond:TYR:89    0
Name: 39, dtype: object

>  <hbond:TYR:90>  (40) 
hbond:TYR:90    0
hbond:TYR:90    0
Name: 39, dtype: object

>  <hydroph_interaction:TYR:90>  (40) 
hydroph_interaction:TYR:90    0
hydroph_interaction:TYR:90    0
Name: 39, dtype: object

>  <pistack:TYR:90>  (40) 
pistack:TYR:90    0
pistack:TYR:90    0
Name: 39, dtype: object

>  <halogenbond:TYR:90>  (40) 
halogenbond:TYR:90    0
halogenbond:TYR:90    0
Name: 39, dtype: object

>  <pication:TYR:90>  (40) 
pication:TYR:90    0
pication:TYR:90    0
Name: 39, dtype: object

>  <hydroph_interaction:PRO:91>  (40) 
hydroph_interaction:PRO:91    0
hydroph_interaction:PRO:91    0
Name: 39, dtype: object

>  <halogenbond:PRO:91>  (40) 
halogenbond:PRO:91    0
halogenbond:PRO:91    0
Name: 39, dtype: object

>  <hbond:PRO:91>  (40) 
hbond:PRO:91    0
hbond:PRO:91    0
Name: 39, dtype: object

>  <hydroph_interaction:ALA:92>  (40) 
hydroph_interaction:ALA:92    0
hydroph_interaction:ALA:92    0
Name: 39, dtype: object

>  <hbond:ARG:93>  (40) 
hbond:ARG:93    0
hbond:ARG:93    0
Name: 39, dtype: object

>  <pication:ARG:93>  (40) 
pication:ARG:93    0
pication:ARG:93    0
Name: 39, dtype: object

>  <saltbridge:ARG:93>  (40) 
saltbridge:ARG:93    0
saltbridge:ARG:93    0
Name: 39, dtype: object

>  <hydroph_interaction:ARG:93>  (40) 
hydroph_interaction:ARG:93    0
hydroph_interaction:ARG:93    0
Name: 39, dtype: object

>  <halogenbond:ARG:93>  (40) 
halogenbond:ARG:93    0
halogenbond:ARG:93    0
Name: 39, dtype: object

>  <hydroph_interaction:TYR:94>  (40) 
hydroph_interaction:TYR:94    0
hydroph_interaction:TYR:94    0
Name: 39, dtype: object

>  <hbond:TYR:94>  (40) 
hbond:TYR:94    0
hbond:TYR:94    0
Name: 39, dtype: object

>  <halogenbond:GLN:95>  (40) 
halogenbond:GLN:95    0
halogenbond:GLN:95    0
Name: 39, dtype: object

>  <hbond:GLN:95>  (40) 
hbond:GLN:95    0
hbond:GLN:95    0
Name: 39, dtype: object

>  <hydroph_interaction:GLN:95>  (40) 
hydroph_interaction:GLN:95    0
hydroph_interaction:GLN:95    0
Name: 39, dtype: object

>  <hbond:SER:96>  (40) 
hbond:SER:96    0
hbond:SER:96    0
Name: 39, dtype: object

>  <hydroph_interaction:LEU:98>  (40) 
hydroph_interaction:LEU:98    0
hydroph_interaction:LEU:98    0
Name: 39, dtype: object

>  <hbond:LEU:98>  (40) 
hbond:LEU:98    0
hbond:LEU:98    0
Name: 39, dtype: object

>  <hbond:MET:99>  (40) 
hbond:MET:99    0
hbond:MET:99    0
Name: 39, dtype: object

>  <hydroph_interaction:MET:99>  (40) 
hydroph_interaction:MET:99    0
hydroph_interaction:MET:99    0
Name: 39, dtype: object

>  <halogenbond:MET:99>  (40) 
halogenbond:MET:99    0
halogenbond:MET:99    0
Name: 39, dtype: object

>  <hydroph_interaction:LEU:100>  (40) 
hydroph_interaction:LEU:100    0
hydroph_interaction:LEU:100    0
Name: 39, dtype: object

>  <hbond:LEU:100>  (40) 
hbond:LEU:100    0
hbond:LEU:100    0
Name: 39, dtype: object

>  <hbond:ALA:101>  (40) 
hbond:ALA:101    0
hbond:ALA:101    0
Name: 39, dtype: object

>  <hydroph_interaction:ALA:101>  (40) 
hydroph_interaction:ALA:101    0
hydroph_interaction:ALA:101    0
Name: 39, dtype: object

>  <hydroph_interaction:VAL:102>  (40) 
hydroph_interaction:VAL:102    0
hydroph_interaction:VAL:102    0
Name: 39, dtype: object

>  <hbond:VAL:102>  (40) 
hbond:VAL:102    0
hbond:VAL:102    0
Name: 39, dtype: object

>  <hbond:GLY:103>  (40) 
hbond:GLY:103    0
hbond:GLY:103    0
Name: 39, dtype: object

>  <halogenbond:GLY:103>  (40) 
halogenbond:GLY:103    0
halogenbond:GLY:103    0
Name: 39, dtype: object

>  <hydroph_interaction:HIS:104>  (40) 
hydroph_interaction:HIS:104    0
hydroph_interaction:HIS:104    0
Name: 39, dtype: object

>  <hbond:HIS:104>  (40) 
hbond:HIS:104    0
hbond:HIS:104    0
Name: 39, dtype: object

>  <saltbridge:HIS:104>  (40) 
saltbridge:HIS:104    0
saltbridge:HIS:104    0
Name: 39, dtype: object

>  <pication:HIS:104>  (40) 
pication:HIS:104    0
pication:HIS:104    0
Name: 39, dtype: object

>  <pistack:HIS:104>  (40) 
pistack:HIS:104    0
pistack:HIS:104    0
Name: 39, dtype: object

>  <halogenbond:HIS:104>  (40) 
halogenbond:HIS:104    0
halogenbond:HIS:104    0
Name: 39, dtype: object

>  <hbond:SER:105>  (40) 
hbond:SER:105    0
hbond:SER:105    0
Name: 39, dtype: object

>  <halogenbond:SER:105>  (40) 
halogenbond:SER:105    0
halogenbond:SER:105    0
Name: 39, dtype: object

>  <hbond:GLU:106>  (40) 
hbond:GLU:106    0
hbond:GLU:106    0
Name: 39, dtype: object

>  <hydroph_interaction:GLU:106>  (40) 
hydroph_interaction:GLU:106    0
hydroph_interaction:GLU:106    0
Name: 39, dtype: object

>  <saltbridge:GLU:106>  (40) 
saltbridge:GLU:106    0
saltbridge:GLU:106    0
Name: 39, dtype: object

>  <halogenbond:GLU:106>  (40) 
halogenbond:GLU:106    0
halogenbond:GLU:106    0
Name: 39, dtype: object

>  <hydroph_interaction:PRO:107>  (40) 
hydroph_interaction:PRO:107    0
hydroph_interaction:PRO:107    0
Name: 39, dtype: object

>  <hbond:PRO:107>  (40) 
hbond:PRO:107    0
hbond:PRO:107    0
Name: 39, dtype: object

>  <halogenbond:PRO:107>  (40) 
halogenbond:PRO:107    0
halogenbond:PRO:107    0
Name: 39, dtype: object

>  <hbond:GLY:108>  (40) 
hbond:GLY:108    0
hbond:GLY:108    0
Name: 39, dtype: object

>  <halogenbond:GLY:108>  (40) 
halogenbond:GLY:108    0
halogenbond:GLY:108    0
Name: 39, dtype: object

>  <hbond:ASP:109>  (40) 
hbond:ASP:109    0
hbond:ASP:109    0
Name: 39, dtype: object

>  <hydroph_interaction:ASP:109>  (40) 
hydroph_interaction:ASP:109    0
hydroph_interaction:ASP:109    0
Name: 39, dtype: object

>  <saltbridge:ASP:109>  (40) 
saltbridge:ASP:109    0
saltbridge:ASP:109    0
Name: 39, dtype: object

>  <hbond:CYS:110>  (40) 
hbond:CYS:110    0
hbond:CYS:110    0
Name: 39, dtype: object

>  <halogenbond:CYS:110>  (40) 
halogenbond:CYS:110    0
halogenbond:CYS:110    0
Name: 39, dtype: object

>  <hbond:GLY:111>  (40) 
hbond:GLY:111    0
hbond:GLY:111    0
Name: 39, dtype: object

>  <hbond:GLY:112>  (40) 
hbond:GLY:112    0
hbond:GLY:112    0
Name: 39, dtype: object

>  <hbond:ILE:113>  (40) 
hbond:ILE:113    0
hbond:ILE:113    0
Name: 39, dtype: object

>  <hydroph_interaction:LEU:114>  (40) 
hydroph_interaction:LEU:114    0
hydroph_interaction:LEU:114    0
Name: 39, dtype: object

>  <hbond:LEU:114>  (40) 
hbond:LEU:114    0
hbond:LEU:114    0
Name: 39, dtype: object

>  <hydroph_interaction:ILE:123>  (40) 
hydroph_interaction:ILE:123    0
hydroph_interaction:ILE:123    0
Name: 39, dtype: object

>  <hbond:ILE:123>  (40) 
hbond:ILE:123    0
hbond:ILE:123    0
Name: 39, dtype: object

>  <hydroph_interaction:VAL:124>  (40) 
hydroph_interaction:VAL:124    1
hydroph_interaction:VAL:124    1
Name: 39, dtype: object

>  <hbond:VAL:124>  (40) 
hbond:VAL:124    0
hbond:VAL:124    0
Name: 39, dtype: object

>  <halogenbond:VAL:124>  (40) 
halogenbond:VAL:124    0
halogenbond:VAL:124    0
Name: 39, dtype: object

>  <hbond:SER:125>  (40) 
hbond:SER:125    0
hbond:SER:125    0
Name: 39, dtype: object

>  <halogenbond:SER:125>  (40) 
halogenbond:SER:125    0
halogenbond:SER:125    0
Name: 39, dtype: object

>  <hydroph_interaction:THR:126>  (40) 
hydroph_interaction:THR:126    0
hydroph_interaction:THR:126    0
Name: 39, dtype: object

>  <hbond:THR:126>  (40) 
hbond:THR:126    0
hbond:THR:126    0
Name: 39, dtype: object

>  <halogenbond:THR:126>  (40) 
halogenbond:THR:126    0
halogenbond:THR:126    0
Name: 39, dtype: object

>  <hbond:GLY:127>  (40) 
hbond:GLY:127    0
hbond:GLY:127    0
Name: 39, dtype: object

>  <halogenbond:GLY:127>  (40) 
halogenbond:GLY:127    0
halogenbond:GLY:127    0
Name: 39, dtype: object

>  <hydroph_interaction:GLY:127>  (40) 
hydroph_interaction:GLY:127    0
hydroph_interaction:GLY:127    0
Name: 39, dtype: object

>  <hbond:GLY:128>  (40) 
hbond:GLY:128    0
hbond:GLY:128    0
Name: 39, dtype: object

>  <halogenbond:GLY:128>  (40) 
halogenbond:GLY:128    0
halogenbond:GLY:128    0
Name: 39, dtype: object

>  <hydroph_interaction:GLY:128>  (40) 
hydroph_interaction:GLY:128    0
hydroph_interaction:GLY:128    0
Name: 39, dtype: object

>  <hbond:ASN:129>  (40) 
hbond:ASN:129    0
hbond:ASN:129    0
Name: 39, dtype: object

>  <hydroph_interaction:ASN:129>  (40) 
hydroph_interaction:ASN:129    0
hydroph_interaction:ASN:129    0
Name: 39, dtype: object

>  <halogenbond:ASN:129>  (40) 
halogenbond:ASN:129    0
halogenbond:ASN:129    0
Name: 39, dtype: object

>  <hbond:GLY:130>  (40) 
hbond:GLY:130    0
hbond:GLY:130    0
Name: 39, dtype: object

>  <hydroph_interaction:LEU:131>  (40) 
hydroph_interaction:LEU:131    0
hydroph_interaction:LEU:131    0
Name: 39, dtype: object

>  <hbond:LEU:131>  (40) 
hbond:LEU:131    0
hbond:LEU:131    0
Name: 39, dtype: object

>  <halogenbond:LEU:131>  (40) 
halogenbond:LEU:131    0
halogenbond:LEU:131    0
Name: 39, dtype: object

>  <hydroph_interaction:VAL:132>  (40) 
hydroph_interaction:VAL:132    0
hydroph_interaction:VAL:132    0
Name: 39, dtype: object

>  <hbond:VAL:132>  (40) 
hbond:VAL:132    0
hbond:VAL:132    0
Name: 39, dtype: object

>  <hbond:GLY:133>  (40) 
hbond:GLY:133    0
hbond:GLY:133    0
Name: 39, dtype: object

>  <halogenbond:GLY:133>  (40) 
halogenbond:GLY:133    0
halogenbond:GLY:133    0
Name: 39, dtype: object

>  <hydroph_interaction:PHE:134>  (40) 
hydroph_interaction:PHE:134    0
hydroph_interaction:PHE:134    0
Name: 39, dtype: object

>  <hbond:PHE:134>  (40) 
hbond:PHE:134    0
hbond:PHE:134    0
Name: 39, dtype: object

>  <pistack:PHE:134>  (40) 
pistack:PHE:134    0
pistack:PHE:134    0
Name: 39, dtype: object

>  <pication:PHE:134>  (40) 
pication:PHE:134    0
pication:PHE:134    0
Name: 39, dtype: object

>  <hydroph_interaction:ALA:135>  (40) 
hydroph_interaction:ALA:135    0
hydroph_interaction:ALA:135    0
Name: 39, dtype: object

>  <hbond:ALA:135>  (40) 
hbond:ALA:135    0
hbond:ALA:135    0
Name: 39, dtype: object

$$$$
PV_002096006765
     RDKit          3D

 22 22  0  0  0  0  0  0  0  0999 V2000
   12.2930   14.6950   21.7630 C   0  0  0  0  0  0  0  0  0  0  0  0
   11.4860   13.9380   22.7130 N   0  0  0  0  0  0  0  0  0  0  0  0
   11.8130   14.2120   24.0920 C   0  0  0  0  0  0  0  0  0  0  0  0
   10.1940   13.5100   22.4480 C   0  0  0  0  0  0  0  0  0  0  0  0
    9.4850   14.0480   21.6050 O   0  0  0  0  0  0  0  0  0  0  0  0
    9.6460   12.4840   23.1200 C   0  0  0  0  0  0  0  0  0  0  0  0
   10.0190   11.0880   22.8670 C   0  0  0  0  0  0  0  0  0  0  0  0
    9.4040   10.0770   23.5940 C   0  0  0  0  0  0  0  0  0  0  0  0
    8.4410   10.3750   24.5550 C   0  0  0  0  0  0  0  0  0  0  0  0
    8.0870   11.6900   24.8020 C   0  0  0  0  0  0  0  0  0  0  0  0
    8.6700   12.7380   24.1050 C   0  0  0  0  0  0  0  0  0  0  0  0
    8.2810   13.9880   24.3910 F   0  0  0  0  0  0  0  0  0  0  0  0
   12.5000   14.0690   20.8850 H   0  0  0  0  0  0  0  0  0  0  0  0
   13.2400   14.9680   22.2380 H   0  0  0  0  0  0  0  0  0  0  0  0
   11.8070   15.6120   21.4220 H   0  0  0  0  0  0  0  0  0  0  0  0
   12.7060   13.6340   24.3590 H   0  0  0  0  0  0  0  0  0  0  0  0
   10.9930   13.8700   24.7340 H   0  0  0  0  0  0  0  0  0  0  0  0
   12.0030   15.2740   24.2800 H   0  0  0  0  0  0  0  0  0  0  0  0
   10.7590   10.8140   22.1290 H   0  0  0  0  0  0  0  0  0  0  0  0
    9.6750    9.0480   23.4090 H   0  0  0  0  0  0  0  0  0  0  0  0
    7.9780    9.5670   25.1010 H   0  0  0  0  0  0  0  0  0  0  0  0
    7.3350   11.9050   25.5570 H   0  0  0  0  0  0  0  0  0  0  0  0
  1  2  1  0
  2  3  1  0
  2  4  1  0
  4  5  2  0
  4  6  1  0
  6  7  2  0
  7  8  1  0
  8  9  2  0
  9 10  1  0
 10 11  2  0
 11 12  1  0
 11  6  1  0
  1 13  1  0
  1 14  1  0
  1 15  1  0
  3 16  1  0
  3 17  1  0
  3 18  1  0
  7 19  1  0
  8 20  1  0
  9 21  1  0
 10 22  1  0
A    1
 C1 
A    2
 N1 
A    3
 C2 
A    4
 C3 
A    5
 O1 
A    6
 C4 
A    7
 C5 
A    8
 C6 
A    9
 C7 
A   10
 C8 
A   11
 C9 
A   12
 F1 
A   13
 H1 
A   14
 H2 
A   15
 H3 
A   16
 H4 
A   17
 H5 
A   18
 H6 
A   19
 H7 
A   20
 H8 
A   21
 H9 
A   22
 H10
M  END
>  <ref_pdb>  (41) 
x0310_0A

>  <ref_mols>  (41) 
x0554_0A,x0739_0A,x0416_0A

>  <original SMILES>  (41) 
CN(C)C(=O)c1ccccc1F

>  <rationale>  (41) 
info hbond:S87; hydroph_interaction:P107; 

>  <intxn_cluster>  (41) 
208

>  <intxn_cluster_rank>  (41) 
170

>  <N_interactions>  (41) 
2

>  <∆∆G>  (41) 
-9.070935

>  <$/mg>  (41) 
73.9

>  <comRMSD>  (41) 
0.915299

>  <N_rotatable_bonds>  (41) 
3

>  <hbond:SER:7>  (41) 
hbond:SER:7    0
hbond:SER:7    0
Name: 40, dtype: object

>  <halogenbond:SER:7>  (41) 
halogenbond:SER:7    0
halogenbond:SER:7    0
Name: 40, dtype: object

>  <hbond:GLY:8>  (41) 
hbond:GLY:8    0
hbond:GLY:8    0
Name: 40, dtype: object

>  <hydroph_interaction:ASN:19>  (41) 
hydroph_interaction:ASN:19    0
hydroph_interaction:ASN:19    0
Name: 40, dtype: object

>  <hbond:ASN:19>  (41) 
hbond:ASN:19    0
hbond:ASN:19    0
Name: 40, dtype: object

>  <halogenbond:ASN:19>  (41) 
halogenbond:ASN:19    0
halogenbond:ASN:19    0
Name: 40, dtype: object

>  <hbond:ARG:20>  (41) 
hbond:ARG:20    0
hbond:ARG:20    0
Name: 40, dtype: object

>  <hydroph_interaction:ARG:20>  (41) 
hydroph_interaction:ARG:20    0
hydroph_interaction:ARG:20    0
Name: 40, dtype: object

>  <saltbridge:ARG:20>  (41) 
saltbridge:ARG:20    0
saltbridge:ARG:20    0
Name: 40, dtype: object

>  <halogenbond:ARG:20>  (41) 
halogenbond:ARG:20    0
halogenbond:ARG:20    0
Name: 40, dtype: object

>  <pication:ARG:20>  (41) 
pication:ARG:20    0
pication:ARG:20    0
Name: 40, dtype: object

>  <hbond:HIS:21>  (41) 
hbond:HIS:21    0
hbond:HIS:21    0
Name: 40, dtype: object

>  <hydroph_interaction:HIS:21>  (41) 
hydroph_interaction:HIS:21    0
hydroph_interaction:HIS:21    0
Name: 40, dtype: object

>  <saltbridge:HIS:21>  (41) 
saltbridge:HIS:21    0
saltbridge:HIS:21    0
Name: 40, dtype: object

>  <pistack:HIS:21>  (41) 
pistack:HIS:21    0
pistack:HIS:21    0
Name: 40, dtype: object

>  <pication:HIS:21>  (41) 
pication:HIS:21    0
pication:HIS:21    0
Name: 40, dtype: object

>  <halogenbond:HIS:21>  (41) 
halogenbond:HIS:21    0
halogenbond:HIS:21    0
Name: 40, dtype: object

>  <hydroph_interaction:LEU:22>  (41) 
hydroph_interaction:LEU:22    0
hydroph_interaction:LEU:22    0
Name: 40, dtype: object

>  <hbond:LEU:22>  (41) 
hbond:LEU:22    0
hbond:LEU:22    0
Name: 40, dtype: object

>  <hydroph_interaction:TRP:28>  (41) 
hydroph_interaction:TRP:28    0
hydroph_interaction:TRP:28    0
Name: 40, dtype: object

>  <hbond:SER:36>  (41) 
hbond:SER:36    0
hbond:SER:36    0
Name: 40, dtype: object

>  <halogenbond:SER:36>  (41) 
halogenbond:SER:36    0
halogenbond:SER:36    0
Name: 40, dtype: object

>  <hbond:ARG:38>  (41) 
hbond:ARG:38    0
hbond:ARG:38    0
Name: 40, dtype: object

>  <halogenbond:ARG:38>  (41) 
halogenbond:ARG:38    0
halogenbond:ARG:38    0
Name: 40, dtype: object

>  <hbond:ASP:39>  (41) 
hbond:ASP:39    0
hbond:ASP:39    0
Name: 40, dtype: object

>  <saltbridge:ASP:39>  (41) 
saltbridge:ASP:39    0
saltbridge:ASP:39    0
Name: 40, dtype: object

>  <hydroph_interaction:ASP:39>  (41) 
hydroph_interaction:ASP:39    0
hydroph_interaction:ASP:39    0
Name: 40, dtype: object

>  <halogenbond:ASP:39>  (41) 
halogenbond:ASP:39    0
halogenbond:ASP:39    0
Name: 40, dtype: object

>  <hydroph_interaction:LEU:40>  (41) 
hydroph_interaction:LEU:40    0
hydroph_interaction:LEU:40    0
Name: 40, dtype: object

>  <hydroph_interaction:TYR:63>  (41) 
hydroph_interaction:TYR:63    0
hydroph_interaction:TYR:63    0
Name: 40, dtype: object

>  <pistack:TYR:63>  (41) 
pistack:TYR:63    0
pistack:TYR:63    0
Name: 40, dtype: object

>  <hbond:TYR:63>  (41) 
hbond:TYR:63    0
hbond:TYR:63    0
Name: 40, dtype: object

>  <hbond:TYR:64>  (41) 
hbond:TYR:64    0
hbond:TYR:64    0
Name: 40, dtype: object

>  <halogenbond:TYR:64>  (41) 
halogenbond:TYR:64    0
halogenbond:TYR:64    0
Name: 40, dtype: object

>  <hydroph_interaction:TYR:64>  (41) 
hydroph_interaction:TYR:64    0
hydroph_interaction:TYR:64    0
Name: 40, dtype: object

>  <hbond:CYS:65>  (41) 
hbond:CYS:65    0
hbond:CYS:65    0
Name: 40, dtype: object

>  <halogenbond:CYS:65>  (41) 
halogenbond:CYS:65    0
halogenbond:CYS:65    0
Name: 40, dtype: object

>  <hbond:SER:66>  (41) 
hbond:SER:66    0
hbond:SER:66    0
Name: 40, dtype: object

>  <hbond:SER:67>  (41) 
hbond:SER:67    0
hbond:SER:67    0
Name: 40, dtype: object

>  <halogenbond:SER:67>  (41) 
halogenbond:SER:67    0
halogenbond:SER:67    0
Name: 40, dtype: object

>  <hydroph_interaction:ARG:68>  (41) 
hydroph_interaction:ARG:68    0
hydroph_interaction:ARG:68    0
Name: 40, dtype: object

>  <hbond:ARG:68>  (41) 
hbond:ARG:68    0
hbond:ARG:68    0
Name: 40, dtype: object

>  <saltbridge:ARG:68>  (41) 
saltbridge:ARG:68    0
saltbridge:ARG:68    0
Name: 40, dtype: object

>  <pication:ARG:68>  (41) 
pication:ARG:68    0
pication:ARG:68    0
Name: 40, dtype: object

>  <hydroph_interaction:TYR:72>  (41) 
hydroph_interaction:TYR:72    0
hydroph_interaction:TYR:72    0
Name: 40, dtype: object

>  <hydroph_interaction:VAL:74>  (41) 
hydroph_interaction:VAL:74    0
hydroph_interaction:VAL:74    0
Name: 40, dtype: object

>  <hydroph_interaction:PHE:76>  (41) 
hydroph_interaction:PHE:76    0
hydroph_interaction:PHE:76    0
Name: 40, dtype: object

>  <hbond:SER:77>  (41) 
hbond:SER:77    0
hbond:SER:77    0
Name: 40, dtype: object

>  <hbond:SER:80>  (41) 
hbond:SER:80    0
hbond:SER:80    0
Name: 40, dtype: object

>  <hbond:LEU:81>  (41) 
hbond:LEU:81    0
hbond:LEU:81    0
Name: 40, dtype: object

>  <halogenbond:LEU:81>  (41) 
halogenbond:LEU:81    0
halogenbond:LEU:81    0
Name: 40, dtype: object

>  <hydroph_interaction:LEU:81>  (41) 
hydroph_interaction:LEU:81    0
hydroph_interaction:LEU:81    0
Name: 40, dtype: object

>  <hydroph_interaction:ILE:82>  (41) 
hydroph_interaction:ILE:82    0
hydroph_interaction:ILE:82    0
Name: 40, dtype: object

>  <hbond:ILE:82>  (41) 
hbond:ILE:82    0
hbond:ILE:82    0
Name: 40, dtype: object

>  <hydroph_interaction:PHE:83>  (41) 
hydroph_interaction:PHE:83    0
hydroph_interaction:PHE:83    0
Name: 40, dtype: object

>  <hbond:PHE:83>  (41) 
hbond:PHE:83    0
hbond:PHE:83    0
Name: 40, dtype: object

>  <halogenbond:PHE:83>  (41) 
halogenbond:PHE:83    0
halogenbond:PHE:83    0
Name: 40, dtype: object

>  <pistack:PHE:83>  (41) 
pistack:PHE:83    0
pistack:PHE:83    0
Name: 40, dtype: object

>  <hydroph_interaction:VAL:84>  (41) 
hydroph_interaction:VAL:84    0
hydroph_interaction:VAL:84    0
Name: 40, dtype: object

>  <hbond:VAL:84>  (41) 
hbond:VAL:84    0
hbond:VAL:84    0
Name: 40, dtype: object

>  <halogenbond:VAL:84>  (41) 
halogenbond:VAL:84    0
halogenbond:VAL:84    0
Name: 40, dtype: object

>  <hydroph_interaction:GLU:85>  (41) 
hydroph_interaction:GLU:85    0
hydroph_interaction:GLU:85    0
Name: 40, dtype: object

>  <hbond:GLU:85>  (41) 
hbond:GLU:85    0
hbond:GLU:85    0
Name: 40, dtype: object

>  <saltbridge:GLU:85>  (41) 
saltbridge:GLU:85    0
saltbridge:GLU:85    0
Name: 40, dtype: object

>  <halogenbond:GLU:85>  (41) 
halogenbond:GLU:85    0
halogenbond:GLU:85    0
Name: 40, dtype: object

>  <hbond:ALA:86>  (41) 
hbond:ALA:86    0
hbond:ALA:86    0
Name: 40, dtype: object

>  <halogenbond:ALA:86>  (41) 
halogenbond:ALA:86    0
halogenbond:ALA:86    0
Name: 40, dtype: object

>  <hydroph_interaction:ALA:86>  (41) 
hydroph_interaction:ALA:86    0
hydroph_interaction:ALA:86    0
Name: 40, dtype: object

>  <hbond:SER:87>  (41) 
hbond:SER:87    1
hbond:SER:87    1
Name: 40, dtype: object

>  <halogenbond:SER:87>  (41) 
halogenbond:SER:87    0
halogenbond:SER:87    0
Name: 40, dtype: object

>  <hbond:GLU:88>  (41) 
hbond:GLU:88    0
hbond:GLU:88    0
Name: 40, dtype: object

>  <hydroph_interaction:GLU:88>  (41) 
hydroph_interaction:GLU:88    0
hydroph_interaction:GLU:88    0
Name: 40, dtype: object

>  <halogenbond:GLU:88>  (41) 
halogenbond:GLU:88    0
halogenbond:GLU:88    0
Name: 40, dtype: object

>  <saltbridge:GLU:88>  (41) 
saltbridge:GLU:88    0
saltbridge:GLU:88    0
Name: 40, dtype: object

>  <hydroph_interaction:TYR:89>  (41) 
hydroph_interaction:TYR:89    0
hydroph_interaction:TYR:89    0
Name: 40, dtype: object

>  <pistack:TYR:89>  (41) 
pistack:TYR:89    0
pistack:TYR:89    0
Name: 40, dtype: object

>  <hbond:TYR:89>  (41) 
hbond:TYR:89    0
hbond:TYR:89    0
Name: 40, dtype: object

>  <halogenbond:TYR:89>  (41) 
halogenbond:TYR:89    0
halogenbond:TYR:89    0
Name: 40, dtype: object

>  <hbond:TYR:90>  (41) 
hbond:TYR:90    0
hbond:TYR:90    0
Name: 40, dtype: object

>  <hydroph_interaction:TYR:90>  (41) 
hydroph_interaction:TYR:90    0
hydroph_interaction:TYR:90    0
Name: 40, dtype: object

>  <pistack:TYR:90>  (41) 
pistack:TYR:90    0
pistack:TYR:90    0
Name: 40, dtype: object

>  <halogenbond:TYR:90>  (41) 
halogenbond:TYR:90    0
halogenbond:TYR:90    0
Name: 40, dtype: object

>  <pication:TYR:90>  (41) 
pication:TYR:90    0
pication:TYR:90    0
Name: 40, dtype: object

>  <hydroph_interaction:PRO:91>  (41) 
hydroph_interaction:PRO:91    0
hydroph_interaction:PRO:91    0
Name: 40, dtype: object

>  <halogenbond:PRO:91>  (41) 
halogenbond:PRO:91    0
halogenbond:PRO:91    0
Name: 40, dtype: object

>  <hbond:PRO:91>  (41) 
hbond:PRO:91    0
hbond:PRO:91    0
Name: 40, dtype: object

>  <hydroph_interaction:ALA:92>  (41) 
hydroph_interaction:ALA:92    0
hydroph_interaction:ALA:92    0
Name: 40, dtype: object

>  <hbond:ARG:93>  (41) 
hbond:ARG:93    0
hbond:ARG:93    0
Name: 40, dtype: object

>  <pication:ARG:93>  (41) 
pication:ARG:93    0
pication:ARG:93    0
Name: 40, dtype: object

>  <saltbridge:ARG:93>  (41) 
saltbridge:ARG:93    0
saltbridge:ARG:93    0
Name: 40, dtype: object

>  <hydroph_interaction:ARG:93>  (41) 
hydroph_interaction:ARG:93    0
hydroph_interaction:ARG:93    0
Name: 40, dtype: object

>  <halogenbond:ARG:93>  (41) 
halogenbond:ARG:93    0
halogenbond:ARG:93    0
Name: 40, dtype: object

>  <hydroph_interaction:TYR:94>  (41) 
hydroph_interaction:TYR:94    0
hydroph_interaction:TYR:94    0
Name: 40, dtype: object

>  <hbond:TYR:94>  (41) 
hbond:TYR:94    0
hbond:TYR:94    0
Name: 40, dtype: object

>  <halogenbond:GLN:95>  (41) 
halogenbond:GLN:95    0
halogenbond:GLN:95    0
Name: 40, dtype: object

>  <hbond:GLN:95>  (41) 
hbond:GLN:95    0
hbond:GLN:95    0
Name: 40, dtype: object

>  <hydroph_interaction:GLN:95>  (41) 
hydroph_interaction:GLN:95    0
hydroph_interaction:GLN:95    0
Name: 40, dtype: object

>  <hbond:SER:96>  (41) 
hbond:SER:96    0
hbond:SER:96    0
Name: 40, dtype: object

>  <hydroph_interaction:LEU:98>  (41) 
hydroph_interaction:LEU:98    0
hydroph_interaction:LEU:98    0
Name: 40, dtype: object

>  <hbond:LEU:98>  (41) 
hbond:LEU:98    0
hbond:LEU:98    0
Name: 40, dtype: object

>  <hbond:MET:99>  (41) 
hbond:MET:99    0
hbond:MET:99    0
Name: 40, dtype: object

>  <hydroph_interaction:MET:99>  (41) 
hydroph_interaction:MET:99    0
hydroph_interaction:MET:99    0
Name: 40, dtype: object

>  <halogenbond:MET:99>  (41) 
halogenbond:MET:99    0
halogenbond:MET:99    0
Name: 40, dtype: object

>  <hydroph_interaction:LEU:100>  (41) 
hydroph_interaction:LEU:100    0
hydroph_interaction:LEU:100    0
Name: 40, dtype: object

>  <hbond:LEU:100>  (41) 
hbond:LEU:100    0
hbond:LEU:100    0
Name: 40, dtype: object

>  <hbond:ALA:101>  (41) 
hbond:ALA:101    0
hbond:ALA:101    0
Name: 40, dtype: object

>  <hydroph_interaction:ALA:101>  (41) 
hydroph_interaction:ALA:101    0
hydroph_interaction:ALA:101    0
Name: 40, dtype: object

>  <hydroph_interaction:VAL:102>  (41) 
hydroph_interaction:VAL:102    0
hydroph_interaction:VAL:102    0
Name: 40, dtype: object

>  <hbond:VAL:102>  (41) 
hbond:VAL:102    0
hbond:VAL:102    0
Name: 40, dtype: object

>  <hbond:GLY:103>  (41) 
hbond:GLY:103    0
hbond:GLY:103    0
Name: 40, dtype: object

>  <halogenbond:GLY:103>  (41) 
halogenbond:GLY:103    0
halogenbond:GLY:103    0
Name: 40, dtype: object

>  <hydroph_interaction:HIS:104>  (41) 
hydroph_interaction:HIS:104    0
hydroph_interaction:HIS:104    0
Name: 40, dtype: object

>  <hbond:HIS:104>  (41) 
hbond:HIS:104    0
hbond:HIS:104    0
Name: 40, dtype: object

>  <saltbridge:HIS:104>  (41) 
saltbridge:HIS:104    0
saltbridge:HIS:104    0
Name: 40, dtype: object

>  <pication:HIS:104>  (41) 
pication:HIS:104    0
pication:HIS:104    0
Name: 40, dtype: object

>  <pistack:HIS:104>  (41) 
pistack:HIS:104    0
pistack:HIS:104    0
Name: 40, dtype: object

>  <halogenbond:HIS:104>  (41) 
halogenbond:HIS:104    0
halogenbond:HIS:104    0
Name: 40, dtype: object

>  <hbond:SER:105>  (41) 
hbond:SER:105    0
hbond:SER:105    0
Name: 40, dtype: object

>  <halogenbond:SER:105>  (41) 
halogenbond:SER:105    0
halogenbond:SER:105    0
Name: 40, dtype: object

>  <hbond:GLU:106>  (41) 
hbond:GLU:106    0
hbond:GLU:106    0
Name: 40, dtype: object

>  <hydroph_interaction:GLU:106>  (41) 
hydroph_interaction:GLU:106    0
hydroph_interaction:GLU:106    0
Name: 40, dtype: object

>  <saltbridge:GLU:106>  (41) 
saltbridge:GLU:106    0
saltbridge:GLU:106    0
Name: 40, dtype: object

>  <halogenbond:GLU:106>  (41) 
halogenbond:GLU:106    0
halogenbond:GLU:106    0
Name: 40, dtype: object

>  <hydroph_interaction:PRO:107>  (41) 
hydroph_interaction:PRO:107    1
hydroph_interaction:PRO:107    1
Name: 40, dtype: object

>  <hbond:PRO:107>  (41) 
hbond:PRO:107    0
hbond:PRO:107    0
Name: 40, dtype: object

>  <halogenbond:PRO:107>  (41) 
halogenbond:PRO:107    0
halogenbond:PRO:107    0
Name: 40, dtype: object

>  <hbond:GLY:108>  (41) 
hbond:GLY:108    0
hbond:GLY:108    0
Name: 40, dtype: object

>  <halogenbond:GLY:108>  (41) 
halogenbond:GLY:108    0
halogenbond:GLY:108    0
Name: 40, dtype: object

>  <hbond:ASP:109>  (41) 
hbond:ASP:109    0
hbond:ASP:109    0
Name: 40, dtype: object

>  <hydroph_interaction:ASP:109>  (41) 
hydroph_interaction:ASP:109    0
hydroph_interaction:ASP:109    0
Name: 40, dtype: object

>  <saltbridge:ASP:109>  (41) 
saltbridge:ASP:109    0
saltbridge:ASP:109    0
Name: 40, dtype: object

>  <hbond:CYS:110>  (41) 
hbond:CYS:110    0
hbond:CYS:110    0
Name: 40, dtype: object

>  <halogenbond:CYS:110>  (41) 
halogenbond:CYS:110    0
halogenbond:CYS:110    0
Name: 40, dtype: object

>  <hbond:GLY:111>  (41) 
hbond:GLY:111    0
hbond:GLY:111    0
Name: 40, dtype: object

>  <hbond:GLY:112>  (41) 
hbond:GLY:112    0
hbond:GLY:112    0
Name: 40, dtype: object

>  <hbond:ILE:113>  (41) 
hbond:ILE:113    0
hbond:ILE:113    0
Name: 40, dtype: object

>  <hydroph_interaction:LEU:114>  (41) 
hydroph_interaction:LEU:114    0
hydroph_interaction:LEU:114    0
Name: 40, dtype: object

>  <hbond:LEU:114>  (41) 
hbond:LEU:114    0
hbond:LEU:114    0
Name: 40, dtype: object

>  <hydroph_interaction:ILE:123>  (41) 
hydroph_interaction:ILE:123    0
hydroph_interaction:ILE:123    0
Name: 40, dtype: object

>  <hbond:ILE:123>  (41) 
hbond:ILE:123    0
hbond:ILE:123    0
Name: 40, dtype: object

>  <hydroph_interaction:VAL:124>  (41) 
hydroph_interaction:VAL:124    0
hydroph_interaction:VAL:124    0
Name: 40, dtype: object

>  <hbond:VAL:124>  (41) 
hbond:VAL:124    0
hbond:VAL:124    0
Name: 40, dtype: object

>  <halogenbond:VAL:124>  (41) 
halogenbond:VAL:124    0
halogenbond:VAL:124    0
Name: 40, dtype: object

>  <hbond:SER:125>  (41) 
hbond:SER:125    0
hbond:SER:125    0
Name: 40, dtype: object

>  <halogenbond:SER:125>  (41) 
halogenbond:SER:125    0
halogenbond:SER:125    0
Name: 40, dtype: object

>  <hydroph_interaction:THR:126>  (41) 
hydroph_interaction:THR:126    0
hydroph_interaction:THR:126    0
Name: 40, dtype: object

>  <hbond:THR:126>  (41) 
hbond:THR:126    0
hbond:THR:126    0
Name: 40, dtype: object

>  <halogenbond:THR:126>  (41) 
halogenbond:THR:126    0
halogenbond:THR:126    0
Name: 40, dtype: object

>  <hbond:GLY:127>  (41) 
hbond:GLY:127    0
hbond:GLY:127    0
Name: 40, dtype: object

>  <halogenbond:GLY:127>  (41) 
halogenbond:GLY:127    0
halogenbond:GLY:127    0
Name: 40, dtype: object

>  <hydroph_interaction:GLY:127>  (41) 
hydroph_interaction:GLY:127    0
hydroph_interaction:GLY:127    0
Name: 40, dtype: object

>  <hbond:GLY:128>  (41) 
hbond:GLY:128    0
hbond:GLY:128    0
Name: 40, dtype: object

>  <halogenbond:GLY:128>  (41) 
halogenbond:GLY:128    0
halogenbond:GLY:128    0
Name: 40, dtype: object

>  <hydroph_interaction:GLY:128>  (41) 
hydroph_interaction:GLY:128    0
hydroph_interaction:GLY:128    0
Name: 40, dtype: object

>  <hbond:ASN:129>  (41) 
hbond:ASN:129    0
hbond:ASN:129    0
Name: 40, dtype: object

>  <hydroph_interaction:ASN:129>  (41) 
hydroph_interaction:ASN:129    0
hydroph_interaction:ASN:129    0
Name: 40, dtype: object

>  <halogenbond:ASN:129>  (41) 
halogenbond:ASN:129    0
halogenbond:ASN:129    0
Name: 40, dtype: object

>  <hbond:GLY:130>  (41) 
hbond:GLY:130    0
hbond:GLY:130    0
Name: 40, dtype: object

>  <hydroph_interaction:LEU:131>  (41) 
hydroph_interaction:LEU:131    0
hydroph_interaction:LEU:131    0
Name: 40, dtype: object

>  <hbond:LEU:131>  (41) 
hbond:LEU:131    0
hbond:LEU:131    0
Name: 40, dtype: object

>  <halogenbond:LEU:131>  (41) 
halogenbond:LEU:131    0
halogenbond:LEU:131    0
Name: 40, dtype: object

>  <hydroph_interaction:VAL:132>  (41) 
hydroph_interaction:VAL:132    0
hydroph_interaction:VAL:132    0
Name: 40, dtype: object

>  <hbond:VAL:132>  (41) 
hbond:VAL:132    0
hbond:VAL:132    0
Name: 40, dtype: object

>  <hbond:GLY:133>  (41) 
hbond:GLY:133    0
hbond:GLY:133    0
Name: 40, dtype: object

>  <halogenbond:GLY:133>  (41) 
halogenbond:GLY:133    0
halogenbond:GLY:133    0
Name: 40, dtype: object

>  <hydroph_interaction:PHE:134>  (41) 
hydroph_interaction:PHE:134    0
hydroph_interaction:PHE:134    0
Name: 40, dtype: object

>  <hbond:PHE:134>  (41) 
hbond:PHE:134    0
hbond:PHE:134    0
Name: 40, dtype: object

>  <pistack:PHE:134>  (41) 
pistack:PHE:134    0
pistack:PHE:134    0
Name: 40, dtype: object

>  <pication:PHE:134>  (41) 
pication:PHE:134    0
pication:PHE:134    0
Name: 40, dtype: object

>  <hydroph_interaction:ALA:135>  (41) 
hydroph_interaction:ALA:135    0
hydroph_interaction:ALA:135    0
Name: 40, dtype: object

>  <hbond:ALA:135>  (41) 
hbond:ALA:135    0
hbond:ALA:135    0
Name: 40, dtype: object

$$$$
PV_006768763132
     RDKit          3D

 28 29  0  0  0  0  0  0  0  0999 V2000
   12.2700   13.8100   23.0200 C   0  0  0  0  0  0  0  0  0  0  0  0
   11.1020   14.5610   22.4430 C   0  0  0  0  0  0  0  0  0  0  0  0
   11.2820   15.4290   21.5860 O   0  0  0  0  0  0  0  0  0  0  0  0
    9.8840   14.1800   22.9820 N   0  0  0  0  0  0  0  0  0  0  0  0
    9.4710   12.9170   23.4450 C   0  0  0  0  0  0  0  0  0  0  0  0
   10.0210   11.7370   22.9560 C   0  0  0  0  0  0  0  0  0  0  0  0
    9.5850   10.5120   23.4240 C   0  0  0  0  0  0  0  0  0  0  0  0
   10.1300    9.3980   22.9320 F   0  0  0  0  0  0  0  0  0  0  0  0
    8.5960   10.4270   24.3880 C   0  0  0  0  0  0  0  0  0  0  0  0
    8.0340   11.5910   24.8970 C   0  0  0  0  0  0  0  0  0  0  0  0
    8.4580   12.8500   24.4390 C   0  0  0  0  0  0  0  0  0  0  0  0
    7.8070   14.0400   25.0340 C   0  0  0  0  0  0  0  0  0  0  0  0
    6.5280   14.5240   24.8220 C   0  0  0  0  0  0  0  0  0  0  0  0
    6.2580   15.6990   25.5920 C   0  0  0  0  0  0  0  0  0  0  0  0
    7.3270   16.0790   26.3680 C   0  0  0  0  0  0  0  0  0  0  0  0
    7.3980   17.1300   27.2070 N   0  0  0  0  0  0  0  0  0  0  0  0
    8.6490   15.0290   26.1570 S   0  0  0  0  0  0  0  0  0  0  0  0
   12.8850   14.4940   23.6160 H   0  0  0  0  0  0  0  0  0  0  0  0
   11.9390   12.9980   23.6740 H   0  0  0  0  0  0  0  0  0  0  0  0
   12.8680   13.4110   22.2010 H   0  0  0  0  0  0  0  0  0  0  0  0
    9.1100   14.7900   22.7460 H   0  0  0  0  0  0  0  0  0  0  0  0
   10.7960   11.7260   22.2020 H   0  0  0  0  0  0  0  0  0  0  0  0
    8.2710    9.4550   24.7360 H   0  0  0  0  0  0  0  0  0  0  0  0
    7.2580   11.5130   25.6560 H   0  0  0  0  0  0  0  0  0  0  0  0
    5.8170   14.0610   24.1500 H   0  0  0  0  0  0  0  0  0  0  0  0
    5.3150   16.2330   25.5720 H   0  0  0  0  0  0  0  0  0  0  0  0
    7.8330   17.0390   28.1200 H   0  0  0  0  0  0  0  0  0  0  0  0
    6.6810   17.8490   27.1630 H   0  0  0  0  0  0  0  0  0  0  0  0
  1  2  1  0
  2  3  2  0
  2  4  1  0
  4  5  1  0
  5  6  2  0
  6  7  1  0
  7  8  1  0
  7  9  2  0
  9 10  1  0
 10 11  2  0
 11 12  1  0
 12 13  2  0
 13 14  1  0
 14 15  2  0
 15 16  1  0
 15 17  1  0
 11  5  1  0
 17 12  1  0
  1 18  1  0
  1 19  1  0
  1 20  1  0
  4 21  1  0
  6 22  1  0
  9 23  1  0
 10 24  1  0
 13 25  1  0
 14 26  1  0
 16 27  1  0
 16 28  1  0
A    1
 C1 
A    2
 C2 
A    3
 O1 
A    4
 N1 
A    5
 C3 
A    6
 C4 
A    7
 C5 
A    8
 F1 
A    9
 C6 
A   10
 C7 
A   11
 C8 
A   12
 C9 
A   13
 C10
A   14
 C11
A   15
 C12
A   16
 N2 
A   17
 S1 
A   18
 H1 
A   19
 H2 
A   20
 H3 
A   21
 H4 
A   22
 H5 
A   23
 H6 
A   24
 H7 
A   25
 H8 
A   26
 H9 
A   27
 H10
A   28
 H11
M  END
>  <ref_pdb>  (42) 
x0310_0A

>  <ref_mols>  (42) 
x0416_0A,x0556_0A,x0528_0A

>  <original SMILES>  (42) 
CC(=O)Nc1cc(F)ccc1-c1ccc(N)s1

>  <rationale>  (42) 
info hbond:S87+A86; hydroph_interaction:P107; 

>  <intxn_cluster>  (42) 
208

>  <intxn_cluster_rank>  (42) 
183

>  <N_interactions>  (42) 
4

>  <∆∆G>  (42) 
-8.461021

>  <$/mg>  (42) 
163.0

>  <comRMSD>  (42) 
0.946768

>  <N_rotatable_bonds>  (42) 
4

>  <hbond:SER:7>  (42) 
hbond:SER:7    0
hbond:SER:7    0
Name: 41, dtype: object

>  <halogenbond:SER:7>  (42) 
halogenbond:SER:7    0
halogenbond:SER:7    0
Name: 41, dtype: object

>  <hbond:GLY:8>  (42) 
hbond:GLY:8    0
hbond:GLY:8    0
Name: 41, dtype: object

>  <hydroph_interaction:ASN:19>  (42) 
hydroph_interaction:ASN:19    0
hydroph_interaction:ASN:19    0
Name: 41, dtype: object

>  <hbond:ASN:19>  (42) 
hbond:ASN:19    0
hbond:ASN:19    0
Name: 41, dtype: object

>  <halogenbond:ASN:19>  (42) 
halogenbond:ASN:19    0
halogenbond:ASN:19    0
Name: 41, dtype: object

>  <hbond:ARG:20>  (42) 
hbond:ARG:20    0
hbond:ARG:20    0
Name: 41, dtype: object

>  <hydroph_interaction:ARG:20>  (42) 
hydroph_interaction:ARG:20    0
hydroph_interaction:ARG:20    0
Name: 41, dtype: object

>  <saltbridge:ARG:20>  (42) 
saltbridge:ARG:20    0
saltbridge:ARG:20    0
Name: 41, dtype: object

>  <halogenbond:ARG:20>  (42) 
halogenbond:ARG:20    0
halogenbond:ARG:20    0
Name: 41, dtype: object

>  <pication:ARG:20>  (42) 
pication:ARG:20    0
pication:ARG:20    0
Name: 41, dtype: object

>  <hbond:HIS:21>  (42) 
hbond:HIS:21    0
hbond:HIS:21    0
Name: 41, dtype: object

>  <hydroph_interaction:HIS:21>  (42) 
hydroph_interaction:HIS:21    0
hydroph_interaction:HIS:21    0
Name: 41, dtype: object

>  <saltbridge:HIS:21>  (42) 
saltbridge:HIS:21    0
saltbridge:HIS:21    0
Name: 41, dtype: object

>  <pistack:HIS:21>  (42) 
pistack:HIS:21    0
pistack:HIS:21    0
Name: 41, dtype: object

>  <pication:HIS:21>  (42) 
pication:HIS:21    0
pication:HIS:21    0
Name: 41, dtype: object

>  <halogenbond:HIS:21>  (42) 
halogenbond:HIS:21    0
halogenbond:HIS:21    0
Name: 41, dtype: object

>  <hydroph_interaction:LEU:22>  (42) 
hydroph_interaction:LEU:22    0
hydroph_interaction:LEU:22    0
Name: 41, dtype: object

>  <hbond:LEU:22>  (42) 
hbond:LEU:22    0
hbond:LEU:22    0
Name: 41, dtype: object

>  <hydroph_interaction:TRP:28>  (42) 
hydroph_interaction:TRP:28    0
hydroph_interaction:TRP:28    0
Name: 41, dtype: object

>  <hbond:SER:36>  (42) 
hbond:SER:36    0
hbond:SER:36    0
Name: 41, dtype: object

>  <halogenbond:SER:36>  (42) 
halogenbond:SER:36    0
halogenbond:SER:36    0
Name: 41, dtype: object

>  <hbond:ARG:38>  (42) 
hbond:ARG:38    0
hbond:ARG:38    0
Name: 41, dtype: object

>  <halogenbond:ARG:38>  (42) 
halogenbond:ARG:38    0
halogenbond:ARG:38    0
Name: 41, dtype: object

>  <hbond:ASP:39>  (42) 
hbond:ASP:39    0
hbond:ASP:39    0
Name: 41, dtype: object

>  <saltbridge:ASP:39>  (42) 
saltbridge:ASP:39    0
saltbridge:ASP:39    0
Name: 41, dtype: object

>  <hydroph_interaction:ASP:39>  (42) 
hydroph_interaction:ASP:39    0
hydroph_interaction:ASP:39    0
Name: 41, dtype: object

>  <halogenbond:ASP:39>  (42) 
halogenbond:ASP:39    0
halogenbond:ASP:39    0
Name: 41, dtype: object

>  <hydroph_interaction:LEU:40>  (42) 
hydroph_interaction:LEU:40    0
hydroph_interaction:LEU:40    0
Name: 41, dtype: object

>  <hydroph_interaction:TYR:63>  (42) 
hydroph_interaction:TYR:63    0
hydroph_interaction:TYR:63    0
Name: 41, dtype: object

>  <pistack:TYR:63>  (42) 
pistack:TYR:63    0
pistack:TYR:63    0
Name: 41, dtype: object

>  <hbond:TYR:63>  (42) 
hbond:TYR:63    0
hbond:TYR:63    0
Name: 41, dtype: object

>  <hbond:TYR:64>  (42) 
hbond:TYR:64    0
hbond:TYR:64    0
Name: 41, dtype: object

>  <halogenbond:TYR:64>  (42) 
halogenbond:TYR:64    0
halogenbond:TYR:64    0
Name: 41, dtype: object

>  <hydroph_interaction:TYR:64>  (42) 
hydroph_interaction:TYR:64    0
hydroph_interaction:TYR:64    0
Name: 41, dtype: object

>  <hbond:CYS:65>  (42) 
hbond:CYS:65    0
hbond:CYS:65    0
Name: 41, dtype: object

>  <halogenbond:CYS:65>  (42) 
halogenbond:CYS:65    0
halogenbond:CYS:65    0
Name: 41, dtype: object

>  <hbond:SER:66>  (42) 
hbond:SER:66    0
hbond:SER:66    0
Name: 41, dtype: object

>  <hbond:SER:67>  (42) 
hbond:SER:67    0
hbond:SER:67    0
Name: 41, dtype: object

>  <halogenbond:SER:67>  (42) 
halogenbond:SER:67    0
halogenbond:SER:67    0
Name: 41, dtype: object

>  <hydroph_interaction:ARG:68>  (42) 
hydroph_interaction:ARG:68    0
hydroph_interaction:ARG:68    0
Name: 41, dtype: object

>  <hbond:ARG:68>  (42) 
hbond:ARG:68    0
hbond:ARG:68    0
Name: 41, dtype: object

>  <saltbridge:ARG:68>  (42) 
saltbridge:ARG:68    0
saltbridge:ARG:68    0
Name: 41, dtype: object

>  <pication:ARG:68>  (42) 
pication:ARG:68    0
pication:ARG:68    0
Name: 41, dtype: object

>  <hydroph_interaction:TYR:72>  (42) 
hydroph_interaction:TYR:72    0
hydroph_interaction:TYR:72    0
Name: 41, dtype: object

>  <hydroph_interaction:VAL:74>  (42) 
hydroph_interaction:VAL:74    0
hydroph_interaction:VAL:74    0
Name: 41, dtype: object

>  <hydroph_interaction:PHE:76>  (42) 
hydroph_interaction:PHE:76    0
hydroph_interaction:PHE:76    0
Name: 41, dtype: object

>  <hbond:SER:77>  (42) 
hbond:SER:77    0
hbond:SER:77    0
Name: 41, dtype: object

>  <hbond:SER:80>  (42) 
hbond:SER:80    0
hbond:SER:80    0
Name: 41, dtype: object

>  <hbond:LEU:81>  (42) 
hbond:LEU:81    0
hbond:LEU:81    0
Name: 41, dtype: object

>  <halogenbond:LEU:81>  (42) 
halogenbond:LEU:81    0
halogenbond:LEU:81    0
Name: 41, dtype: object

>  <hydroph_interaction:LEU:81>  (42) 
hydroph_interaction:LEU:81    0
hydroph_interaction:LEU:81    0
Name: 41, dtype: object

>  <hydroph_interaction:ILE:82>  (42) 
hydroph_interaction:ILE:82    0
hydroph_interaction:ILE:82    0
Name: 41, dtype: object

>  <hbond:ILE:82>  (42) 
hbond:ILE:82    0
hbond:ILE:82    0
Name: 41, dtype: object

>  <hydroph_interaction:PHE:83>  (42) 
hydroph_interaction:PHE:83    0
hydroph_interaction:PHE:83    0
Name: 41, dtype: object

>  <hbond:PHE:83>  (42) 
hbond:PHE:83    0
hbond:PHE:83    0
Name: 41, dtype: object

>  <halogenbond:PHE:83>  (42) 
halogenbond:PHE:83    0
halogenbond:PHE:83    0
Name: 41, dtype: object

>  <pistack:PHE:83>  (42) 
pistack:PHE:83    0
pistack:PHE:83    0
Name: 41, dtype: object

>  <hydroph_interaction:VAL:84>  (42) 
hydroph_interaction:VAL:84    0
hydroph_interaction:VAL:84    0
Name: 41, dtype: object

>  <hbond:VAL:84>  (42) 
hbond:VAL:84    0
hbond:VAL:84    0
Name: 41, dtype: object

>  <halogenbond:VAL:84>  (42) 
halogenbond:VAL:84    0
halogenbond:VAL:84    0
Name: 41, dtype: object

>  <hydroph_interaction:GLU:85>  (42) 
hydroph_interaction:GLU:85    0
hydroph_interaction:GLU:85    0
Name: 41, dtype: object

>  <hbond:GLU:85>  (42) 
hbond:GLU:85    0
hbond:GLU:85    0
Name: 41, dtype: object

>  <saltbridge:GLU:85>  (42) 
saltbridge:GLU:85    0
saltbridge:GLU:85    0
Name: 41, dtype: object

>  <halogenbond:GLU:85>  (42) 
halogenbond:GLU:85    0
halogenbond:GLU:85    0
Name: 41, dtype: object

>  <hbond:ALA:86>  (42) 
hbond:ALA:86    1
hbond:ALA:86    1
Name: 41, dtype: object

>  <halogenbond:ALA:86>  (42) 
halogenbond:ALA:86    0
halogenbond:ALA:86    0
Name: 41, dtype: object

>  <hydroph_interaction:ALA:86>  (42) 
hydroph_interaction:ALA:86    0
hydroph_interaction:ALA:86    0
Name: 41, dtype: object

>  <hbond:SER:87>  (42) 
hbond:SER:87    2
hbond:SER:87    2
Name: 41, dtype: object

>  <halogenbond:SER:87>  (42) 
halogenbond:SER:87    0
halogenbond:SER:87    0
Name: 41, dtype: object

>  <hbond:GLU:88>  (42) 
hbond:GLU:88    0
hbond:GLU:88    0
Name: 41, dtype: object

>  <hydroph_interaction:GLU:88>  (42) 
hydroph_interaction:GLU:88    0
hydroph_interaction:GLU:88    0
Name: 41, dtype: object

>  <halogenbond:GLU:88>  (42) 
halogenbond:GLU:88    0
halogenbond:GLU:88    0
Name: 41, dtype: object

>  <saltbridge:GLU:88>  (42) 
saltbridge:GLU:88    0
saltbridge:GLU:88    0
Name: 41, dtype: object

>  <hydroph_interaction:TYR:89>  (42) 
hydroph_interaction:TYR:89    0
hydroph_interaction:TYR:89    0
Name: 41, dtype: object

>  <pistack:TYR:89>  (42) 
pistack:TYR:89    0
pistack:TYR:89    0
Name: 41, dtype: object

>  <hbond:TYR:89>  (42) 
hbond:TYR:89    0
hbond:TYR:89    0
Name: 41, dtype: object

>  <halogenbond:TYR:89>  (42) 
halogenbond:TYR:89    0
halogenbond:TYR:89    0
Name: 41, dtype: object

>  <hbond:TYR:90>  (42) 
hbond:TYR:90    0
hbond:TYR:90    0
Name: 41, dtype: object

>  <hydroph_interaction:TYR:90>  (42) 
hydroph_interaction:TYR:90    0
hydroph_interaction:TYR:90    0
Name: 41, dtype: object

>  <pistack:TYR:90>  (42) 
pistack:TYR:90    0
pistack:TYR:90    0
Name: 41, dtype: object

>  <halogenbond:TYR:90>  (42) 
halogenbond:TYR:90    0
halogenbond:TYR:90    0
Name: 41, dtype: object

>  <pication:TYR:90>  (42) 
pication:TYR:90    0
pication:TYR:90    0
Name: 41, dtype: object

>  <hydroph_interaction:PRO:91>  (42) 
hydroph_interaction:PRO:91    0
hydroph_interaction:PRO:91    0
Name: 41, dtype: object

>  <halogenbond:PRO:91>  (42) 
halogenbond:PRO:91    0
halogenbond:PRO:91    0
Name: 41, dtype: object

>  <hbond:PRO:91>  (42) 
hbond:PRO:91    0
hbond:PRO:91    0
Name: 41, dtype: object

>  <hydroph_interaction:ALA:92>  (42) 
hydroph_interaction:ALA:92    0
hydroph_interaction:ALA:92    0
Name: 41, dtype: object

>  <hbond:ARG:93>  (42) 
hbond:ARG:93    0
hbond:ARG:93    0
Name: 41, dtype: object

>  <pication:ARG:93>  (42) 
pication:ARG:93    0
pication:ARG:93    0
Name: 41, dtype: object

>  <saltbridge:ARG:93>  (42) 
saltbridge:ARG:93    0
saltbridge:ARG:93    0
Name: 41, dtype: object

>  <hydroph_interaction:ARG:93>  (42) 
hydroph_interaction:ARG:93    0
hydroph_interaction:ARG:93    0
Name: 41, dtype: object

>  <halogenbond:ARG:93>  (42) 
halogenbond:ARG:93    0
halogenbond:ARG:93    0
Name: 41, dtype: object

>  <hydroph_interaction:TYR:94>  (42) 
hydroph_interaction:TYR:94    0
hydroph_interaction:TYR:94    0
Name: 41, dtype: object

>  <hbond:TYR:94>  (42) 
hbond:TYR:94    0
hbond:TYR:94    0
Name: 41, dtype: object

>  <halogenbond:GLN:95>  (42) 
halogenbond:GLN:95    0
halogenbond:GLN:95    0
Name: 41, dtype: object

>  <hbond:GLN:95>  (42) 
hbond:GLN:95    0
hbond:GLN:95    0
Name: 41, dtype: object

>  <hydroph_interaction:GLN:95>  (42) 
hydroph_interaction:GLN:95    0
hydroph_interaction:GLN:95    0
Name: 41, dtype: object

>  <hbond:SER:96>  (42) 
hbond:SER:96    0
hbond:SER:96    0
Name: 41, dtype: object

>  <hydroph_interaction:LEU:98>  (42) 
hydroph_interaction:LEU:98    0
hydroph_interaction:LEU:98    0
Name: 41, dtype: object

>  <hbond:LEU:98>  (42) 
hbond:LEU:98    0
hbond:LEU:98    0
Name: 41, dtype: object

>  <hbond:MET:99>  (42) 
hbond:MET:99    0
hbond:MET:99    0
Name: 41, dtype: object

>  <hydroph_interaction:MET:99>  (42) 
hydroph_interaction:MET:99    0
hydroph_interaction:MET:99    0
Name: 41, dtype: object

>  <halogenbond:MET:99>  (42) 
halogenbond:MET:99    0
halogenbond:MET:99    0
Name: 41, dtype: object

>  <hydroph_interaction:LEU:100>  (42) 
hydroph_interaction:LEU:100    0
hydroph_interaction:LEU:100    0
Name: 41, dtype: object

>  <hbond:LEU:100>  (42) 
hbond:LEU:100    0
hbond:LEU:100    0
Name: 41, dtype: object

>  <hbond:ALA:101>  (42) 
hbond:ALA:101    0
hbond:ALA:101    0
Name: 41, dtype: object

>  <hydroph_interaction:ALA:101>  (42) 
hydroph_interaction:ALA:101    0
hydroph_interaction:ALA:101    0
Name: 41, dtype: object

>  <hydroph_interaction:VAL:102>  (42) 
hydroph_interaction:VAL:102    0
hydroph_interaction:VAL:102    0
Name: 41, dtype: object

>  <hbond:VAL:102>  (42) 
hbond:VAL:102    0
hbond:VAL:102    0
Name: 41, dtype: object

>  <hbond:GLY:103>  (42) 
hbond:GLY:103    0
hbond:GLY:103    0
Name: 41, dtype: object

>  <halogenbond:GLY:103>  (42) 
halogenbond:GLY:103    0
halogenbond:GLY:103    0
Name: 41, dtype: object

>  <hydroph_interaction:HIS:104>  (42) 
hydroph_interaction:HIS:104    0
hydroph_interaction:HIS:104    0
Name: 41, dtype: object

>  <hbond:HIS:104>  (42) 
hbond:HIS:104    0
hbond:HIS:104    0
Name: 41, dtype: object

>  <saltbridge:HIS:104>  (42) 
saltbridge:HIS:104    0
saltbridge:HIS:104    0
Name: 41, dtype: object

>  <pication:HIS:104>  (42) 
pication:HIS:104    0
pication:HIS:104    0
Name: 41, dtype: object

>  <pistack:HIS:104>  (42) 
pistack:HIS:104    0
pistack:HIS:104    0
Name: 41, dtype: object

>  <halogenbond:HIS:104>  (42) 
halogenbond:HIS:104    0
halogenbond:HIS:104    0
Name: 41, dtype: object

>  <hbond:SER:105>  (42) 
hbond:SER:105    0
hbond:SER:105    0
Name: 41, dtype: object

>  <halogenbond:SER:105>  (42) 
halogenbond:SER:105    0
halogenbond:SER:105    0
Name: 41, dtype: object

>  <hbond:GLU:106>  (42) 
hbond:GLU:106    0
hbond:GLU:106    0
Name: 41, dtype: object

>  <hydroph_interaction:GLU:106>  (42) 
hydroph_interaction:GLU:106    0
hydroph_interaction:GLU:106    0
Name: 41, dtype: object

>  <saltbridge:GLU:106>  (42) 
saltbridge:GLU:106    0
saltbridge:GLU:106    0
Name: 41, dtype: object

>  <halogenbond:GLU:106>  (42) 
halogenbond:GLU:106    0
halogenbond:GLU:106    0
Name: 41, dtype: object

>  <hydroph_interaction:PRO:107>  (42) 
hydroph_interaction:PRO:107    1
hydroph_interaction:PRO:107    1
Name: 41, dtype: object

>  <hbond:PRO:107>  (42) 
hbond:PRO:107    0
hbond:PRO:107    0
Name: 41, dtype: object

>  <halogenbond:PRO:107>  (42) 
halogenbond:PRO:107    0
halogenbond:PRO:107    0
Name: 41, dtype: object

>  <hbond:GLY:108>  (42) 
hbond:GLY:108    0
hbond:GLY:108    0
Name: 41, dtype: object

>  <halogenbond:GLY:108>  (42) 
halogenbond:GLY:108    0
halogenbond:GLY:108    0
Name: 41, dtype: object

>  <hbond:ASP:109>  (42) 
hbond:ASP:109    0
hbond:ASP:109    0
Name: 41, dtype: object

>  <hydroph_interaction:ASP:109>  (42) 
hydroph_interaction:ASP:109    0
hydroph_interaction:ASP:109    0
Name: 41, dtype: object

>  <saltbridge:ASP:109>  (42) 
saltbridge:ASP:109    0
saltbridge:ASP:109    0
Name: 41, dtype: object

>  <hbond:CYS:110>  (42) 
hbond:CYS:110    0
hbond:CYS:110    0
Name: 41, dtype: object

>  <halogenbond:CYS:110>  (42) 
halogenbond:CYS:110    0
halogenbond:CYS:110    0
Name: 41, dtype: object

>  <hbond:GLY:111>  (42) 
hbond:GLY:111    0
hbond:GLY:111    0
Name: 41, dtype: object

>  <hbond:GLY:112>  (42) 
hbond:GLY:112    0
hbond:GLY:112    0
Name: 41, dtype: object

>  <hbond:ILE:113>  (42) 
hbond:ILE:113    0
hbond:ILE:113    0
Name: 41, dtype: object

>  <hydroph_interaction:LEU:114>  (42) 
hydroph_interaction:LEU:114    0
hydroph_interaction:LEU:114    0
Name: 41, dtype: object

>  <hbond:LEU:114>  (42) 
hbond:LEU:114    0
hbond:LEU:114    0
Name: 41, dtype: object

>  <hydroph_interaction:ILE:123>  (42) 
hydroph_interaction:ILE:123    0
hydroph_interaction:ILE:123    0
Name: 41, dtype: object

>  <hbond:ILE:123>  (42) 
hbond:ILE:123    0
hbond:ILE:123    0
Name: 41, dtype: object

>  <hydroph_interaction:VAL:124>  (42) 
hydroph_interaction:VAL:124    0
hydroph_interaction:VAL:124    0
Name: 41, dtype: object

>  <hbond:VAL:124>  (42) 
hbond:VAL:124    0
hbond:VAL:124    0
Name: 41, dtype: object

>  <halogenbond:VAL:124>  (42) 
halogenbond:VAL:124    0
halogenbond:VAL:124    0
Name: 41, dtype: object

>  <hbond:SER:125>  (42) 
hbond:SER:125    0
hbond:SER:125    0
Name: 41, dtype: object

>  <halogenbond:SER:125>  (42) 
halogenbond:SER:125    0
halogenbond:SER:125    0
Name: 41, dtype: object

>  <hydroph_interaction:THR:126>  (42) 
hydroph_interaction:THR:126    0
hydroph_interaction:THR:126    0
Name: 41, dtype: object

>  <hbond:THR:126>  (42) 
hbond:THR:126    0
hbond:THR:126    0
Name: 41, dtype: object

>  <halogenbond:THR:126>  (42) 
halogenbond:THR:126    0
halogenbond:THR:126    0
Name: 41, dtype: object

>  <hbond:GLY:127>  (42) 
hbond:GLY:127    0
hbond:GLY:127    0
Name: 41, dtype: object

>  <halogenbond:GLY:127>  (42) 
halogenbond:GLY:127    0
halogenbond:GLY:127    0
Name: 41, dtype: object

>  <hydroph_interaction:GLY:127>  (42) 
hydroph_interaction:GLY:127    0
hydroph_interaction:GLY:127    0
Name: 41, dtype: object

>  <hbond:GLY:128>  (42) 
hbond:GLY:128    0
hbond:GLY:128    0
Name: 41, dtype: object

>  <halogenbond:GLY:128>  (42) 
halogenbond:GLY:128    0
halogenbond:GLY:128    0
Name: 41, dtype: object

>  <hydroph_interaction:GLY:128>  (42) 
hydroph_interaction:GLY:128    0
hydroph_interaction:GLY:128    0
Name: 41, dtype: object

>  <hbond:ASN:129>  (42) 
hbond:ASN:129    0
hbond:ASN:129    0
Name: 41, dtype: object

>  <hydroph_interaction:ASN:129>  (42) 
hydroph_interaction:ASN:129    0
hydroph_interaction:ASN:129    0
Name: 41, dtype: object

>  <halogenbond:ASN:129>  (42) 
halogenbond:ASN:129    0
halogenbond:ASN:129    0
Name: 41, dtype: object

>  <hbond:GLY:130>  (42) 
hbond:GLY:130    0
hbond:GLY:130    0
Name: 41, dtype: object

>  <hydroph_interaction:LEU:131>  (42) 
hydroph_interaction:LEU:131    0
hydroph_interaction:LEU:131    0
Name: 41, dtype: object

>  <hbond:LEU:131>  (42) 
hbond:LEU:131    0
hbond:LEU:131    0
Name: 41, dtype: object

>  <halogenbond:LEU:131>  (42) 
halogenbond:LEU:131    0
halogenbond:LEU:131    0
Name: 41, dtype: object

>  <hydroph_interaction:VAL:132>  (42) 
hydroph_interaction:VAL:132    0
hydroph_interaction:VAL:132    0
Name: 41, dtype: object

>  <hbond:VAL:132>  (42) 
hbond:VAL:132    0
hbond:VAL:132    0
Name: 41, dtype: object

>  <hbond:GLY:133>  (42) 
hbond:GLY:133    0
hbond:GLY:133    0
Name: 41, dtype: object

>  <halogenbond:GLY:133>  (42) 
halogenbond:GLY:133    0
halogenbond:GLY:133    0
Name: 41, dtype: object

>  <hydroph_interaction:PHE:134>  (42) 
hydroph_interaction:PHE:134    0
hydroph_interaction:PHE:134    0
Name: 41, dtype: object

>  <hbond:PHE:134>  (42) 
hbond:PHE:134    0
hbond:PHE:134    0
Name: 41, dtype: object

>  <pistack:PHE:134>  (42) 
pistack:PHE:134    0
pistack:PHE:134    0
Name: 41, dtype: object

>  <pication:PHE:134>  (42) 
pication:PHE:134    0
pication:PHE:134    0
Name: 41, dtype: object

>  <hydroph_interaction:ALA:135>  (42) 
hydroph_interaction:ALA:135    0
hydroph_interaction:ALA:135    0
Name: 41, dtype: object

>  <hbond:ALA:135>  (42) 
hbond:ALA:135    0
hbond:ALA:135    0
Name: 41, dtype: object

$$$$
Z1519226139
     RDKit          3D

 29 30  0  0  0  0  0  0  0  0999 V2000
   10.0140    9.2430   22.7560 C   0  0  0  0  0  0  0  0  0  0  0  0
    9.4200   10.4140   23.5070 C   0  0  0  0  0  0  0  0  0  0  0  0
    9.8690   11.7430   23.2810 C   0  0  0  0  0  0  0  0  0  0  0  0
    9.3140   12.8190   23.9890 C   0  0  0  0  0  0  0  0  0  0  0  0
    8.2050   12.5320   25.0120 C   0  0  0  0  0  0  0  0  0  0  0  0
    7.5940   13.5160   25.7810 O   0  0  0  0  0  0  0  0  0  0  0  0
    7.4990   14.7810   25.2440 C   0  0  0  0  0  0  0  0  0  0  0  0
    7.6740   15.0110   24.0580 O   0  0  0  0  0  0  0  0  0  0  0  0
    7.1560   15.8490   26.2550 C   0  0  1  0  0  0  0  0  0  0  0  0
    6.2040   15.4810   27.3880 C   0  0  0  0  0  0  0  0  0  0  0  0
    6.7110   16.1710   28.6390 C   0  0  0  0  0  0  0  0  0  0  0  0
    8.0500   16.7860   28.2600 C   0  0  0  0  0  0  0  0  0  0  0  0
    8.3580   16.3230   26.9270 O   0  0  0  0  0  0  0  0  0  0  0  0
    7.7950   11.2290   25.1870 C   0  0  0  0  0  0  0  0  0  0  0  0
    6.2660   10.8610   26.5740 I   0  0  0  0  0  0  0  0  0  0  0  0
    8.3990   10.2010   24.4490 C   0  0  0  0  0  0  0  0  0  0  0  0
    9.2320    8.5530   22.4490 H   0  0  0  0  0  0  0  0  0  0  0  0
   10.7340    8.6820   23.3550 H   0  0  0  0  0  0  0  0  0  0  0  0
   10.5450    9.6010   21.8700 H   0  0  0  0  0  0  0  0  0  0  0  0
   10.6570   11.9230   22.5510 H   0  0  0  0  0  0  0  0  0  0  0  0
    9.6910   13.8180   23.7900 H   0  0  0  0  0  0  0  0  0  0  0  0
    6.7560   16.7190   25.7260 H   0  0  0  0  0  0  0  0  0  0  0  0
    5.1660   15.7420   27.1560 H   0  0  0  0  0  0  0  0  0  0  0  0
    6.2380   14.3960   27.5310 H   0  0  0  0  0  0  0  0  0  0  0  0
    6.0410   16.9510   29.0130 H   0  0  0  0  0  0  0  0  0  0  0  0
    6.8300   15.4450   29.4490 H   0  0  0  0  0  0  0  0  0  0  0  0
    8.0090   17.8800   28.3060 H   0  0  0  0  0  0  0  0  0  0  0  0
    8.8290   16.4630   28.9630 H   0  0  0  0  0  0  0  0  0  0  0  0
    8.0220    9.2170   24.6510 H   0  0  0  0  0  0  0  0  0  0  0  0
  1  2  1  0
  2  3  2  0
  3  4  1  0
  4  5  2  0
  5  6  1  0
  6  7  1  0
  7  8  2  0
  7  9  1  0
  9 10  1  0
 10 11  1  0
 11 12  1  0
 12 13  1  0
  5 14  1  0
 14 15  1  0
 14 16  2  0
 16  2  1  0
 13  9  1  0
  1 17  1  0
  1 18  1  0
  1 19  1  0
  3 20  1  0
  4 21  1  0
  9 22  1  6
 10 23  1  0
 10 24  1  0
 11 25  1  0
 11 26  1  0
 12 27  1  0
 12 28  1  0
 16 29  1  0
A    1
 C1 
A    2
 C2 
A    3
 C3 
A    4
 C4 
A    5
 C5 
A    6
 O1 
A    7
 C6 
A    8
 O2 
A    9
 C7 
A   10
 C8 
A   11
 C9 
A   12
 C10
A   13
 O3 
A   14
 C11
A   15
 I1 
A   16
 C12
A   17
 H1 
A   18
 H2 
A   19
 H3 
A   20
 H4 
A   21
 H5 
A   22
 H6 
A   23
 H7 
A   24
 H8 
A   25
 H9 
A   26
 H10
A   27
 H11
A   28
 H12
A   29
 H13
M  END
>  <ref_pdb>  (43) 
x0310_0A

>  <ref_mols>  (43) 
x0554_0A,x0812_0A,x0416_0A

>  <original SMILES>  (43) 
Cc1ccc(OC(=O)[C@H]2CCCO2)c(I)c1

>  <rationale>  (43) 
info hbond:E88; hydroph_interaction:P107+V124; 

>  <intxn_cluster>  (43) 
103

>  <intxn_cluster_rank>  (43) 
197

>  <N_interactions>  (43) 
3

>  <∆∆G>  (43) 
-7.813648

>  <$/mg>  (43) 
0.0

>  <comRMSD>  (43) 
0.769788

>  <N_rotatable_bonds>  (43) 
3

>  <hbond:SER:7>  (43) 
hbond:SER:7    0
hbond:SER:7    0
Name: 42, dtype: object

>  <halogenbond:SER:7>  (43) 
halogenbond:SER:7    0
halogenbond:SER:7    0
Name: 42, dtype: object

>  <hbond:GLY:8>  (43) 
hbond:GLY:8    0
hbond:GLY:8    0
Name: 42, dtype: object

>  <hydroph_interaction:ASN:19>  (43) 
hydroph_interaction:ASN:19    0
hydroph_interaction:ASN:19    0
Name: 42, dtype: object

>  <hbond:ASN:19>  (43) 
hbond:ASN:19    0
hbond:ASN:19    0
Name: 42, dtype: object

>  <halogenbond:ASN:19>  (43) 
halogenbond:ASN:19    0
halogenbond:ASN:19    0
Name: 42, dtype: object

>  <hbond:ARG:20>  (43) 
hbond:ARG:20    0
hbond:ARG:20    0
Name: 42, dtype: object

>  <hydroph_interaction:ARG:20>  (43) 
hydroph_interaction:ARG:20    0
hydroph_interaction:ARG:20    0
Name: 42, dtype: object

>  <saltbridge:ARG:20>  (43) 
saltbridge:ARG:20    0
saltbridge:ARG:20    0
Name: 42, dtype: object

>  <halogenbond:ARG:20>  (43) 
halogenbond:ARG:20    0
halogenbond:ARG:20    0
Name: 42, dtype: object

>  <pication:ARG:20>  (43) 
pication:ARG:20    0
pication:ARG:20    0
Name: 42, dtype: object

>  <hbond:HIS:21>  (43) 
hbond:HIS:21    0
hbond:HIS:21    0
Name: 42, dtype: object

>  <hydroph_interaction:HIS:21>  (43) 
hydroph_interaction:HIS:21    0
hydroph_interaction:HIS:21    0
Name: 42, dtype: object

>  <saltbridge:HIS:21>  (43) 
saltbridge:HIS:21    0
saltbridge:HIS:21    0
Name: 42, dtype: object

>  <pistack:HIS:21>  (43) 
pistack:HIS:21    0
pistack:HIS:21    0
Name: 42, dtype: object

>  <pication:HIS:21>  (43) 
pication:HIS:21    0
pication:HIS:21    0
Name: 42, dtype: object

>  <halogenbond:HIS:21>  (43) 
halogenbond:HIS:21    0
halogenbond:HIS:21    0
Name: 42, dtype: object

>  <hydroph_interaction:LEU:22>  (43) 
hydroph_interaction:LEU:22    0
hydroph_interaction:LEU:22    0
Name: 42, dtype: object

>  <hbond:LEU:22>  (43) 
hbond:LEU:22    0
hbond:LEU:22    0
Name: 42, dtype: object

>  <hydroph_interaction:TRP:28>  (43) 
hydroph_interaction:TRP:28    0
hydroph_interaction:TRP:28    0
Name: 42, dtype: object

>  <hbond:SER:36>  (43) 
hbond:SER:36    0
hbond:SER:36    0
Name: 42, dtype: object

>  <halogenbond:SER:36>  (43) 
halogenbond:SER:36    0
halogenbond:SER:36    0
Name: 42, dtype: object

>  <hbond:ARG:38>  (43) 
hbond:ARG:38    0
hbond:ARG:38    0
Name: 42, dtype: object

>  <halogenbond:ARG:38>  (43) 
halogenbond:ARG:38    0
halogenbond:ARG:38    0
Name: 42, dtype: object

>  <hbond:ASP:39>  (43) 
hbond:ASP:39    0
hbond:ASP:39    0
Name: 42, dtype: object

>  <saltbridge:ASP:39>  (43) 
saltbridge:ASP:39    0
saltbridge:ASP:39    0
Name: 42, dtype: object

>  <hydroph_interaction:ASP:39>  (43) 
hydroph_interaction:ASP:39    0
hydroph_interaction:ASP:39    0
Name: 42, dtype: object

>  <halogenbond:ASP:39>  (43) 
halogenbond:ASP:39    0
halogenbond:ASP:39    0
Name: 42, dtype: object

>  <hydroph_interaction:LEU:40>  (43) 
hydroph_interaction:LEU:40    0
hydroph_interaction:LEU:40    0
Name: 42, dtype: object

>  <hydroph_interaction:TYR:63>  (43) 
hydroph_interaction:TYR:63    0
hydroph_interaction:TYR:63    0
Name: 42, dtype: object

>  <pistack:TYR:63>  (43) 
pistack:TYR:63    0
pistack:TYR:63    0
Name: 42, dtype: object

>  <hbond:TYR:63>  (43) 
hbond:TYR:63    0
hbond:TYR:63    0
Name: 42, dtype: object

>  <hbond:TYR:64>  (43) 
hbond:TYR:64    0
hbond:TYR:64    0
Name: 42, dtype: object

>  <halogenbond:TYR:64>  (43) 
halogenbond:TYR:64    0
halogenbond:TYR:64    0
Name: 42, dtype: object

>  <hydroph_interaction:TYR:64>  (43) 
hydroph_interaction:TYR:64    0
hydroph_interaction:TYR:64    0
Name: 42, dtype: object

>  <hbond:CYS:65>  (43) 
hbond:CYS:65    0
hbond:CYS:65    0
Name: 42, dtype: object

>  <halogenbond:CYS:65>  (43) 
halogenbond:CYS:65    0
halogenbond:CYS:65    0
Name: 42, dtype: object

>  <hbond:SER:66>  (43) 
hbond:SER:66    0
hbond:SER:66    0
Name: 42, dtype: object

>  <hbond:SER:67>  (43) 
hbond:SER:67    0
hbond:SER:67    0
Name: 42, dtype: object

>  <halogenbond:SER:67>  (43) 
halogenbond:SER:67    0
halogenbond:SER:67    0
Name: 42, dtype: object

>  <hydroph_interaction:ARG:68>  (43) 
hydroph_interaction:ARG:68    0
hydroph_interaction:ARG:68    0
Name: 42, dtype: object

>  <hbond:ARG:68>  (43) 
hbond:ARG:68    0
hbond:ARG:68    0
Name: 42, dtype: object

>  <saltbridge:ARG:68>  (43) 
saltbridge:ARG:68    0
saltbridge:ARG:68    0
Name: 42, dtype: object

>  <pication:ARG:68>  (43) 
pication:ARG:68    0
pication:ARG:68    0
Name: 42, dtype: object

>  <hydroph_interaction:TYR:72>  (43) 
hydroph_interaction:TYR:72    0
hydroph_interaction:TYR:72    0
Name: 42, dtype: object

>  <hydroph_interaction:VAL:74>  (43) 
hydroph_interaction:VAL:74    0
hydroph_interaction:VAL:74    0
Name: 42, dtype: object

>  <hydroph_interaction:PHE:76>  (43) 
hydroph_interaction:PHE:76    0
hydroph_interaction:PHE:76    0
Name: 42, dtype: object

>  <hbond:SER:77>  (43) 
hbond:SER:77    0
hbond:SER:77    0
Name: 42, dtype: object

>  <hbond:SER:80>  (43) 
hbond:SER:80    0
hbond:SER:80    0
Name: 42, dtype: object

>  <hbond:LEU:81>  (43) 
hbond:LEU:81    0
hbond:LEU:81    0
Name: 42, dtype: object

>  <halogenbond:LEU:81>  (43) 
halogenbond:LEU:81    0
halogenbond:LEU:81    0
Name: 42, dtype: object

>  <hydroph_interaction:LEU:81>  (43) 
hydroph_interaction:LEU:81    0
hydroph_interaction:LEU:81    0
Name: 42, dtype: object

>  <hydroph_interaction:ILE:82>  (43) 
hydroph_interaction:ILE:82    0
hydroph_interaction:ILE:82    0
Name: 42, dtype: object

>  <hbond:ILE:82>  (43) 
hbond:ILE:82    0
hbond:ILE:82    0
Name: 42, dtype: object

>  <hydroph_interaction:PHE:83>  (43) 
hydroph_interaction:PHE:83    0
hydroph_interaction:PHE:83    0
Name: 42, dtype: object

>  <hbond:PHE:83>  (43) 
hbond:PHE:83    0
hbond:PHE:83    0
Name: 42, dtype: object

>  <halogenbond:PHE:83>  (43) 
halogenbond:PHE:83    0
halogenbond:PHE:83    0
Name: 42, dtype: object

>  <pistack:PHE:83>  (43) 
pistack:PHE:83    0
pistack:PHE:83    0
Name: 42, dtype: object

>  <hydroph_interaction:VAL:84>  (43) 
hydroph_interaction:VAL:84    0
hydroph_interaction:VAL:84    0
Name: 42, dtype: object

>  <hbond:VAL:84>  (43) 
hbond:VAL:84    0
hbond:VAL:84    0
Name: 42, dtype: object

>  <halogenbond:VAL:84>  (43) 
halogenbond:VAL:84    0
halogenbond:VAL:84    0
Name: 42, dtype: object

>  <hydroph_interaction:GLU:85>  (43) 
hydroph_interaction:GLU:85    0
hydroph_interaction:GLU:85    0
Name: 42, dtype: object

>  <hbond:GLU:85>  (43) 
hbond:GLU:85    0
hbond:GLU:85    0
Name: 42, dtype: object

>  <saltbridge:GLU:85>  (43) 
saltbridge:GLU:85    0
saltbridge:GLU:85    0
Name: 42, dtype: object

>  <halogenbond:GLU:85>  (43) 
halogenbond:GLU:85    0
halogenbond:GLU:85    0
Name: 42, dtype: object

>  <hbond:ALA:86>  (43) 
hbond:ALA:86    0
hbond:ALA:86    0
Name: 42, dtype: object

>  <halogenbond:ALA:86>  (43) 
halogenbond:ALA:86    0
halogenbond:ALA:86    0
Name: 42, dtype: object

>  <hydroph_interaction:ALA:86>  (43) 
hydroph_interaction:ALA:86    0
hydroph_interaction:ALA:86    0
Name: 42, dtype: object

>  <hbond:SER:87>  (43) 
hbond:SER:87    0
hbond:SER:87    0
Name: 42, dtype: object

>  <halogenbond:SER:87>  (43) 
halogenbond:SER:87    0
halogenbond:SER:87    0
Name: 42, dtype: object

>  <hbond:GLU:88>  (43) 
hbond:GLU:88    1
hbond:GLU:88    1
Name: 42, dtype: object

>  <hydroph_interaction:GLU:88>  (43) 
hydroph_interaction:GLU:88    0
hydroph_interaction:GLU:88    0
Name: 42, dtype: object

>  <halogenbond:GLU:88>  (43) 
halogenbond:GLU:88    0
halogenbond:GLU:88    0
Name: 42, dtype: object

>  <saltbridge:GLU:88>  (43) 
saltbridge:GLU:88    0
saltbridge:GLU:88    0
Name: 42, dtype: object

>  <hydroph_interaction:TYR:89>  (43) 
hydroph_interaction:TYR:89    0
hydroph_interaction:TYR:89    0
Name: 42, dtype: object

>  <pistack:TYR:89>  (43) 
pistack:TYR:89    0
pistack:TYR:89    0
Name: 42, dtype: object

>  <hbond:TYR:89>  (43) 
hbond:TYR:89    0
hbond:TYR:89    0
Name: 42, dtype: object

>  <halogenbond:TYR:89>  (43) 
halogenbond:TYR:89    0
halogenbond:TYR:89    0
Name: 42, dtype: object

>  <hbond:TYR:90>  (43) 
hbond:TYR:90    0
hbond:TYR:90    0
Name: 42, dtype: object

>  <hydroph_interaction:TYR:90>  (43) 
hydroph_interaction:TYR:90    0
hydroph_interaction:TYR:90    0
Name: 42, dtype: object

>  <pistack:TYR:90>  (43) 
pistack:TYR:90    0
pistack:TYR:90    0
Name: 42, dtype: object

>  <halogenbond:TYR:90>  (43) 
halogenbond:TYR:90    0
halogenbond:TYR:90    0
Name: 42, dtype: object

>  <pication:TYR:90>  (43) 
pication:TYR:90    0
pication:TYR:90    0
Name: 42, dtype: object

>  <hydroph_interaction:PRO:91>  (43) 
hydroph_interaction:PRO:91    0
hydroph_interaction:PRO:91    0
Name: 42, dtype: object

>  <halogenbond:PRO:91>  (43) 
halogenbond:PRO:91    0
halogenbond:PRO:91    0
Name: 42, dtype: object

>  <hbond:PRO:91>  (43) 
hbond:PRO:91    0
hbond:PRO:91    0
Name: 42, dtype: object

>  <hydroph_interaction:ALA:92>  (43) 
hydroph_interaction:ALA:92    0
hydroph_interaction:ALA:92    0
Name: 42, dtype: object

>  <hbond:ARG:93>  (43) 
hbond:ARG:93    0
hbond:ARG:93    0
Name: 42, dtype: object

>  <pication:ARG:93>  (43) 
pication:ARG:93    0
pication:ARG:93    0
Name: 42, dtype: object

>  <saltbridge:ARG:93>  (43) 
saltbridge:ARG:93    0
saltbridge:ARG:93    0
Name: 42, dtype: object

>  <hydroph_interaction:ARG:93>  (43) 
hydroph_interaction:ARG:93    0
hydroph_interaction:ARG:93    0
Name: 42, dtype: object

>  <halogenbond:ARG:93>  (43) 
halogenbond:ARG:93    0
halogenbond:ARG:93    0
Name: 42, dtype: object

>  <hydroph_interaction:TYR:94>  (43) 
hydroph_interaction:TYR:94    0
hydroph_interaction:TYR:94    0
Name: 42, dtype: object

>  <hbond:TYR:94>  (43) 
hbond:TYR:94    0
hbond:TYR:94    0
Name: 42, dtype: object

>  <halogenbond:GLN:95>  (43) 
halogenbond:GLN:95    0
halogenbond:GLN:95    0
Name: 42, dtype: object

>  <hbond:GLN:95>  (43) 
hbond:GLN:95    0
hbond:GLN:95    0
Name: 42, dtype: object

>  <hydroph_interaction:GLN:95>  (43) 
hydroph_interaction:GLN:95    0
hydroph_interaction:GLN:95    0
Name: 42, dtype: object

>  <hbond:SER:96>  (43) 
hbond:SER:96    0
hbond:SER:96    0
Name: 42, dtype: object

>  <hydroph_interaction:LEU:98>  (43) 
hydroph_interaction:LEU:98    0
hydroph_interaction:LEU:98    0
Name: 42, dtype: object

>  <hbond:LEU:98>  (43) 
hbond:LEU:98    0
hbond:LEU:98    0
Name: 42, dtype: object

>  <hbond:MET:99>  (43) 
hbond:MET:99    0
hbond:MET:99    0
Name: 42, dtype: object

>  <hydroph_interaction:MET:99>  (43) 
hydroph_interaction:MET:99    0
hydroph_interaction:MET:99    0
Name: 42, dtype: object

>  <halogenbond:MET:99>  (43) 
halogenbond:MET:99    0
halogenbond:MET:99    0
Name: 42, dtype: object

>  <hydroph_interaction:LEU:100>  (43) 
hydroph_interaction:LEU:100    0
hydroph_interaction:LEU:100    0
Name: 42, dtype: object

>  <hbond:LEU:100>  (43) 
hbond:LEU:100    0
hbond:LEU:100    0
Name: 42, dtype: object

>  <hbond:ALA:101>  (43) 
hbond:ALA:101    0
hbond:ALA:101    0
Name: 42, dtype: object

>  <hydroph_interaction:ALA:101>  (43) 
hydroph_interaction:ALA:101    0
hydroph_interaction:ALA:101    0
Name: 42, dtype: object

>  <hydroph_interaction:VAL:102>  (43) 
hydroph_interaction:VAL:102    0
hydroph_interaction:VAL:102    0
Name: 42, dtype: object

>  <hbond:VAL:102>  (43) 
hbond:VAL:102    0
hbond:VAL:102    0
Name: 42, dtype: object

>  <hbond:GLY:103>  (43) 
hbond:GLY:103    0
hbond:GLY:103    0
Name: 42, dtype: object

>  <halogenbond:GLY:103>  (43) 
halogenbond:GLY:103    0
halogenbond:GLY:103    0
Name: 42, dtype: object

>  <hydroph_interaction:HIS:104>  (43) 
hydroph_interaction:HIS:104    0
hydroph_interaction:HIS:104    0
Name: 42, dtype: object

>  <hbond:HIS:104>  (43) 
hbond:HIS:104    0
hbond:HIS:104    0
Name: 42, dtype: object

>  <saltbridge:HIS:104>  (43) 
saltbridge:HIS:104    0
saltbridge:HIS:104    0
Name: 42, dtype: object

>  <pication:HIS:104>  (43) 
pication:HIS:104    0
pication:HIS:104    0
Name: 42, dtype: object

>  <pistack:HIS:104>  (43) 
pistack:HIS:104    0
pistack:HIS:104    0
Name: 42, dtype: object

>  <halogenbond:HIS:104>  (43) 
halogenbond:HIS:104    0
halogenbond:HIS:104    0
Name: 42, dtype: object

>  <hbond:SER:105>  (43) 
hbond:SER:105    0
hbond:SER:105    0
Name: 42, dtype: object

>  <halogenbond:SER:105>  (43) 
halogenbond:SER:105    0
halogenbond:SER:105    0
Name: 42, dtype: object

>  <hbond:GLU:106>  (43) 
hbond:GLU:106    0
hbond:GLU:106    0
Name: 42, dtype: object

>  <hydroph_interaction:GLU:106>  (43) 
hydroph_interaction:GLU:106    0
hydroph_interaction:GLU:106    0
Name: 42, dtype: object

>  <saltbridge:GLU:106>  (43) 
saltbridge:GLU:106    0
saltbridge:GLU:106    0
Name: 42, dtype: object

>  <halogenbond:GLU:106>  (43) 
halogenbond:GLU:106    0
halogenbond:GLU:106    0
Name: 42, dtype: object

>  <hydroph_interaction:PRO:107>  (43) 
hydroph_interaction:PRO:107    1
hydroph_interaction:PRO:107    1
Name: 42, dtype: object

>  <hbond:PRO:107>  (43) 
hbond:PRO:107    0
hbond:PRO:107    0
Name: 42, dtype: object

>  <halogenbond:PRO:107>  (43) 
halogenbond:PRO:107    0
halogenbond:PRO:107    0
Name: 42, dtype: object

>  <hbond:GLY:108>  (43) 
hbond:GLY:108    0
hbond:GLY:108    0
Name: 42, dtype: object

>  <halogenbond:GLY:108>  (43) 
halogenbond:GLY:108    0
halogenbond:GLY:108    0
Name: 42, dtype: object

>  <hbond:ASP:109>  (43) 
hbond:ASP:109    0
hbond:ASP:109    0
Name: 42, dtype: object

>  <hydroph_interaction:ASP:109>  (43) 
hydroph_interaction:ASP:109    0
hydroph_interaction:ASP:109    0
Name: 42, dtype: object

>  <saltbridge:ASP:109>  (43) 
saltbridge:ASP:109    0
saltbridge:ASP:109    0
Name: 42, dtype: object

>  <hbond:CYS:110>  (43) 
hbond:CYS:110    0
hbond:CYS:110    0
Name: 42, dtype: object

>  <halogenbond:CYS:110>  (43) 
halogenbond:CYS:110    0
halogenbond:CYS:110    0
Name: 42, dtype: object

>  <hbond:GLY:111>  (43) 
hbond:GLY:111    0
hbond:GLY:111    0
Name: 42, dtype: object

>  <hbond:GLY:112>  (43) 
hbond:GLY:112    0
hbond:GLY:112    0
Name: 42, dtype: object

>  <hbond:ILE:113>  (43) 
hbond:ILE:113    0
hbond:ILE:113    0
Name: 42, dtype: object

>  <hydroph_interaction:LEU:114>  (43) 
hydroph_interaction:LEU:114    0
hydroph_interaction:LEU:114    0
Name: 42, dtype: object

>  <hbond:LEU:114>  (43) 
hbond:LEU:114    0
hbond:LEU:114    0
Name: 42, dtype: object

>  <hydroph_interaction:ILE:123>  (43) 
hydroph_interaction:ILE:123    0
hydroph_interaction:ILE:123    0
Name: 42, dtype: object

>  <hbond:ILE:123>  (43) 
hbond:ILE:123    0
hbond:ILE:123    0
Name: 42, dtype: object

>  <hydroph_interaction:VAL:124>  (43) 
hydroph_interaction:VAL:124    1
hydroph_interaction:VAL:124    1
Name: 42, dtype: object

>  <hbond:VAL:124>  (43) 
hbond:VAL:124    0
hbond:VAL:124    0
Name: 42, dtype: object

>  <halogenbond:VAL:124>  (43) 
halogenbond:VAL:124    0
halogenbond:VAL:124    0
Name: 42, dtype: object

>  <hbond:SER:125>  (43) 
hbond:SER:125    0
hbond:SER:125    0
Name: 42, dtype: object

>  <halogenbond:SER:125>  (43) 
halogenbond:SER:125    0
halogenbond:SER:125    0
Name: 42, dtype: object

>  <hydroph_interaction:THR:126>  (43) 
hydroph_interaction:THR:126    0
hydroph_interaction:THR:126    0
Name: 42, dtype: object

>  <hbond:THR:126>  (43) 
hbond:THR:126    0
hbond:THR:126    0
Name: 42, dtype: object

>  <halogenbond:THR:126>  (43) 
halogenbond:THR:126    0
halogenbond:THR:126    0
Name: 42, dtype: object

>  <hbond:GLY:127>  (43) 
hbond:GLY:127    0
hbond:GLY:127    0
Name: 42, dtype: object

>  <halogenbond:GLY:127>  (43) 
halogenbond:GLY:127    0
halogenbond:GLY:127    0
Name: 42, dtype: object

>  <hydroph_interaction:GLY:127>  (43) 
hydroph_interaction:GLY:127    0
hydroph_interaction:GLY:127    0
Name: 42, dtype: object

>  <hbond:GLY:128>  (43) 
hbond:GLY:128    0
hbond:GLY:128    0
Name: 42, dtype: object

>  <halogenbond:GLY:128>  (43) 
halogenbond:GLY:128    0
halogenbond:GLY:128    0
Name: 42, dtype: object

>  <hydroph_interaction:GLY:128>  (43) 
hydroph_interaction:GLY:128    0
hydroph_interaction:GLY:128    0
Name: 42, dtype: object

>  <hbond:ASN:129>  (43) 
hbond:ASN:129    0
hbond:ASN:129    0
Name: 42, dtype: object

>  <hydroph_interaction:ASN:129>  (43) 
hydroph_interaction:ASN:129    0
hydroph_interaction:ASN:129    0
Name: 42, dtype: object

>  <halogenbond:ASN:129>  (43) 
halogenbond:ASN:129    0
halogenbond:ASN:129    0
Name: 42, dtype: object

>  <hbond:GLY:130>  (43) 
hbond:GLY:130    0
hbond:GLY:130    0
Name: 42, dtype: object

>  <hydroph_interaction:LEU:131>  (43) 
hydroph_interaction:LEU:131    0
hydroph_interaction:LEU:131    0
Name: 42, dtype: object

>  <hbond:LEU:131>  (43) 
hbond:LEU:131    0
hbond:LEU:131    0
Name: 42, dtype: object

>  <halogenbond:LEU:131>  (43) 
halogenbond:LEU:131    0
halogenbond:LEU:131    0
Name: 42, dtype: object

>  <hydroph_interaction:VAL:132>  (43) 
hydroph_interaction:VAL:132    0
hydroph_interaction:VAL:132    0
Name: 42, dtype: object

>  <hbond:VAL:132>  (43) 
hbond:VAL:132    0
hbond:VAL:132    0
Name: 42, dtype: object

>  <hbond:GLY:133>  (43) 
hbond:GLY:133    0
hbond:GLY:133    0
Name: 42, dtype: object

>  <halogenbond:GLY:133>  (43) 
halogenbond:GLY:133    0
halogenbond:GLY:133    0
Name: 42, dtype: object

>  <hydroph_interaction:PHE:134>  (43) 
hydroph_interaction:PHE:134    0
hydroph_interaction:PHE:134    0
Name: 42, dtype: object

>  <hbond:PHE:134>  (43) 
hbond:PHE:134    0
hbond:PHE:134    0
Name: 42, dtype: object

>  <pistack:PHE:134>  (43) 
pistack:PHE:134    0
pistack:PHE:134    0
Name: 42, dtype: object

>  <pication:PHE:134>  (43) 
pication:PHE:134    0
pication:PHE:134    0
Name: 42, dtype: object

>  <hydroph_interaction:ALA:135>  (43) 
hydroph_interaction:ALA:135    0
hydroph_interaction:ALA:135    0
Name: 42, dtype: object

>  <hbond:ALA:135>  (43) 
hbond:ALA:135    0
hbond:ALA:135    0
Name: 42, dtype: object

$$$$
Z5171496361
     RDKit          3D

 36 37  0  0  0  0  0  0  0  0999 V2000
   10.2140    9.0920   22.5370 C   0  0  0  0  0  0  0  0  0  0  0  0
    9.6610   10.2650   23.3190 C   0  0  0  0  0  0  0  0  0  0  0  0
    8.5060    9.9900   24.2400 C   0  0  0  0  0  0  0  0  0  0  0  0
    7.9620   11.0250   24.9810 C   0  0  0  0  0  0  0  0  0  0  0  0
    6.7900   10.7460   25.8850 C   0  0  0  0  0  0  0  0  0  0  0  0
    8.5130   12.3090   24.8760 C   0  0  0  0  0  0  0  0  0  0  0  0
    7.9030   13.2670   25.7020 O   0  0  0  0  0  0  0  0  0  0  0  0
    7.5370   14.4920   25.1800 C   0  0  0  0  0  0  0  0  0  0  0  0
    7.3550   14.6820   23.9860 O   0  0  0  0  0  0  0  0  0  0  0  0
    7.3810   15.5880   26.2020 C   0  0  2  0  0  0  0  0  0  0  0  0
    8.7310   15.9180   26.8020 C   0  0  0  0  0  0  0  0  0  0  0  0
    8.6480   16.9970   27.7420 O   0  0  0  0  0  0  0  0  0  0  0  0
    7.7300   16.6910   28.7960 C   0  0  0  0  0  0  0  0  0  0  0  0
    6.3590   16.2420   28.2660 C   0  0  0  0  0  0  0  0  0  0  0  0
    6.4640   15.2300   27.2490 O   0  0  0  0  0  0  0  0  0  0  0  0
    9.6200   12.5950   24.0010 C   0  0  0  0  0  0  0  0  0  0  0  0
   10.2630   13.9370   23.8530 C   0  0  0  0  0  0  0  0  0  0  0  0
   10.1700   11.5570   23.2230 C   0  0  0  0  0  0  0  0  0  0  0  0
   10.9080    8.4970   23.1380 H   0  0  0  0  0  0  0  0  0  0  0  0
   10.7400    9.4370   21.6460 H   0  0  0  0  0  0  0  0  0  0  0  0
    9.4010    8.4390   22.2150 H   0  0  0  0  0  0  0  0  0  0  0  0
    8.1050    8.9910   24.3170 H   0  0  0  0  0  0  0  0  0  0  0  0
    7.1000   10.5710   26.9130 H   0  0  0  0  0  0  0  0  0  0  0  0
    6.0930   11.5890   25.9000 H   0  0  0  0  0  0  0  0  0  0  0  0
    6.2300    9.8850   25.5210 H   0  0  0  0  0  0  0  0  0  0  0  0
    6.9690   16.4680   25.6950 H   0  0  0  0  0  0  0  0  0  0  0  0
    9.0880   15.0350   27.3460 H   0  0  0  0  0  0  0  0  0  0  0  0
    9.4760   16.1660   26.0400 H   0  0  0  0  0  0  0  0  0  0  0  0
    8.2010   15.9240   29.4150 H   0  0  0  0  0  0  0  0  0  0  0  0
    7.6590   17.5920   29.4110 H   0  0  0  0  0  0  0  0  0  0  0  0
    5.7820   17.0650   27.8360 H   0  0  0  0  0  0  0  0  0  0  0  0
    5.7540   15.8220   29.0750 H   0  0  0  0  0  0  0  0  0  0  0  0
    9.9740   14.6040   24.6690 H   0  0  0  0  0  0  0  0  0  0  0  0
   10.0750   14.4740   22.9260 H   0  0  0  0  0  0  0  0  0  0  0  0
   11.3490   13.8030   23.9130 H   0  0  0  0  0  0  0  0  0  0  0  0
   11.0080   11.7660   22.5510 H   0  0  0  0  0  0  0  0  0  0  0  0
  1  2  1  0
  2  3  2  0
  3  4  1  0
  4  5  1  0
  4  6  2  0
  6  7  1  0
  7  8  1  0
  8  9  2  0
  8 10  1  0
 10 11  1  0
 11 12  1  0
 12 13  1  0
 13 14  1  0
 14 15  1  0
  6 16  1  0
 16 17  1  0
 16 18  2  0
 18  2  1  0
 15 10  1  0
  1 19  1  0
  1 20  1  0
  1 21  1  0
  3 22  1  0
  5 23  1  0
  5 24  1  0
  5 25  1  0
 10 26  1  6
 11 27  1  0
 11 28  1  0
 13 29  1  0
 13 30  1  0
 14 31  1  0
 14 32  1  0
 17 33  1  0
 17 34  1  0
 17 35  1  0
 18 36  1  0
A    1
 C1 
A    2
 C2 
A    3
 C3 
A    4
 C4 
A    5
 C5 
A    6
 C6 
A    7
 O1 
A    8
 C7 
A    9
 O2 
A   10
 C8 
A   11
 C9 
A   12
 O3 
A   13
 C10
A   14
 C11
A   15
 O4 
A   16
 C12
A   17
 C13
A   18
 C14
A   19
 H1 
A   20
 H2 
A   21
 H3 
A   22
 H4 
A   23
 H5 
A   24
 H6 
A   25
 H7 
A   26
 H8 
A   27
 H9 
A   28
 H10
A   29
 H11
A   30
 H12
A   31
 H13
A   32
 H14
A   33
 H15
A   34
 H16
A   35
 H17
A   36
 H18
M  END
>  <ref_pdb>  (44) 
x0310_0A

>  <ref_mols>  (44) 
x0554_0A,x0812_0A,x0416_0A

>  <original SMILES>  (44) 
Cc1cc(C)c(OC(=O)[C@@H]2COCCO2)c(C)c1

>  <rationale>  (44) 
info hbond:E88; hydroph_interaction:P107+V124; 

>  <intxn_cluster>  (44) 
103

>  <intxn_cluster_rank>  (44) 
205

>  <N_interactions>  (44) 
3

>  <∆∆G>  (44) 
-9.437421

>  <$/mg>  (44) 
163.0

>  <comRMSD>  (44) 
0.838405

>  <N_rotatable_bonds>  (44) 
5

>  <hbond:SER:7>  (44) 
hbond:SER:7    0
hbond:SER:7    0
Name: 43, dtype: object

>  <halogenbond:SER:7>  (44) 
halogenbond:SER:7    0
halogenbond:SER:7    0
Name: 43, dtype: object

>  <hbond:GLY:8>  (44) 
hbond:GLY:8    0
hbond:GLY:8    0
Name: 43, dtype: object

>  <hydroph_interaction:ASN:19>  (44) 
hydroph_interaction:ASN:19    0
hydroph_interaction:ASN:19    0
Name: 43, dtype: object

>  <hbond:ASN:19>  (44) 
hbond:ASN:19    0
hbond:ASN:19    0
Name: 43, dtype: object

>  <halogenbond:ASN:19>  (44) 
halogenbond:ASN:19    0
halogenbond:ASN:19    0
Name: 43, dtype: object

>  <hbond:ARG:20>  (44) 
hbond:ARG:20    0
hbond:ARG:20    0
Name: 43, dtype: object

>  <hydroph_interaction:ARG:20>  (44) 
hydroph_interaction:ARG:20    0
hydroph_interaction:ARG:20    0
Name: 43, dtype: object

>  <saltbridge:ARG:20>  (44) 
saltbridge:ARG:20    0
saltbridge:ARG:20    0
Name: 43, dtype: object

>  <halogenbond:ARG:20>  (44) 
halogenbond:ARG:20    0
halogenbond:ARG:20    0
Name: 43, dtype: object

>  <pication:ARG:20>  (44) 
pication:ARG:20    0
pication:ARG:20    0
Name: 43, dtype: object

>  <hbond:HIS:21>  (44) 
hbond:HIS:21    0
hbond:HIS:21    0
Name: 43, dtype: object

>  <hydroph_interaction:HIS:21>  (44) 
hydroph_interaction:HIS:21    0
hydroph_interaction:HIS:21    0
Name: 43, dtype: object

>  <saltbridge:HIS:21>  (44) 
saltbridge:HIS:21    0
saltbridge:HIS:21    0
Name: 43, dtype: object

>  <pistack:HIS:21>  (44) 
pistack:HIS:21    0
pistack:HIS:21    0
Name: 43, dtype: object

>  <pication:HIS:21>  (44) 
pication:HIS:21    0
pication:HIS:21    0
Name: 43, dtype: object

>  <halogenbond:HIS:21>  (44) 
halogenbond:HIS:21    0
halogenbond:HIS:21    0
Name: 43, dtype: object

>  <hydroph_interaction:LEU:22>  (44) 
hydroph_interaction:LEU:22    0
hydroph_interaction:LEU:22    0
Name: 43, dtype: object

>  <hbond:LEU:22>  (44) 
hbond:LEU:22    0
hbond:LEU:22    0
Name: 43, dtype: object

>  <hydroph_interaction:TRP:28>  (44) 
hydroph_interaction:TRP:28    0
hydroph_interaction:TRP:28    0
Name: 43, dtype: object

>  <hbond:SER:36>  (44) 
hbond:SER:36    0
hbond:SER:36    0
Name: 43, dtype: object

>  <halogenbond:SER:36>  (44) 
halogenbond:SER:36    0
halogenbond:SER:36    0
Name: 43, dtype: object

>  <hbond:ARG:38>  (44) 
hbond:ARG:38    0
hbond:ARG:38    0
Name: 43, dtype: object

>  <halogenbond:ARG:38>  (44) 
halogenbond:ARG:38    0
halogenbond:ARG:38    0
Name: 43, dtype: object

>  <hbond:ASP:39>  (44) 
hbond:ASP:39    0
hbond:ASP:39    0
Name: 43, dtype: object

>  <saltbridge:ASP:39>  (44) 
saltbridge:ASP:39    0
saltbridge:ASP:39    0
Name: 43, dtype: object

>  <hydroph_interaction:ASP:39>  (44) 
hydroph_interaction:ASP:39    0
hydroph_interaction:ASP:39    0
Name: 43, dtype: object

>  <halogenbond:ASP:39>  (44) 
halogenbond:ASP:39    0
halogenbond:ASP:39    0
Name: 43, dtype: object

>  <hydroph_interaction:LEU:40>  (44) 
hydroph_interaction:LEU:40    0
hydroph_interaction:LEU:40    0
Name: 43, dtype: object

>  <hydroph_interaction:TYR:63>  (44) 
hydroph_interaction:TYR:63    0
hydroph_interaction:TYR:63    0
Name: 43, dtype: object

>  <pistack:TYR:63>  (44) 
pistack:TYR:63    0
pistack:TYR:63    0
Name: 43, dtype: object

>  <hbond:TYR:63>  (44) 
hbond:TYR:63    0
hbond:TYR:63    0
Name: 43, dtype: object

>  <hbond:TYR:64>  (44) 
hbond:TYR:64    0
hbond:TYR:64    0
Name: 43, dtype: object

>  <halogenbond:TYR:64>  (44) 
halogenbond:TYR:64    0
halogenbond:TYR:64    0
Name: 43, dtype: object

>  <hydroph_interaction:TYR:64>  (44) 
hydroph_interaction:TYR:64    0
hydroph_interaction:TYR:64    0
Name: 43, dtype: object

>  <hbond:CYS:65>  (44) 
hbond:CYS:65    0
hbond:CYS:65    0
Name: 43, dtype: object

>  <halogenbond:CYS:65>  (44) 
halogenbond:CYS:65    0
halogenbond:CYS:65    0
Name: 43, dtype: object

>  <hbond:SER:66>  (44) 
hbond:SER:66    0
hbond:SER:66    0
Name: 43, dtype: object

>  <hbond:SER:67>  (44) 
hbond:SER:67    0
hbond:SER:67    0
Name: 43, dtype: object

>  <halogenbond:SER:67>  (44) 
halogenbond:SER:67    0
halogenbond:SER:67    0
Name: 43, dtype: object

>  <hydroph_interaction:ARG:68>  (44) 
hydroph_interaction:ARG:68    0
hydroph_interaction:ARG:68    0
Name: 43, dtype: object

>  <hbond:ARG:68>  (44) 
hbond:ARG:68    0
hbond:ARG:68    0
Name: 43, dtype: object

>  <saltbridge:ARG:68>  (44) 
saltbridge:ARG:68    0
saltbridge:ARG:68    0
Name: 43, dtype: object

>  <pication:ARG:68>  (44) 
pication:ARG:68    0
pication:ARG:68    0
Name: 43, dtype: object

>  <hydroph_interaction:TYR:72>  (44) 
hydroph_interaction:TYR:72    0
hydroph_interaction:TYR:72    0
Name: 43, dtype: object

>  <hydroph_interaction:VAL:74>  (44) 
hydroph_interaction:VAL:74    0
hydroph_interaction:VAL:74    0
Name: 43, dtype: object

>  <hydroph_interaction:PHE:76>  (44) 
hydroph_interaction:PHE:76    0
hydroph_interaction:PHE:76    0
Name: 43, dtype: object

>  <hbond:SER:77>  (44) 
hbond:SER:77    0
hbond:SER:77    0
Name: 43, dtype: object

>  <hbond:SER:80>  (44) 
hbond:SER:80    0
hbond:SER:80    0
Name: 43, dtype: object

>  <hbond:LEU:81>  (44) 
hbond:LEU:81    0
hbond:LEU:81    0
Name: 43, dtype: object

>  <halogenbond:LEU:81>  (44) 
halogenbond:LEU:81    0
halogenbond:LEU:81    0
Name: 43, dtype: object

>  <hydroph_interaction:LEU:81>  (44) 
hydroph_interaction:LEU:81    0
hydroph_interaction:LEU:81    0
Name: 43, dtype: object

>  <hydroph_interaction:ILE:82>  (44) 
hydroph_interaction:ILE:82    0
hydroph_interaction:ILE:82    0
Name: 43, dtype: object

>  <hbond:ILE:82>  (44) 
hbond:ILE:82    0
hbond:ILE:82    0
Name: 43, dtype: object

>  <hydroph_interaction:PHE:83>  (44) 
hydroph_interaction:PHE:83    0
hydroph_interaction:PHE:83    0
Name: 43, dtype: object

>  <hbond:PHE:83>  (44) 
hbond:PHE:83    0
hbond:PHE:83    0
Name: 43, dtype: object

>  <halogenbond:PHE:83>  (44) 
halogenbond:PHE:83    0
halogenbond:PHE:83    0
Name: 43, dtype: object

>  <pistack:PHE:83>  (44) 
pistack:PHE:83    0
pistack:PHE:83    0
Name: 43, dtype: object

>  <hydroph_interaction:VAL:84>  (44) 
hydroph_interaction:VAL:84    0
hydroph_interaction:VAL:84    0
Name: 43, dtype: object

>  <hbond:VAL:84>  (44) 
hbond:VAL:84    0
hbond:VAL:84    0
Name: 43, dtype: object

>  <halogenbond:VAL:84>  (44) 
halogenbond:VAL:84    0
halogenbond:VAL:84    0
Name: 43, dtype: object

>  <hydroph_interaction:GLU:85>  (44) 
hydroph_interaction:GLU:85    0
hydroph_interaction:GLU:85    0
Name: 43, dtype: object

>  <hbond:GLU:85>  (44) 
hbond:GLU:85    0
hbond:GLU:85    0
Name: 43, dtype: object

>  <saltbridge:GLU:85>  (44) 
saltbridge:GLU:85    0
saltbridge:GLU:85    0
Name: 43, dtype: object

>  <halogenbond:GLU:85>  (44) 
halogenbond:GLU:85    0
halogenbond:GLU:85    0
Name: 43, dtype: object

>  <hbond:ALA:86>  (44) 
hbond:ALA:86    0
hbond:ALA:86    0
Name: 43, dtype: object

>  <halogenbond:ALA:86>  (44) 
halogenbond:ALA:86    0
halogenbond:ALA:86    0
Name: 43, dtype: object

>  <hydroph_interaction:ALA:86>  (44) 
hydroph_interaction:ALA:86    0
hydroph_interaction:ALA:86    0
Name: 43, dtype: object

>  <hbond:SER:87>  (44) 
hbond:SER:87    0
hbond:SER:87    0
Name: 43, dtype: object

>  <halogenbond:SER:87>  (44) 
halogenbond:SER:87    0
halogenbond:SER:87    0
Name: 43, dtype: object

>  <hbond:GLU:88>  (44) 
hbond:GLU:88    1
hbond:GLU:88    1
Name: 43, dtype: object

>  <hydroph_interaction:GLU:88>  (44) 
hydroph_interaction:GLU:88    0
hydroph_interaction:GLU:88    0
Name: 43, dtype: object

>  <halogenbond:GLU:88>  (44) 
halogenbond:GLU:88    0
halogenbond:GLU:88    0
Name: 43, dtype: object

>  <saltbridge:GLU:88>  (44) 
saltbridge:GLU:88    0
saltbridge:GLU:88    0
Name: 43, dtype: object

>  <hydroph_interaction:TYR:89>  (44) 
hydroph_interaction:TYR:89    0
hydroph_interaction:TYR:89    0
Name: 43, dtype: object

>  <pistack:TYR:89>  (44) 
pistack:TYR:89    0
pistack:TYR:89    0
Name: 43, dtype: object

>  <hbond:TYR:89>  (44) 
hbond:TYR:89    0
hbond:TYR:89    0
Name: 43, dtype: object

>  <halogenbond:TYR:89>  (44) 
halogenbond:TYR:89    0
halogenbond:TYR:89    0
Name: 43, dtype: object

>  <hbond:TYR:90>  (44) 
hbond:TYR:90    0
hbond:TYR:90    0
Name: 43, dtype: object

>  <hydroph_interaction:TYR:90>  (44) 
hydroph_interaction:TYR:90    0
hydroph_interaction:TYR:90    0
Name: 43, dtype: object

>  <pistack:TYR:90>  (44) 
pistack:TYR:90    0
pistack:TYR:90    0
Name: 43, dtype: object

>  <halogenbond:TYR:90>  (44) 
halogenbond:TYR:90    0
halogenbond:TYR:90    0
Name: 43, dtype: object

>  <pication:TYR:90>  (44) 
pication:TYR:90    0
pication:TYR:90    0
Name: 43, dtype: object

>  <hydroph_interaction:PRO:91>  (44) 
hydroph_interaction:PRO:91    0
hydroph_interaction:PRO:91    0
Name: 43, dtype: object

>  <halogenbond:PRO:91>  (44) 
halogenbond:PRO:91    0
halogenbond:PRO:91    0
Name: 43, dtype: object

>  <hbond:PRO:91>  (44) 
hbond:PRO:91    0
hbond:PRO:91    0
Name: 43, dtype: object

>  <hydroph_interaction:ALA:92>  (44) 
hydroph_interaction:ALA:92    0
hydroph_interaction:ALA:92    0
Name: 43, dtype: object

>  <hbond:ARG:93>  (44) 
hbond:ARG:93    0
hbond:ARG:93    0
Name: 43, dtype: object

>  <pication:ARG:93>  (44) 
pication:ARG:93    0
pication:ARG:93    0
Name: 43, dtype: object

>  <saltbridge:ARG:93>  (44) 
saltbridge:ARG:93    0
saltbridge:ARG:93    0
Name: 43, dtype: object

>  <hydroph_interaction:ARG:93>  (44) 
hydroph_interaction:ARG:93    0
hydroph_interaction:ARG:93    0
Name: 43, dtype: object

>  <halogenbond:ARG:93>  (44) 
halogenbond:ARG:93    0
halogenbond:ARG:93    0
Name: 43, dtype: object

>  <hydroph_interaction:TYR:94>  (44) 
hydroph_interaction:TYR:94    0
hydroph_interaction:TYR:94    0
Name: 43, dtype: object

>  <hbond:TYR:94>  (44) 
hbond:TYR:94    0
hbond:TYR:94    0
Name: 43, dtype: object

>  <halogenbond:GLN:95>  (44) 
halogenbond:GLN:95    0
halogenbond:GLN:95    0
Name: 43, dtype: object

>  <hbond:GLN:95>  (44) 
hbond:GLN:95    0
hbond:GLN:95    0
Name: 43, dtype: object

>  <hydroph_interaction:GLN:95>  (44) 
hydroph_interaction:GLN:95    0
hydroph_interaction:GLN:95    0
Name: 43, dtype: object

>  <hbond:SER:96>  (44) 
hbond:SER:96    0
hbond:SER:96    0
Name: 43, dtype: object

>  <hydroph_interaction:LEU:98>  (44) 
hydroph_interaction:LEU:98    0
hydroph_interaction:LEU:98    0
Name: 43, dtype: object

>  <hbond:LEU:98>  (44) 
hbond:LEU:98    0
hbond:LEU:98    0
Name: 43, dtype: object

>  <hbond:MET:99>  (44) 
hbond:MET:99    0
hbond:MET:99    0
Name: 43, dtype: object

>  <hydroph_interaction:MET:99>  (44) 
hydroph_interaction:MET:99    0
hydroph_interaction:MET:99    0
Name: 43, dtype: object

>  <halogenbond:MET:99>  (44) 
halogenbond:MET:99    0
halogenbond:MET:99    0
Name: 43, dtype: object

>  <hydroph_interaction:LEU:100>  (44) 
hydroph_interaction:LEU:100    0
hydroph_interaction:LEU:100    0
Name: 43, dtype: object

>  <hbond:LEU:100>  (44) 
hbond:LEU:100    0
hbond:LEU:100    0
Name: 43, dtype: object

>  <hbond:ALA:101>  (44) 
hbond:ALA:101    0
hbond:ALA:101    0
Name: 43, dtype: object

>  <hydroph_interaction:ALA:101>  (44) 
hydroph_interaction:ALA:101    0
hydroph_interaction:ALA:101    0
Name: 43, dtype: object

>  <hydroph_interaction:VAL:102>  (44) 
hydroph_interaction:VAL:102    0
hydroph_interaction:VAL:102    0
Name: 43, dtype: object

>  <hbond:VAL:102>  (44) 
hbond:VAL:102    0
hbond:VAL:102    0
Name: 43, dtype: object

>  <hbond:GLY:103>  (44) 
hbond:GLY:103    0
hbond:GLY:103    0
Name: 43, dtype: object

>  <halogenbond:GLY:103>  (44) 
halogenbond:GLY:103    0
halogenbond:GLY:103    0
Name: 43, dtype: object

>  <hydroph_interaction:HIS:104>  (44) 
hydroph_interaction:HIS:104    0
hydroph_interaction:HIS:104    0
Name: 43, dtype: object

>  <hbond:HIS:104>  (44) 
hbond:HIS:104    0
hbond:HIS:104    0
Name: 43, dtype: object

>  <saltbridge:HIS:104>  (44) 
saltbridge:HIS:104    0
saltbridge:HIS:104    0
Name: 43, dtype: object

>  <pication:HIS:104>  (44) 
pication:HIS:104    0
pication:HIS:104    0
Name: 43, dtype: object

>  <pistack:HIS:104>  (44) 
pistack:HIS:104    0
pistack:HIS:104    0
Name: 43, dtype: object

>  <halogenbond:HIS:104>  (44) 
halogenbond:HIS:104    0
halogenbond:HIS:104    0
Name: 43, dtype: object

>  <hbond:SER:105>  (44) 
hbond:SER:105    0
hbond:SER:105    0
Name: 43, dtype: object

>  <halogenbond:SER:105>  (44) 
halogenbond:SER:105    0
halogenbond:SER:105    0
Name: 43, dtype: object

>  <hbond:GLU:106>  (44) 
hbond:GLU:106    0
hbond:GLU:106    0
Name: 43, dtype: object

>  <hydroph_interaction:GLU:106>  (44) 
hydroph_interaction:GLU:106    0
hydroph_interaction:GLU:106    0
Name: 43, dtype: object

>  <saltbridge:GLU:106>  (44) 
saltbridge:GLU:106    0
saltbridge:GLU:106    0
Name: 43, dtype: object

>  <halogenbond:GLU:106>  (44) 
halogenbond:GLU:106    0
halogenbond:GLU:106    0
Name: 43, dtype: object

>  <hydroph_interaction:PRO:107>  (44) 
hydroph_interaction:PRO:107    1
hydroph_interaction:PRO:107    1
Name: 43, dtype: object

>  <hbond:PRO:107>  (44) 
hbond:PRO:107    0
hbond:PRO:107    0
Name: 43, dtype: object

>  <halogenbond:PRO:107>  (44) 
halogenbond:PRO:107    0
halogenbond:PRO:107    0
Name: 43, dtype: object

>  <hbond:GLY:108>  (44) 
hbond:GLY:108    0
hbond:GLY:108    0
Name: 43, dtype: object

>  <halogenbond:GLY:108>  (44) 
halogenbond:GLY:108    0
halogenbond:GLY:108    0
Name: 43, dtype: object

>  <hbond:ASP:109>  (44) 
hbond:ASP:109    0
hbond:ASP:109    0
Name: 43, dtype: object

>  <hydroph_interaction:ASP:109>  (44) 
hydroph_interaction:ASP:109    0
hydroph_interaction:ASP:109    0
Name: 43, dtype: object

>  <saltbridge:ASP:109>  (44) 
saltbridge:ASP:109    0
saltbridge:ASP:109    0
Name: 43, dtype: object

>  <hbond:CYS:110>  (44) 
hbond:CYS:110    0
hbond:CYS:110    0
Name: 43, dtype: object

>  <halogenbond:CYS:110>  (44) 
halogenbond:CYS:110    0
halogenbond:CYS:110    0
Name: 43, dtype: object

>  <hbond:GLY:111>  (44) 
hbond:GLY:111    0
hbond:GLY:111    0
Name: 43, dtype: object

>  <hbond:GLY:112>  (44) 
hbond:GLY:112    0
hbond:GLY:112    0
Name: 43, dtype: object

>  <hbond:ILE:113>  (44) 
hbond:ILE:113    0
hbond:ILE:113    0
Name: 43, dtype: object

>  <hydroph_interaction:LEU:114>  (44) 
hydroph_interaction:LEU:114    0
hydroph_interaction:LEU:114    0
Name: 43, dtype: object

>  <hbond:LEU:114>  (44) 
hbond:LEU:114    0
hbond:LEU:114    0
Name: 43, dtype: object

>  <hydroph_interaction:ILE:123>  (44) 
hydroph_interaction:ILE:123    0
hydroph_interaction:ILE:123    0
Name: 43, dtype: object

>  <hbond:ILE:123>  (44) 
hbond:ILE:123    0
hbond:ILE:123    0
Name: 43, dtype: object

>  <hydroph_interaction:VAL:124>  (44) 
hydroph_interaction:VAL:124    1
hydroph_interaction:VAL:124    1
Name: 43, dtype: object

>  <hbond:VAL:124>  (44) 
hbond:VAL:124    0
hbond:VAL:124    0
Name: 43, dtype: object

>  <halogenbond:VAL:124>  (44) 
halogenbond:VAL:124    0
halogenbond:VAL:124    0
Name: 43, dtype: object

>  <hbond:SER:125>  (44) 
hbond:SER:125    0
hbond:SER:125    0
Name: 43, dtype: object

>  <halogenbond:SER:125>  (44) 
halogenbond:SER:125    0
halogenbond:SER:125    0
Name: 43, dtype: object

>  <hydroph_interaction:THR:126>  (44) 
hydroph_interaction:THR:126    0
hydroph_interaction:THR:126    0
Name: 43, dtype: object

>  <hbond:THR:126>  (44) 
hbond:THR:126    0
hbond:THR:126    0
Name: 43, dtype: object

>  <halogenbond:THR:126>  (44) 
halogenbond:THR:126    0
halogenbond:THR:126    0
Name: 43, dtype: object

>  <hbond:GLY:127>  (44) 
hbond:GLY:127    0
hbond:GLY:127    0
Name: 43, dtype: object

>  <halogenbond:GLY:127>  (44) 
halogenbond:GLY:127    0
halogenbond:GLY:127    0
Name: 43, dtype: object

>  <hydroph_interaction:GLY:127>  (44) 
hydroph_interaction:GLY:127    0
hydroph_interaction:GLY:127    0
Name: 43, dtype: object

>  <hbond:GLY:128>  (44) 
hbond:GLY:128    0
hbond:GLY:128    0
Name: 43, dtype: object

>  <halogenbond:GLY:128>  (44) 
halogenbond:GLY:128    0
halogenbond:GLY:128    0
Name: 43, dtype: object

>  <hydroph_interaction:GLY:128>  (44) 
hydroph_interaction:GLY:128    0
hydroph_interaction:GLY:128    0
Name: 43, dtype: object

>  <hbond:ASN:129>  (44) 
hbond:ASN:129    0
hbond:ASN:129    0
Name: 43, dtype: object

>  <hydroph_interaction:ASN:129>  (44) 
hydroph_interaction:ASN:129    0
hydroph_interaction:ASN:129    0
Name: 43, dtype: object

>  <halogenbond:ASN:129>  (44) 
halogenbond:ASN:129    0
halogenbond:ASN:129    0
Name: 43, dtype: object

>  <hbond:GLY:130>  (44) 
hbond:GLY:130    0
hbond:GLY:130    0
Name: 43, dtype: object

>  <hydroph_interaction:LEU:131>  (44) 
hydroph_interaction:LEU:131    0
hydroph_interaction:LEU:131    0
Name: 43, dtype: object

>  <hbond:LEU:131>  (44) 
hbond:LEU:131    0
hbond:LEU:131    0
Name: 43, dtype: object

>  <halogenbond:LEU:131>  (44) 
halogenbond:LEU:131    0
halogenbond:LEU:131    0
Name: 43, dtype: object

>  <hydroph_interaction:VAL:132>  (44) 
hydroph_interaction:VAL:132    0
hydroph_interaction:VAL:132    0
Name: 43, dtype: object

>  <hbond:VAL:132>  (44) 
hbond:VAL:132    0
hbond:VAL:132    0
Name: 43, dtype: object

>  <hbond:GLY:133>  (44) 
hbond:GLY:133    0
hbond:GLY:133    0
Name: 43, dtype: object

>  <halogenbond:GLY:133>  (44) 
halogenbond:GLY:133    0
halogenbond:GLY:133    0
Name: 43, dtype: object

>  <hydroph_interaction:PHE:134>  (44) 
hydroph_interaction:PHE:134    0
hydroph_interaction:PHE:134    0
Name: 43, dtype: object

>  <hbond:PHE:134>  (44) 
hbond:PHE:134    0
hbond:PHE:134    0
Name: 43, dtype: object

>  <pistack:PHE:134>  (44) 
pistack:PHE:134    0
pistack:PHE:134    0
Name: 43, dtype: object

>  <pication:PHE:134>  (44) 
pication:PHE:134    0
pication:PHE:134    0
Name: 43, dtype: object

>  <hydroph_interaction:ALA:135>  (44) 
hydroph_interaction:ALA:135    0
hydroph_interaction:ALA:135    0
Name: 43, dtype: object

>  <hbond:ALA:135>  (44) 
hbond:ALA:135    0
hbond:ALA:135    0
Name: 43, dtype: object

$$$$
PV_002766855601
     RDKit          3D

 28 29  0  0  0  0  0  0  0  0999 V2000
   12.2040   15.3020   21.9790 C   0  0  0  0  0  0  0  0  0  0  0  0
   11.5240   14.2460   22.8110 C   0  0  0  0  0  0  0  0  0  0  0  0
   11.9230   14.0060   24.2500 C   0  0  0  0  0  0  0  0  0  0  0  0
   10.4150   13.3810   22.2220 C   0  0  0  0  0  0  0  0  0  0  0  0
    9.7960   12.3590   22.9660 C   0  0  0  0  0  0  0  0  0  0  0  0
    8.8130   12.6130   23.9440 C   0  0  0  0  0  0  0  0  0  0  0  0
    8.3120   13.8330   24.3390 O   0  0  0  0  0  0  0  0  0  0  0  0
    7.3610   13.6080   25.3210 C   0  0  0  0  0  0  0  0  0  0  0  0
    6.6220   14.8070   25.9600 C   0  0  0  0  0  0  0  0  0  0  0  0
    6.9950   15.9680   25.9320 O   0  0  0  0  0  0  0  0  0  0  0  0
    5.6030   14.4070   26.5140 O   0  0  0  0  0  0  0  0  0  0  0  0
    7.2720   12.2590   25.5370 C   0  0  0  0  0  0  0  0  0  0  0  0
    8.1700   11.6190   24.6870 C   0  0  0  0  0  0  0  0  0  0  0  0
    8.4360   10.3280   24.5370 C   0  0  0  0  0  0  0  0  0  0  0  0
    9.4470    9.9170   23.5540 C   0  0  0  0  0  0  0  0  0  0  0  0
   10.1280   11.0060   22.7590 C   0  0  0  0  0  0  0  0  0  0  0  0
   13.1670   14.9450   21.5980 H   0  0  0  0  0  0  0  0  0  0  0  0
   11.5720   15.5510   21.1210 H   0  0  0  0  0  0  0  0  0  0  0  0
   12.3600   16.1980   22.5870 H   0  0  0  0  0  0  0  0  0  0  0  0
   12.3150   14.8440   24.8230 H   0  0  0  0  0  0  0  0  0  0  0  0
   11.0660   13.6410   24.8170 H   0  0  0  0  0  0  0  0  0  0  0  0
   12.6970   13.2320   24.2580 H   0  0  0  0  0  0  0  0  0  0  0  0
   10.0850   13.5260   21.2010 H   0  0  0  0  0  0  0  0  0  0  0  0
    4.8820   14.6520   25.8640 H   0  0  0  0  0  0  0  0  0  0  0  0
    6.6680   11.6330   26.2050 H   0  0  0  0  0  0  0  0  0  0  0  0
    7.9460    9.5480   25.1040 H   0  0  0  0  0  0  0  0  0  0  0  0
    9.7080    8.8790   23.3910 H   0  0  0  0  0  0  0  0  0  0  0  0
   10.8690   10.7310   22.0270 H   0  0  0  0  0  0  0  0  0  0  0  0
  1  2  1  0
  2  3  1  0
  2  4  2  3
  4  5  1  0
  5  6  2  0
  6  7  1  0
  7  8  1  0
  8  9  1  0
  9 10  2  0
  9 11  1  0
  8 12  2  0
 12 13  1  0
 13 14  2  0
 14 15  1  0
 15 16  2  0
 16  5  1  0
 13  6  1  0
  1 17  1  0
  1 18  1  0
  1 19  1  0
  3 20  1  0
  3 21  1  0
  3 22  1  0
  4 23  1  0
 11 24  1  0
 12 25  1  0
 14 26  1  0
 15 27  1  0
 16 28  1  0
A    1
 C1 
A    2
 C2 
A    3
 C3 
A    4
 C4 
A    5
 C5 
A    6
 C6 
A    7
 O1 
A    8
 C7 
A    9
 C8 
A   10
 O2 
A   11
 O3 
A   12
 C9 
A   13
 C10
A   14
 C11
A   15
 C12
A   16
 C13
A   17
 H1 
A   18
 H2 
A   19
 H3 
A   20
 H4 
A   21
 H5 
A   22
 H6 
A   23
 H7 
A   24
 H8 
A   25
 H9 
A   26
 H10
A   27
 H11
A   28
 H12
M  END
>  <ref_pdb>  (45) 
x0310_0A

>  <ref_mols>  (45) 
x0554_0A,x0416_0A,x0446_0A

>  <original SMILES>  (45) 
CC(C)=Cc1cccc2cc(C(=O)O)oc12

>  <rationale>  (45) 
info hbond:E85; hydroph_interaction:P107; 

>  <intxn_cluster>  (45) 
208

>  <intxn_cluster_rank>  (45) 
206

>  <N_interactions>  (45) 
3

>  <∆∆G>  (45) 
-10.013829

>  <$/mg>  (45) 
163.0

>  <comRMSD>  (45) 
0.890354

>  <N_rotatable_bonds>  (45) 
4

>  <hbond:SER:7>  (45) 
hbond:SER:7    0
hbond:SER:7    0
Name: 44, dtype: object

>  <halogenbond:SER:7>  (45) 
halogenbond:SER:7    0
halogenbond:SER:7    0
Name: 44, dtype: object

>  <hbond:GLY:8>  (45) 
hbond:GLY:8    0
hbond:GLY:8    0
Name: 44, dtype: object

>  <hydroph_interaction:ASN:19>  (45) 
hydroph_interaction:ASN:19    0
hydroph_interaction:ASN:19    0
Name: 44, dtype: object

>  <hbond:ASN:19>  (45) 
hbond:ASN:19    0
hbond:ASN:19    0
Name: 44, dtype: object

>  <halogenbond:ASN:19>  (45) 
halogenbond:ASN:19    0
halogenbond:ASN:19    0
Name: 44, dtype: object

>  <hbond:ARG:20>  (45) 
hbond:ARG:20    0
hbond:ARG:20    0
Name: 44, dtype: object

>  <hydroph_interaction:ARG:20>  (45) 
hydroph_interaction:ARG:20    0
hydroph_interaction:ARG:20    0
Name: 44, dtype: object

>  <saltbridge:ARG:20>  (45) 
saltbridge:ARG:20    0
saltbridge:ARG:20    0
Name: 44, dtype: object

>  <halogenbond:ARG:20>  (45) 
halogenbond:ARG:20    0
halogenbond:ARG:20    0
Name: 44, dtype: object

>  <pication:ARG:20>  (45) 
pication:ARG:20    0
pication:ARG:20    0
Name: 44, dtype: object

>  <hbond:HIS:21>  (45) 
hbond:HIS:21    0
hbond:HIS:21    0
Name: 44, dtype: object

>  <hydroph_interaction:HIS:21>  (45) 
hydroph_interaction:HIS:21    0
hydroph_interaction:HIS:21    0
Name: 44, dtype: object

>  <saltbridge:HIS:21>  (45) 
saltbridge:HIS:21    0
saltbridge:HIS:21    0
Name: 44, dtype: object

>  <pistack:HIS:21>  (45) 
pistack:HIS:21    0
pistack:HIS:21    0
Name: 44, dtype: object

>  <pication:HIS:21>  (45) 
pication:HIS:21    0
pication:HIS:21    0
Name: 44, dtype: object

>  <halogenbond:HIS:21>  (45) 
halogenbond:HIS:21    0
halogenbond:HIS:21    0
Name: 44, dtype: object

>  <hydroph_interaction:LEU:22>  (45) 
hydroph_interaction:LEU:22    0
hydroph_interaction:LEU:22    0
Name: 44, dtype: object

>  <hbond:LEU:22>  (45) 
hbond:LEU:22    0
hbond:LEU:22    0
Name: 44, dtype: object

>  <hydroph_interaction:TRP:28>  (45) 
hydroph_interaction:TRP:28    0
hydroph_interaction:TRP:28    0
Name: 44, dtype: object

>  <hbond:SER:36>  (45) 
hbond:SER:36    0
hbond:SER:36    0
Name: 44, dtype: object

>  <halogenbond:SER:36>  (45) 
halogenbond:SER:36    0
halogenbond:SER:36    0
Name: 44, dtype: object

>  <hbond:ARG:38>  (45) 
hbond:ARG:38    0
hbond:ARG:38    0
Name: 44, dtype: object

>  <halogenbond:ARG:38>  (45) 
halogenbond:ARG:38    0
halogenbond:ARG:38    0
Name: 44, dtype: object

>  <hbond:ASP:39>  (45) 
hbond:ASP:39    0
hbond:ASP:39    0
Name: 44, dtype: object

>  <saltbridge:ASP:39>  (45) 
saltbridge:ASP:39    0
saltbridge:ASP:39    0
Name: 44, dtype: object

>  <hydroph_interaction:ASP:39>  (45) 
hydroph_interaction:ASP:39    0
hydroph_interaction:ASP:39    0
Name: 44, dtype: object

>  <halogenbond:ASP:39>  (45) 
halogenbond:ASP:39    0
halogenbond:ASP:39    0
Name: 44, dtype: object

>  <hydroph_interaction:LEU:40>  (45) 
hydroph_interaction:LEU:40    0
hydroph_interaction:LEU:40    0
Name: 44, dtype: object

>  <hydroph_interaction:TYR:63>  (45) 
hydroph_interaction:TYR:63    0
hydroph_interaction:TYR:63    0
Name: 44, dtype: object

>  <pistack:TYR:63>  (45) 
pistack:TYR:63    0
pistack:TYR:63    0
Name: 44, dtype: object

>  <hbond:TYR:63>  (45) 
hbond:TYR:63    0
hbond:TYR:63    0
Name: 44, dtype: object

>  <hbond:TYR:64>  (45) 
hbond:TYR:64    0
hbond:TYR:64    0
Name: 44, dtype: object

>  <halogenbond:TYR:64>  (45) 
halogenbond:TYR:64    0
halogenbond:TYR:64    0
Name: 44, dtype: object

>  <hydroph_interaction:TYR:64>  (45) 
hydroph_interaction:TYR:64    0
hydroph_interaction:TYR:64    0
Name: 44, dtype: object

>  <hbond:CYS:65>  (45) 
hbond:CYS:65    0
hbond:CYS:65    0
Name: 44, dtype: object

>  <halogenbond:CYS:65>  (45) 
halogenbond:CYS:65    0
halogenbond:CYS:65    0
Name: 44, dtype: object

>  <hbond:SER:66>  (45) 
hbond:SER:66    0
hbond:SER:66    0
Name: 44, dtype: object

>  <hbond:SER:67>  (45) 
hbond:SER:67    0
hbond:SER:67    0
Name: 44, dtype: object

>  <halogenbond:SER:67>  (45) 
halogenbond:SER:67    0
halogenbond:SER:67    0
Name: 44, dtype: object

>  <hydroph_interaction:ARG:68>  (45) 
hydroph_interaction:ARG:68    0
hydroph_interaction:ARG:68    0
Name: 44, dtype: object

>  <hbond:ARG:68>  (45) 
hbond:ARG:68    0
hbond:ARG:68    0
Name: 44, dtype: object

>  <saltbridge:ARG:68>  (45) 
saltbridge:ARG:68    0
saltbridge:ARG:68    0
Name: 44, dtype: object

>  <pication:ARG:68>  (45) 
pication:ARG:68    0
pication:ARG:68    0
Name: 44, dtype: object

>  <hydroph_interaction:TYR:72>  (45) 
hydroph_interaction:TYR:72    0
hydroph_interaction:TYR:72    0
Name: 44, dtype: object

>  <hydroph_interaction:VAL:74>  (45) 
hydroph_interaction:VAL:74    0
hydroph_interaction:VAL:74    0
Name: 44, dtype: object

>  <hydroph_interaction:PHE:76>  (45) 
hydroph_interaction:PHE:76    0
hydroph_interaction:PHE:76    0
Name: 44, dtype: object

>  <hbond:SER:77>  (45) 
hbond:SER:77    0
hbond:SER:77    0
Name: 44, dtype: object

>  <hbond:SER:80>  (45) 
hbond:SER:80    0
hbond:SER:80    0
Name: 44, dtype: object

>  <hbond:LEU:81>  (45) 
hbond:LEU:81    0
hbond:LEU:81    0
Name: 44, dtype: object

>  <halogenbond:LEU:81>  (45) 
halogenbond:LEU:81    0
halogenbond:LEU:81    0
Name: 44, dtype: object

>  <hydroph_interaction:LEU:81>  (45) 
hydroph_interaction:LEU:81    0
hydroph_interaction:LEU:81    0
Name: 44, dtype: object

>  <hydroph_interaction:ILE:82>  (45) 
hydroph_interaction:ILE:82    0
hydroph_interaction:ILE:82    0
Name: 44, dtype: object

>  <hbond:ILE:82>  (45) 
hbond:ILE:82    0
hbond:ILE:82    0
Name: 44, dtype: object

>  <hydroph_interaction:PHE:83>  (45) 
hydroph_interaction:PHE:83    0
hydroph_interaction:PHE:83    0
Name: 44, dtype: object

>  <hbond:PHE:83>  (45) 
hbond:PHE:83    0
hbond:PHE:83    0
Name: 44, dtype: object

>  <halogenbond:PHE:83>  (45) 
halogenbond:PHE:83    0
halogenbond:PHE:83    0
Name: 44, dtype: object

>  <pistack:PHE:83>  (45) 
pistack:PHE:83    0
pistack:PHE:83    0
Name: 44, dtype: object

>  <hydroph_interaction:VAL:84>  (45) 
hydroph_interaction:VAL:84    0
hydroph_interaction:VAL:84    0
Name: 44, dtype: object

>  <hbond:VAL:84>  (45) 
hbond:VAL:84    0
hbond:VAL:84    0
Name: 44, dtype: object

>  <halogenbond:VAL:84>  (45) 
halogenbond:VAL:84    0
halogenbond:VAL:84    0
Name: 44, dtype: object

>  <hydroph_interaction:GLU:85>  (45) 
hydroph_interaction:GLU:85    0
hydroph_interaction:GLU:85    0
Name: 44, dtype: object

>  <hbond:GLU:85>  (45) 
hbond:GLU:85    1
hbond:GLU:85    1
Name: 44, dtype: object

>  <saltbridge:GLU:85>  (45) 
saltbridge:GLU:85    0
saltbridge:GLU:85    0
Name: 44, dtype: object

>  <halogenbond:GLU:85>  (45) 
halogenbond:GLU:85    0
halogenbond:GLU:85    0
Name: 44, dtype: object

>  <hbond:ALA:86>  (45) 
hbond:ALA:86    0
hbond:ALA:86    0
Name: 44, dtype: object

>  <halogenbond:ALA:86>  (45) 
halogenbond:ALA:86    0
halogenbond:ALA:86    0
Name: 44, dtype: object

>  <hydroph_interaction:ALA:86>  (45) 
hydroph_interaction:ALA:86    0
hydroph_interaction:ALA:86    0
Name: 44, dtype: object

>  <hbond:SER:87>  (45) 
hbond:SER:87    0
hbond:SER:87    0
Name: 44, dtype: object

>  <halogenbond:SER:87>  (45) 
halogenbond:SER:87    0
halogenbond:SER:87    0
Name: 44, dtype: object

>  <hbond:GLU:88>  (45) 
hbond:GLU:88    0
hbond:GLU:88    0
Name: 44, dtype: object

>  <hydroph_interaction:GLU:88>  (45) 
hydroph_interaction:GLU:88    0
hydroph_interaction:GLU:88    0
Name: 44, dtype: object

>  <halogenbond:GLU:88>  (45) 
halogenbond:GLU:88    0
halogenbond:GLU:88    0
Name: 44, dtype: object

>  <saltbridge:GLU:88>  (45) 
saltbridge:GLU:88    0
saltbridge:GLU:88    0
Name: 44, dtype: object

>  <hydroph_interaction:TYR:89>  (45) 
hydroph_interaction:TYR:89    0
hydroph_interaction:TYR:89    0
Name: 44, dtype: object

>  <pistack:TYR:89>  (45) 
pistack:TYR:89    0
pistack:TYR:89    0
Name: 44, dtype: object

>  <hbond:TYR:89>  (45) 
hbond:TYR:89    0
hbond:TYR:89    0
Name: 44, dtype: object

>  <halogenbond:TYR:89>  (45) 
halogenbond:TYR:89    0
halogenbond:TYR:89    0
Name: 44, dtype: object

>  <hbond:TYR:90>  (45) 
hbond:TYR:90    0
hbond:TYR:90    0
Name: 44, dtype: object

>  <hydroph_interaction:TYR:90>  (45) 
hydroph_interaction:TYR:90    0
hydroph_interaction:TYR:90    0
Name: 44, dtype: object

>  <pistack:TYR:90>  (45) 
pistack:TYR:90    0
pistack:TYR:90    0
Name: 44, dtype: object

>  <halogenbond:TYR:90>  (45) 
halogenbond:TYR:90    0
halogenbond:TYR:90    0
Name: 44, dtype: object

>  <pication:TYR:90>  (45) 
pication:TYR:90    0
pication:TYR:90    0
Name: 44, dtype: object

>  <hydroph_interaction:PRO:91>  (45) 
hydroph_interaction:PRO:91    0
hydroph_interaction:PRO:91    0
Name: 44, dtype: object

>  <halogenbond:PRO:91>  (45) 
halogenbond:PRO:91    0
halogenbond:PRO:91    0
Name: 44, dtype: object

>  <hbond:PRO:91>  (45) 
hbond:PRO:91    0
hbond:PRO:91    0
Name: 44, dtype: object

>  <hydroph_interaction:ALA:92>  (45) 
hydroph_interaction:ALA:92    0
hydroph_interaction:ALA:92    0
Name: 44, dtype: object

>  <hbond:ARG:93>  (45) 
hbond:ARG:93    0
hbond:ARG:93    0
Name: 44, dtype: object

>  <pication:ARG:93>  (45) 
pication:ARG:93    0
pication:ARG:93    0
Name: 44, dtype: object

>  <saltbridge:ARG:93>  (45) 
saltbridge:ARG:93    0
saltbridge:ARG:93    0
Name: 44, dtype: object

>  <hydroph_interaction:ARG:93>  (45) 
hydroph_interaction:ARG:93    0
hydroph_interaction:ARG:93    0
Name: 44, dtype: object

>  <halogenbond:ARG:93>  (45) 
halogenbond:ARG:93    0
halogenbond:ARG:93    0
Name: 44, dtype: object

>  <hydroph_interaction:TYR:94>  (45) 
hydroph_interaction:TYR:94    0
hydroph_interaction:TYR:94    0
Name: 44, dtype: object

>  <hbond:TYR:94>  (45) 
hbond:TYR:94    0
hbond:TYR:94    0
Name: 44, dtype: object

>  <halogenbond:GLN:95>  (45) 
halogenbond:GLN:95    0
halogenbond:GLN:95    0
Name: 44, dtype: object

>  <hbond:GLN:95>  (45) 
hbond:GLN:95    0
hbond:GLN:95    0
Name: 44, dtype: object

>  <hydroph_interaction:GLN:95>  (45) 
hydroph_interaction:GLN:95    0
hydroph_interaction:GLN:95    0
Name: 44, dtype: object

>  <hbond:SER:96>  (45) 
hbond:SER:96    0
hbond:SER:96    0
Name: 44, dtype: object

>  <hydroph_interaction:LEU:98>  (45) 
hydroph_interaction:LEU:98    0
hydroph_interaction:LEU:98    0
Name: 44, dtype: object

>  <hbond:LEU:98>  (45) 
hbond:LEU:98    0
hbond:LEU:98    0
Name: 44, dtype: object

>  <hbond:MET:99>  (45) 
hbond:MET:99    0
hbond:MET:99    0
Name: 44, dtype: object

>  <hydroph_interaction:MET:99>  (45) 
hydroph_interaction:MET:99    0
hydroph_interaction:MET:99    0
Name: 44, dtype: object

>  <halogenbond:MET:99>  (45) 
halogenbond:MET:99    0
halogenbond:MET:99    0
Name: 44, dtype: object

>  <hydroph_interaction:LEU:100>  (45) 
hydroph_interaction:LEU:100    0
hydroph_interaction:LEU:100    0
Name: 44, dtype: object

>  <hbond:LEU:100>  (45) 
hbond:LEU:100    0
hbond:LEU:100    0
Name: 44, dtype: object

>  <hbond:ALA:101>  (45) 
hbond:ALA:101    0
hbond:ALA:101    0
Name: 44, dtype: object

>  <hydroph_interaction:ALA:101>  (45) 
hydroph_interaction:ALA:101    0
hydroph_interaction:ALA:101    0
Name: 44, dtype: object

>  <hydroph_interaction:VAL:102>  (45) 
hydroph_interaction:VAL:102    0
hydroph_interaction:VAL:102    0
Name: 44, dtype: object

>  <hbond:VAL:102>  (45) 
hbond:VAL:102    0
hbond:VAL:102    0
Name: 44, dtype: object

>  <hbond:GLY:103>  (45) 
hbond:GLY:103    0
hbond:GLY:103    0
Name: 44, dtype: object

>  <halogenbond:GLY:103>  (45) 
halogenbond:GLY:103    0
halogenbond:GLY:103    0
Name: 44, dtype: object

>  <hydroph_interaction:HIS:104>  (45) 
hydroph_interaction:HIS:104    0
hydroph_interaction:HIS:104    0
Name: 44, dtype: object

>  <hbond:HIS:104>  (45) 
hbond:HIS:104    0
hbond:HIS:104    0
Name: 44, dtype: object

>  <saltbridge:HIS:104>  (45) 
saltbridge:HIS:104    0
saltbridge:HIS:104    0
Name: 44, dtype: object

>  <pication:HIS:104>  (45) 
pication:HIS:104    0
pication:HIS:104    0
Name: 44, dtype: object

>  <pistack:HIS:104>  (45) 
pistack:HIS:104    0
pistack:HIS:104    0
Name: 44, dtype: object

>  <halogenbond:HIS:104>  (45) 
halogenbond:HIS:104    0
halogenbond:HIS:104    0
Name: 44, dtype: object

>  <hbond:SER:105>  (45) 
hbond:SER:105    0
hbond:SER:105    0
Name: 44, dtype: object

>  <halogenbond:SER:105>  (45) 
halogenbond:SER:105    0
halogenbond:SER:105    0
Name: 44, dtype: object

>  <hbond:GLU:106>  (45) 
hbond:GLU:106    0
hbond:GLU:106    0
Name: 44, dtype: object

>  <hydroph_interaction:GLU:106>  (45) 
hydroph_interaction:GLU:106    0
hydroph_interaction:GLU:106    0
Name: 44, dtype: object

>  <saltbridge:GLU:106>  (45) 
saltbridge:GLU:106    0
saltbridge:GLU:106    0
Name: 44, dtype: object

>  <halogenbond:GLU:106>  (45) 
halogenbond:GLU:106    0
halogenbond:GLU:106    0
Name: 44, dtype: object

>  <hydroph_interaction:PRO:107>  (45) 
hydroph_interaction:PRO:107    2
hydroph_interaction:PRO:107    2
Name: 44, dtype: object

>  <hbond:PRO:107>  (45) 
hbond:PRO:107    0
hbond:PRO:107    0
Name: 44, dtype: object

>  <halogenbond:PRO:107>  (45) 
halogenbond:PRO:107    0
halogenbond:PRO:107    0
Name: 44, dtype: object

>  <hbond:GLY:108>  (45) 
hbond:GLY:108    0
hbond:GLY:108    0
Name: 44, dtype: object

>  <halogenbond:GLY:108>  (45) 
halogenbond:GLY:108    0
halogenbond:GLY:108    0
Name: 44, dtype: object

>  <hbond:ASP:109>  (45) 
hbond:ASP:109    0
hbond:ASP:109    0
Name: 44, dtype: object

>  <hydroph_interaction:ASP:109>  (45) 
hydroph_interaction:ASP:109    0
hydroph_interaction:ASP:109    0
Name: 44, dtype: object

>  <saltbridge:ASP:109>  (45) 
saltbridge:ASP:109    0
saltbridge:ASP:109    0
Name: 44, dtype: object

>  <hbond:CYS:110>  (45) 
hbond:CYS:110    0
hbond:CYS:110    0
Name: 44, dtype: object

>  <halogenbond:CYS:110>  (45) 
halogenbond:CYS:110    0
halogenbond:CYS:110    0
Name: 44, dtype: object

>  <hbond:GLY:111>  (45) 
hbond:GLY:111    0
hbond:GLY:111    0
Name: 44, dtype: object

>  <hbond:GLY:112>  (45) 
hbond:GLY:112    0
hbond:GLY:112    0
Name: 44, dtype: object

>  <hbond:ILE:113>  (45) 
hbond:ILE:113    0
hbond:ILE:113    0
Name: 44, dtype: object

>  <hydroph_interaction:LEU:114>  (45) 
hydroph_interaction:LEU:114    0
hydroph_interaction:LEU:114    0
Name: 44, dtype: object

>  <hbond:LEU:114>  (45) 
hbond:LEU:114    0
hbond:LEU:114    0
Name: 44, dtype: object

>  <hydroph_interaction:ILE:123>  (45) 
hydroph_interaction:ILE:123    0
hydroph_interaction:ILE:123    0
Name: 44, dtype: object

>  <hbond:ILE:123>  (45) 
hbond:ILE:123    0
hbond:ILE:123    0
Name: 44, dtype: object

>  <hydroph_interaction:VAL:124>  (45) 
hydroph_interaction:VAL:124    0
hydroph_interaction:VAL:124    0
Name: 44, dtype: object

>  <hbond:VAL:124>  (45) 
hbond:VAL:124    0
hbond:VAL:124    0
Name: 44, dtype: object

>  <halogenbond:VAL:124>  (45) 
halogenbond:VAL:124    0
halogenbond:VAL:124    0
Name: 44, dtype: object

>  <hbond:SER:125>  (45) 
hbond:SER:125    0
hbond:SER:125    0
Name: 44, dtype: object

>  <halogenbond:SER:125>  (45) 
halogenbond:SER:125    0
halogenbond:SER:125    0
Name: 44, dtype: object

>  <hydroph_interaction:THR:126>  (45) 
hydroph_interaction:THR:126    0
hydroph_interaction:THR:126    0
Name: 44, dtype: object

>  <hbond:THR:126>  (45) 
hbond:THR:126    0
hbond:THR:126    0
Name: 44, dtype: object

>  <halogenbond:THR:126>  (45) 
halogenbond:THR:126    0
halogenbond:THR:126    0
Name: 44, dtype: object

>  <hbond:GLY:127>  (45) 
hbond:GLY:127    0
hbond:GLY:127    0
Name: 44, dtype: object

>  <halogenbond:GLY:127>  (45) 
halogenbond:GLY:127    0
halogenbond:GLY:127    0
Name: 44, dtype: object

>  <hydroph_interaction:GLY:127>  (45) 
hydroph_interaction:GLY:127    0
hydroph_interaction:GLY:127    0
Name: 44, dtype: object

>  <hbond:GLY:128>  (45) 
hbond:GLY:128    0
hbond:GLY:128    0
Name: 44, dtype: object

>  <halogenbond:GLY:128>  (45) 
halogenbond:GLY:128    0
halogenbond:GLY:128    0
Name: 44, dtype: object

>  <hydroph_interaction:GLY:128>  (45) 
hydroph_interaction:GLY:128    0
hydroph_interaction:GLY:128    0
Name: 44, dtype: object

>  <hbond:ASN:129>  (45) 
hbond:ASN:129    0
hbond:ASN:129    0
Name: 44, dtype: object

>  <hydroph_interaction:ASN:129>  (45) 
hydroph_interaction:ASN:129    0
hydroph_interaction:ASN:129    0
Name: 44, dtype: object

>  <halogenbond:ASN:129>  (45) 
halogenbond:ASN:129    0
halogenbond:ASN:129    0
Name: 44, dtype: object

>  <hbond:GLY:130>  (45) 
hbond:GLY:130    0
hbond:GLY:130    0
Name: 44, dtype: object

>  <hydroph_interaction:LEU:131>  (45) 
hydroph_interaction:LEU:131    0
hydroph_interaction:LEU:131    0
Name: 44, dtype: object

>  <hbond:LEU:131>  (45) 
hbond:LEU:131    0
hbond:LEU:131    0
Name: 44, dtype: object

>  <halogenbond:LEU:131>  (45) 
halogenbond:LEU:131    0
halogenbond:LEU:131    0
Name: 44, dtype: object

>  <hydroph_interaction:VAL:132>  (45) 
hydroph_interaction:VAL:132    0
hydroph_interaction:VAL:132    0
Name: 44, dtype: object

>  <hbond:VAL:132>  (45) 
hbond:VAL:132    0
hbond:VAL:132    0
Name: 44, dtype: object

>  <hbond:GLY:133>  (45) 
hbond:GLY:133    0
hbond:GLY:133    0
Name: 44, dtype: object

>  <halogenbond:GLY:133>  (45) 
halogenbond:GLY:133    0
halogenbond:GLY:133    0
Name: 44, dtype: object

>  <hydroph_interaction:PHE:134>  (45) 
hydroph_interaction:PHE:134    0
hydroph_interaction:PHE:134    0
Name: 44, dtype: object

>  <hbond:PHE:134>  (45) 
hbond:PHE:134    0
hbond:PHE:134    0
Name: 44, dtype: object

>  <pistack:PHE:134>  (45) 
pistack:PHE:134    0
pistack:PHE:134    0
Name: 44, dtype: object

>  <pication:PHE:134>  (45) 
pication:PHE:134    0
pication:PHE:134    0
Name: 44, dtype: object

>  <hydroph_interaction:ALA:135>  (45) 
hydroph_interaction:ALA:135    0
hydroph_interaction:ALA:135    0
Name: 44, dtype: object

>  <hbond:ALA:135>  (45) 
hbond:ALA:135    0
hbond:ALA:135    0
Name: 44, dtype: object

$$$$
PV_002423343089
     RDKit          3D

 24 25  0  0  0  0  0  0  0  0999 V2000
   12.3000   14.6800   22.0060 C   0  0  0  0  0  0  0  0  0  0  0  0
   11.3300   14.0640   22.9660 C   0  0  0  0  0  0  0  0  0  0  0  0
   11.2760   14.4380   24.1360 O   0  0  0  0  0  0  0  0  0  0  0  0
   10.5630   13.0800   22.3930 N   0  0  0  0  0  0  0  0  0  0  0  0
    9.8440   12.1000   23.0910 C   0  0  0  0  0  0  0  0  0  0  0  0
   10.0560   10.7450   22.9310 C   0  0  0  0  0  0  0  0  0  0  0  0
    9.3390    9.8240   23.6300 C   0  0  0  0  0  0  0  0  0  0  0  0
    8.3640   10.2190   24.5310 C   0  0  0  0  0  0  0  0  0  0  0  0
    8.1270   11.5630   24.7090 C   0  0  0  0  0  0  0  0  0  0  0  0
    8.8550   12.5050   24.0030 C   0  0  0  0  0  0  0  0  0  0  0  0
    8.4960   13.7990   24.2970 O   0  0  0  0  0  0  0  0  0  0  0  0
    7.2260   13.6350   24.9840 C   0  0  0  0  0  0  0  0  0  0  0  0
    7.1530   12.2350   25.5880 C   0  0  0  0  0  0  0  0  0  0  0  0
   13.2460   14.9670   22.4770 H   0  0  0  0  0  0  0  0  0  0  0  0
   12.4840   13.9760   21.1860 H   0  0  0  0  0  0  0  0  0  0  0  0
   11.8570   15.5850   21.5760 H   0  0  0  0  0  0  0  0  0  0  0  0
   10.8190   12.7590   21.4570 H   0  0  0  0  0  0  0  0  0  0  0  0
   10.8280   10.4680   22.2130 H   0  0  0  0  0  0  0  0  0  0  0  0
    9.5490    8.7910   23.4680 H   0  0  0  0  0  0  0  0  0  0  0  0
    7.8000    9.4860   25.0800 H   0  0  0  0  0  0  0  0  0  0  0  0
    6.4080   13.8110   24.2750 H   0  0  0  0  0  0  0  0  0  0  0  0
    7.1690   14.3990   25.7550 H   0  0  0  0  0  0  0  0  0  0  0  0
    6.1570   11.7990   25.4500 H   0  0  0  0  0  0  0  0  0  0  0  0
    7.4160   12.2330   26.6460 H   0  0  0  0  0  0  0  0  0  0  0  0
  1  2  1  0
  2  3  2  0
  2  4  1  0
  4  5  1  0
  5  6  2  0
  6  7  1  0
  7  8  2  0
  8  9  1  0
  9 10  2  0
 10 11  1  0
 11 12  1  0
 12 13  1  0
 10  5  1  0
 13  9  1  0
  1 14  1  0
  1 15  1  0
  1 16  1  0
  4 17  1  0
  6 18  1  0
  7 19  1  0
  8 20  1  0
 12 21  1  0
 12 22  1  0
 13 23  1  0
 13 24  1  0
A    1
 C1 
A    2
 C2 
A    3
 O1 
A    4
 N1 
A    5
 C3 
A    6
 C4 
A    7
 C5 
A    8
 C6 
A    9
 C7 
A   10
 C8 
A   11
 O2 
A   12
 C9 
A   13
 C10
A   14
 H1 
A   15
 H2 
A   16
 H3 
A   17
 H4 
A   18
 H5 
A   19
 H6 
A   20
 H7 
A   21
 H8 
A   22
 H9 
A   23
 H10
A   24
 H11
M  END
>  <ref_pdb>  (46) 
x0310_0A

>  <ref_mols>  (46) 
x0554_0A,x0739_0A

>  <original SMILES>  (46) 
CC(=O)Nc1cccc2c1OCC2

>  <rationale>  (46) 
info hbond:S125; hydroph_interaction:P107; 

>  <intxn_cluster>  (46) 
208

>  <intxn_cluster_rank>  (46) 
210

>  <N_interactions>  (46) 
2

>  <∆∆G>  (46) 
-8.511333

>  <$/mg>  (46) 
163.0

>  <comRMSD>  (46) 
0.694945

>  <N_rotatable_bonds>  (46) 
2

>  <hbond:SER:7>  (46) 
hbond:SER:7    0
hbond:SER:7    0
Name: 45, dtype: object

>  <halogenbond:SER:7>  (46) 
halogenbond:SER:7    0
halogenbond:SER:7    0
Name: 45, dtype: object

>  <hbond:GLY:8>  (46) 
hbond:GLY:8    0
hbond:GLY:8    0
Name: 45, dtype: object

>  <hydroph_interaction:ASN:19>  (46) 
hydroph_interaction:ASN:19    0
hydroph_interaction:ASN:19    0
Name: 45, dtype: object

>  <hbond:ASN:19>  (46) 
hbond:ASN:19    0
hbond:ASN:19    0
Name: 45, dtype: object

>  <halogenbond:ASN:19>  (46) 
halogenbond:ASN:19    0
halogenbond:ASN:19    0
Name: 45, dtype: object

>  <hbond:ARG:20>  (46) 
hbond:ARG:20    0
hbond:ARG:20    0
Name: 45, dtype: object

>  <hydroph_interaction:ARG:20>  (46) 
hydroph_interaction:ARG:20    0
hydroph_interaction:ARG:20    0
Name: 45, dtype: object

>  <saltbridge:ARG:20>  (46) 
saltbridge:ARG:20    0
saltbridge:ARG:20    0
Name: 45, dtype: object

>  <halogenbond:ARG:20>  (46) 
halogenbond:ARG:20    0
halogenbond:ARG:20    0
Name: 45, dtype: object

>  <pication:ARG:20>  (46) 
pication:ARG:20    0
pication:ARG:20    0
Name: 45, dtype: object

>  <hbond:HIS:21>  (46) 
hbond:HIS:21    0
hbond:HIS:21    0
Name: 45, dtype: object

>  <hydroph_interaction:HIS:21>  (46) 
hydroph_interaction:HIS:21    0
hydroph_interaction:HIS:21    0
Name: 45, dtype: object

>  <saltbridge:HIS:21>  (46) 
saltbridge:HIS:21    0
saltbridge:HIS:21    0
Name: 45, dtype: object

>  <pistack:HIS:21>  (46) 
pistack:HIS:21    0
pistack:HIS:21    0
Name: 45, dtype: object

>  <pication:HIS:21>  (46) 
pication:HIS:21    0
pication:HIS:21    0
Name: 45, dtype: object

>  <halogenbond:HIS:21>  (46) 
halogenbond:HIS:21    0
halogenbond:HIS:21    0
Name: 45, dtype: object

>  <hydroph_interaction:LEU:22>  (46) 
hydroph_interaction:LEU:22    0
hydroph_interaction:LEU:22    0
Name: 45, dtype: object

>  <hbond:LEU:22>  (46) 
hbond:LEU:22    0
hbond:LEU:22    0
Name: 45, dtype: object

>  <hydroph_interaction:TRP:28>  (46) 
hydroph_interaction:TRP:28    0
hydroph_interaction:TRP:28    0
Name: 45, dtype: object

>  <hbond:SER:36>  (46) 
hbond:SER:36    0
hbond:SER:36    0
Name: 45, dtype: object

>  <halogenbond:SER:36>  (46) 
halogenbond:SER:36    0
halogenbond:SER:36    0
Name: 45, dtype: object

>  <hbond:ARG:38>  (46) 
hbond:ARG:38    0
hbond:ARG:38    0
Name: 45, dtype: object

>  <halogenbond:ARG:38>  (46) 
halogenbond:ARG:38    0
halogenbond:ARG:38    0
Name: 45, dtype: object

>  <hbond:ASP:39>  (46) 
hbond:ASP:39    0
hbond:ASP:39    0
Name: 45, dtype: object

>  <saltbridge:ASP:39>  (46) 
saltbridge:ASP:39    0
saltbridge:ASP:39    0
Name: 45, dtype: object

>  <hydroph_interaction:ASP:39>  (46) 
hydroph_interaction:ASP:39    0
hydroph_interaction:ASP:39    0
Name: 45, dtype: object

>  <halogenbond:ASP:39>  (46) 
halogenbond:ASP:39    0
halogenbond:ASP:39    0
Name: 45, dtype: object

>  <hydroph_interaction:LEU:40>  (46) 
hydroph_interaction:LEU:40    0
hydroph_interaction:LEU:40    0
Name: 45, dtype: object

>  <hydroph_interaction:TYR:63>  (46) 
hydroph_interaction:TYR:63    0
hydroph_interaction:TYR:63    0
Name: 45, dtype: object

>  <pistack:TYR:63>  (46) 
pistack:TYR:63    0
pistack:TYR:63    0
Name: 45, dtype: object

>  <hbond:TYR:63>  (46) 
hbond:TYR:63    0
hbond:TYR:63    0
Name: 45, dtype: object

>  <hbond:TYR:64>  (46) 
hbond:TYR:64    0
hbond:TYR:64    0
Name: 45, dtype: object

>  <halogenbond:TYR:64>  (46) 
halogenbond:TYR:64    0
halogenbond:TYR:64    0
Name: 45, dtype: object

>  <hydroph_interaction:TYR:64>  (46) 
hydroph_interaction:TYR:64    0
hydroph_interaction:TYR:64    0
Name: 45, dtype: object

>  <hbond:CYS:65>  (46) 
hbond:CYS:65    0
hbond:CYS:65    0
Name: 45, dtype: object

>  <halogenbond:CYS:65>  (46) 
halogenbond:CYS:65    0
halogenbond:CYS:65    0
Name: 45, dtype: object

>  <hbond:SER:66>  (46) 
hbond:SER:66    0
hbond:SER:66    0
Name: 45, dtype: object

>  <hbond:SER:67>  (46) 
hbond:SER:67    0
hbond:SER:67    0
Name: 45, dtype: object

>  <halogenbond:SER:67>  (46) 
halogenbond:SER:67    0
halogenbond:SER:67    0
Name: 45, dtype: object

>  <hydroph_interaction:ARG:68>  (46) 
hydroph_interaction:ARG:68    0
hydroph_interaction:ARG:68    0
Name: 45, dtype: object

>  <hbond:ARG:68>  (46) 
hbond:ARG:68    0
hbond:ARG:68    0
Name: 45, dtype: object

>  <saltbridge:ARG:68>  (46) 
saltbridge:ARG:68    0
saltbridge:ARG:68    0
Name: 45, dtype: object

>  <pication:ARG:68>  (46) 
pication:ARG:68    0
pication:ARG:68    0
Name: 45, dtype: object

>  <hydroph_interaction:TYR:72>  (46) 
hydroph_interaction:TYR:72    0
hydroph_interaction:TYR:72    0
Name: 45, dtype: object

>  <hydroph_interaction:VAL:74>  (46) 
hydroph_interaction:VAL:74    0
hydroph_interaction:VAL:74    0
Name: 45, dtype: object

>  <hydroph_interaction:PHE:76>  (46) 
hydroph_interaction:PHE:76    0
hydroph_interaction:PHE:76    0
Name: 45, dtype: object

>  <hbond:SER:77>  (46) 
hbond:SER:77    0
hbond:SER:77    0
Name: 45, dtype: object

>  <hbond:SER:80>  (46) 
hbond:SER:80    0
hbond:SER:80    0
Name: 45, dtype: object

>  <hbond:LEU:81>  (46) 
hbond:LEU:81    0
hbond:LEU:81    0
Name: 45, dtype: object

>  <halogenbond:LEU:81>  (46) 
halogenbond:LEU:81    0
halogenbond:LEU:81    0
Name: 45, dtype: object

>  <hydroph_interaction:LEU:81>  (46) 
hydroph_interaction:LEU:81    0
hydroph_interaction:LEU:81    0
Name: 45, dtype: object

>  <hydroph_interaction:ILE:82>  (46) 
hydroph_interaction:ILE:82    0
hydroph_interaction:ILE:82    0
Name: 45, dtype: object

>  <hbond:ILE:82>  (46) 
hbond:ILE:82    0
hbond:ILE:82    0
Name: 45, dtype: object

>  <hydroph_interaction:PHE:83>  (46) 
hydroph_interaction:PHE:83    0
hydroph_interaction:PHE:83    0
Name: 45, dtype: object

>  <hbond:PHE:83>  (46) 
hbond:PHE:83    0
hbond:PHE:83    0
Name: 45, dtype: object

>  <halogenbond:PHE:83>  (46) 
halogenbond:PHE:83    0
halogenbond:PHE:83    0
Name: 45, dtype: object

>  <pistack:PHE:83>  (46) 
pistack:PHE:83    0
pistack:PHE:83    0
Name: 45, dtype: object

>  <hydroph_interaction:VAL:84>  (46) 
hydroph_interaction:VAL:84    0
hydroph_interaction:VAL:84    0
Name: 45, dtype: object

>  <hbond:VAL:84>  (46) 
hbond:VAL:84    0
hbond:VAL:84    0
Name: 45, dtype: object

>  <halogenbond:VAL:84>  (46) 
halogenbond:VAL:84    0
halogenbond:VAL:84    0
Name: 45, dtype: object

>  <hydroph_interaction:GLU:85>  (46) 
hydroph_interaction:GLU:85    0
hydroph_interaction:GLU:85    0
Name: 45, dtype: object

>  <hbond:GLU:85>  (46) 
hbond:GLU:85    0
hbond:GLU:85    0
Name: 45, dtype: object

>  <saltbridge:GLU:85>  (46) 
saltbridge:GLU:85    0
saltbridge:GLU:85    0
Name: 45, dtype: object

>  <halogenbond:GLU:85>  (46) 
halogenbond:GLU:85    0
halogenbond:GLU:85    0
Name: 45, dtype: object

>  <hbond:ALA:86>  (46) 
hbond:ALA:86    0
hbond:ALA:86    0
Name: 45, dtype: object

>  <halogenbond:ALA:86>  (46) 
halogenbond:ALA:86    0
halogenbond:ALA:86    0
Name: 45, dtype: object

>  <hydroph_interaction:ALA:86>  (46) 
hydroph_interaction:ALA:86    0
hydroph_interaction:ALA:86    0
Name: 45, dtype: object

>  <hbond:SER:87>  (46) 
hbond:SER:87    0
hbond:SER:87    0
Name: 45, dtype: object

>  <halogenbond:SER:87>  (46) 
halogenbond:SER:87    0
halogenbond:SER:87    0
Name: 45, dtype: object

>  <hbond:GLU:88>  (46) 
hbond:GLU:88    0
hbond:GLU:88    0
Name: 45, dtype: object

>  <hydroph_interaction:GLU:88>  (46) 
hydroph_interaction:GLU:88    0
hydroph_interaction:GLU:88    0
Name: 45, dtype: object

>  <halogenbond:GLU:88>  (46) 
halogenbond:GLU:88    0
halogenbond:GLU:88    0
Name: 45, dtype: object

>  <saltbridge:GLU:88>  (46) 
saltbridge:GLU:88    0
saltbridge:GLU:88    0
Name: 45, dtype: object

>  <hydroph_interaction:TYR:89>  (46) 
hydroph_interaction:TYR:89    0
hydroph_interaction:TYR:89    0
Name: 45, dtype: object

>  <pistack:TYR:89>  (46) 
pistack:TYR:89    0
pistack:TYR:89    0
Name: 45, dtype: object

>  <hbond:TYR:89>  (46) 
hbond:TYR:89    0
hbond:TYR:89    0
Name: 45, dtype: object

>  <halogenbond:TYR:89>  (46) 
halogenbond:TYR:89    0
halogenbond:TYR:89    0
Name: 45, dtype: object

>  <hbond:TYR:90>  (46) 
hbond:TYR:90    0
hbond:TYR:90    0
Name: 45, dtype: object

>  <hydroph_interaction:TYR:90>  (46) 
hydroph_interaction:TYR:90    0
hydroph_interaction:TYR:90    0
Name: 45, dtype: object

>  <pistack:TYR:90>  (46) 
pistack:TYR:90    0
pistack:TYR:90    0
Name: 45, dtype: object

>  <halogenbond:TYR:90>  (46) 
halogenbond:TYR:90    0
halogenbond:TYR:90    0
Name: 45, dtype: object

>  <pication:TYR:90>  (46) 
pication:TYR:90    0
pication:TYR:90    0
Name: 45, dtype: object

>  <hydroph_interaction:PRO:91>  (46) 
hydroph_interaction:PRO:91    0
hydroph_interaction:PRO:91    0
Name: 45, dtype: object

>  <halogenbond:PRO:91>  (46) 
halogenbond:PRO:91    0
halogenbond:PRO:91    0
Name: 45, dtype: object

>  <hbond:PRO:91>  (46) 
hbond:PRO:91    0
hbond:PRO:91    0
Name: 45, dtype: object

>  <hydroph_interaction:ALA:92>  (46) 
hydroph_interaction:ALA:92    0
hydroph_interaction:ALA:92    0
Name: 45, dtype: object

>  <hbond:ARG:93>  (46) 
hbond:ARG:93    0
hbond:ARG:93    0
Name: 45, dtype: object

>  <pication:ARG:93>  (46) 
pication:ARG:93    0
pication:ARG:93    0
Name: 45, dtype: object

>  <saltbridge:ARG:93>  (46) 
saltbridge:ARG:93    0
saltbridge:ARG:93    0
Name: 45, dtype: object

>  <hydroph_interaction:ARG:93>  (46) 
hydroph_interaction:ARG:93    0
hydroph_interaction:ARG:93    0
Name: 45, dtype: object

>  <halogenbond:ARG:93>  (46) 
halogenbond:ARG:93    0
halogenbond:ARG:93    0
Name: 45, dtype: object

>  <hydroph_interaction:TYR:94>  (46) 
hydroph_interaction:TYR:94    0
hydroph_interaction:TYR:94    0
Name: 45, dtype: object

>  <hbond:TYR:94>  (46) 
hbond:TYR:94    0
hbond:TYR:94    0
Name: 45, dtype: object

>  <halogenbond:GLN:95>  (46) 
halogenbond:GLN:95    0
halogenbond:GLN:95    0
Name: 45, dtype: object

>  <hbond:GLN:95>  (46) 
hbond:GLN:95    0
hbond:GLN:95    0
Name: 45, dtype: object

>  <hydroph_interaction:GLN:95>  (46) 
hydroph_interaction:GLN:95    0
hydroph_interaction:GLN:95    0
Name: 45, dtype: object

>  <hbond:SER:96>  (46) 
hbond:SER:96    0
hbond:SER:96    0
Name: 45, dtype: object

>  <hydroph_interaction:LEU:98>  (46) 
hydroph_interaction:LEU:98    0
hydroph_interaction:LEU:98    0
Name: 45, dtype: object

>  <hbond:LEU:98>  (46) 
hbond:LEU:98    0
hbond:LEU:98    0
Name: 45, dtype: object

>  <hbond:MET:99>  (46) 
hbond:MET:99    0
hbond:MET:99    0
Name: 45, dtype: object

>  <hydroph_interaction:MET:99>  (46) 
hydroph_interaction:MET:99    0
hydroph_interaction:MET:99    0
Name: 45, dtype: object

>  <halogenbond:MET:99>  (46) 
halogenbond:MET:99    0
halogenbond:MET:99    0
Name: 45, dtype: object

>  <hydroph_interaction:LEU:100>  (46) 
hydroph_interaction:LEU:100    0
hydroph_interaction:LEU:100    0
Name: 45, dtype: object

>  <hbond:LEU:100>  (46) 
hbond:LEU:100    0
hbond:LEU:100    0
Name: 45, dtype: object

>  <hbond:ALA:101>  (46) 
hbond:ALA:101    0
hbond:ALA:101    0
Name: 45, dtype: object

>  <hydroph_interaction:ALA:101>  (46) 
hydroph_interaction:ALA:101    0
hydroph_interaction:ALA:101    0
Name: 45, dtype: object

>  <hydroph_interaction:VAL:102>  (46) 
hydroph_interaction:VAL:102    0
hydroph_interaction:VAL:102    0
Name: 45, dtype: object

>  <hbond:VAL:102>  (46) 
hbond:VAL:102    0
hbond:VAL:102    0
Name: 45, dtype: object

>  <hbond:GLY:103>  (46) 
hbond:GLY:103    0
hbond:GLY:103    0
Name: 45, dtype: object

>  <halogenbond:GLY:103>  (46) 
halogenbond:GLY:103    0
halogenbond:GLY:103    0
Name: 45, dtype: object

>  <hydroph_interaction:HIS:104>  (46) 
hydroph_interaction:HIS:104    0
hydroph_interaction:HIS:104    0
Name: 45, dtype: object

>  <hbond:HIS:104>  (46) 
hbond:HIS:104    0
hbond:HIS:104    0
Name: 45, dtype: object

>  <saltbridge:HIS:104>  (46) 
saltbridge:HIS:104    0
saltbridge:HIS:104    0
Name: 45, dtype: object

>  <pication:HIS:104>  (46) 
pication:HIS:104    0
pication:HIS:104    0
Name: 45, dtype: object

>  <pistack:HIS:104>  (46) 
pistack:HIS:104    0
pistack:HIS:104    0
Name: 45, dtype: object

>  <halogenbond:HIS:104>  (46) 
halogenbond:HIS:104    0
halogenbond:HIS:104    0
Name: 45, dtype: object

>  <hbond:SER:105>  (46) 
hbond:SER:105    0
hbond:SER:105    0
Name: 45, dtype: object

>  <halogenbond:SER:105>  (46) 
halogenbond:SER:105    0
halogenbond:SER:105    0
Name: 45, dtype: object

>  <hbond:GLU:106>  (46) 
hbond:GLU:106    0
hbond:GLU:106    0
Name: 45, dtype: object

>  <hydroph_interaction:GLU:106>  (46) 
hydroph_interaction:GLU:106    0
hydroph_interaction:GLU:106    0
Name: 45, dtype: object

>  <saltbridge:GLU:106>  (46) 
saltbridge:GLU:106    0
saltbridge:GLU:106    0
Name: 45, dtype: object

>  <halogenbond:GLU:106>  (46) 
halogenbond:GLU:106    0
halogenbond:GLU:106    0
Name: 45, dtype: object

>  <hydroph_interaction:PRO:107>  (46) 
hydroph_interaction:PRO:107    1
hydroph_interaction:PRO:107    1
Name: 45, dtype: object

>  <hbond:PRO:107>  (46) 
hbond:PRO:107    0
hbond:PRO:107    0
Name: 45, dtype: object

>  <halogenbond:PRO:107>  (46) 
halogenbond:PRO:107    0
halogenbond:PRO:107    0
Name: 45, dtype: object

>  <hbond:GLY:108>  (46) 
hbond:GLY:108    0
hbond:GLY:108    0
Name: 45, dtype: object

>  <halogenbond:GLY:108>  (46) 
halogenbond:GLY:108    0
halogenbond:GLY:108    0
Name: 45, dtype: object

>  <hbond:ASP:109>  (46) 
hbond:ASP:109    0
hbond:ASP:109    0
Name: 45, dtype: object

>  <hydroph_interaction:ASP:109>  (46) 
hydroph_interaction:ASP:109    0
hydroph_interaction:ASP:109    0
Name: 45, dtype: object

>  <saltbridge:ASP:109>  (46) 
saltbridge:ASP:109    0
saltbridge:ASP:109    0
Name: 45, dtype: object

>  <hbond:CYS:110>  (46) 
hbond:CYS:110    0
hbond:CYS:110    0
Name: 45, dtype: object

>  <halogenbond:CYS:110>  (46) 
halogenbond:CYS:110    0
halogenbond:CYS:110    0
Name: 45, dtype: object

>  <hbond:GLY:111>  (46) 
hbond:GLY:111    0
hbond:GLY:111    0
Name: 45, dtype: object

>  <hbond:GLY:112>  (46) 
hbond:GLY:112    0
hbond:GLY:112    0
Name: 45, dtype: object

>  <hbond:ILE:113>  (46) 
hbond:ILE:113    0
hbond:ILE:113    0
Name: 45, dtype: object

>  <hydroph_interaction:LEU:114>  (46) 
hydroph_interaction:LEU:114    0
hydroph_interaction:LEU:114    0
Name: 45, dtype: object

>  <hbond:LEU:114>  (46) 
hbond:LEU:114    0
hbond:LEU:114    0
Name: 45, dtype: object

>  <hydroph_interaction:ILE:123>  (46) 
hydroph_interaction:ILE:123    0
hydroph_interaction:ILE:123    0
Name: 45, dtype: object

>  <hbond:ILE:123>  (46) 
hbond:ILE:123    0
hbond:ILE:123    0
Name: 45, dtype: object

>  <hydroph_interaction:VAL:124>  (46) 
hydroph_interaction:VAL:124    0
hydroph_interaction:VAL:124    0
Name: 45, dtype: object

>  <hbond:VAL:124>  (46) 
hbond:VAL:124    0
hbond:VAL:124    0
Name: 45, dtype: object

>  <halogenbond:VAL:124>  (46) 
halogenbond:VAL:124    0
halogenbond:VAL:124    0
Name: 45, dtype: object

>  <hbond:SER:125>  (46) 
hbond:SER:125    1
hbond:SER:125    1
Name: 45, dtype: object

>  <halogenbond:SER:125>  (46) 
halogenbond:SER:125    0
halogenbond:SER:125    0
Name: 45, dtype: object

>  <hydroph_interaction:THR:126>  (46) 
hydroph_interaction:THR:126    0
hydroph_interaction:THR:126    0
Name: 45, dtype: object

>  <hbond:THR:126>  (46) 
hbond:THR:126    0
hbond:THR:126    0
Name: 45, dtype: object

>  <halogenbond:THR:126>  (46) 
halogenbond:THR:126    0
halogenbond:THR:126    0
Name: 45, dtype: object

>  <hbond:GLY:127>  (46) 
hbond:GLY:127    0
hbond:GLY:127    0
Name: 45, dtype: object

>  <halogenbond:GLY:127>  (46) 
halogenbond:GLY:127    0
halogenbond:GLY:127    0
Name: 45, dtype: object

>  <hydroph_interaction:GLY:127>  (46) 
hydroph_interaction:GLY:127    0
hydroph_interaction:GLY:127    0
Name: 45, dtype: object

>  <hbond:GLY:128>  (46) 
hbond:GLY:128    0
hbond:GLY:128    0
Name: 45, dtype: object

>  <halogenbond:GLY:128>  (46) 
halogenbond:GLY:128    0
halogenbond:GLY:128    0
Name: 45, dtype: object

>  <hydroph_interaction:GLY:128>  (46) 
hydroph_interaction:GLY:128    0
hydroph_interaction:GLY:128    0
Name: 45, dtype: object

>  <hbond:ASN:129>  (46) 
hbond:ASN:129    0
hbond:ASN:129    0
Name: 45, dtype: object

>  <hydroph_interaction:ASN:129>  (46) 
hydroph_interaction:ASN:129    0
hydroph_interaction:ASN:129    0
Name: 45, dtype: object

>  <halogenbond:ASN:129>  (46) 
halogenbond:ASN:129    0
halogenbond:ASN:129    0
Name: 45, dtype: object

>  <hbond:GLY:130>  (46) 
hbond:GLY:130    0
hbond:GLY:130    0
Name: 45, dtype: object

>  <hydroph_interaction:LEU:131>  (46) 
hydroph_interaction:LEU:131    0
hydroph_interaction:LEU:131    0
Name: 45, dtype: object

>  <hbond:LEU:131>  (46) 
hbond:LEU:131    0
hbond:LEU:131    0
Name: 45, dtype: object

>  <halogenbond:LEU:131>  (46) 
halogenbond:LEU:131    0
halogenbond:LEU:131    0
Name: 45, dtype: object

>  <hydroph_interaction:VAL:132>  (46) 
hydroph_interaction:VAL:132    0
hydroph_interaction:VAL:132    0
Name: 45, dtype: object

>  <hbond:VAL:132>  (46) 
hbond:VAL:132    0
hbond:VAL:132    0
Name: 45, dtype: object

>  <hbond:GLY:133>  (46) 
hbond:GLY:133    0
hbond:GLY:133    0
Name: 45, dtype: object

>  <halogenbond:GLY:133>  (46) 
halogenbond:GLY:133    0
halogenbond:GLY:133    0
Name: 45, dtype: object

>  <hydroph_interaction:PHE:134>  (46) 
hydroph_interaction:PHE:134    0
hydroph_interaction:PHE:134    0
Name: 45, dtype: object

>  <hbond:PHE:134>  (46) 
hbond:PHE:134    0
hbond:PHE:134    0
Name: 45, dtype: object

>  <pistack:PHE:134>  (46) 
pistack:PHE:134    0
pistack:PHE:134    0
Name: 45, dtype: object

>  <pication:PHE:134>  (46) 
pication:PHE:134    0
pication:PHE:134    0
Name: 45, dtype: object

>  <hydroph_interaction:ALA:135>  (46) 
hydroph_interaction:ALA:135    0
hydroph_interaction:ALA:135    0
Name: 45, dtype: object

>  <hbond:ALA:135>  (46) 
hbond:ALA:135    0
hbond:ALA:135    0
Name: 45, dtype: object

$$$$
Z2447320058
     RDKit          3D

 31 32  0  0  0  0  0  0  0  0999 V2000
   10.1850    9.1860   22.6160 C   0  0  0  0  0  0  0  0  0  0  0  0
    9.5320   10.2830   23.4040 C   0  0  0  0  0  0  0  0  0  0  0  0
    9.9470   11.6200   23.2270 C   0  0  0  0  0  0  0  0  0  0  0  0
    9.3680   12.6840   23.9500 C   0  0  0  0  0  0  0  0  0  0  0  0
    8.3430   12.4530   24.8760 C   0  0  0  0  0  0  0  0  0  0  0  0
    7.7170   13.4260   25.6410 N   0  0  0  0  0  0  0  0  0  0  0  0
    7.4970   14.7450   25.2120 C   0  0  0  0  0  0  0  0  0  0  0  0
    7.5570   15.0780   24.0440 O   0  0  0  0  0  0  0  0  0  0  0  0
    7.1880   15.6770   26.2280 C   0  0  1  0  0  0  0  0  0  0  0  0
    6.1900   15.3430   27.3350 C   0  0  0  0  0  0  0  0  0  0  0  0
    6.7250   16.0690   28.5510 C   0  0  0  0  0  0  0  0  0  0  0  0
    8.0520   16.7050   28.1390 C   0  0  0  0  0  0  0  0  0  0  0  0
    8.4210   16.0360   27.0060 N   0  0  0  0  0  0  0  0  0  0  0  0
    7.8920   11.1570   25.0790 C   0  0  0  0  0  0  0  0  0  0  0  0
    6.6180   10.8220   26.2080 Cl  0  0  0  0  0  0  0  0  0  0  0  0
    8.5290   10.0390   24.3020 C   0  0  0  0  0  0  0  0  0  0  0  0
   10.9050    8.6200   23.2160 H   0  0  0  0  0  0  0  0  0  0  0  0
   10.6670    9.5960   21.7270 H   0  0  0  0  0  0  0  0  0  0  0  0
    9.4400    8.4610   22.2740 H   0  0  0  0  0  0  0  0  0  0  0  0
   10.7400   11.8490   22.5130 H   0  0  0  0  0  0  0  0  0  0  0  0
    9.7240   13.6990   23.7850 H   0  0  0  0  0  0  0  0  0  0  0  0
    7.0640   13.0560   26.3290 H   0  0  0  0  0  0  0  0  0  0  0  0
    6.8230   16.5770   25.7150 H   0  0  0  0  0  0  0  0  0  0  0  0
    6.0340   14.2760   27.5190 H   0  0  0  0  0  0  0  0  0  0  0  0
    5.2290   15.7770   27.0350 H   0  0  0  0  0  0  0  0  0  0  0  0
    6.8980   15.3640   29.3740 H   0  0  0  0  0  0  0  0  0  0  0  0
    6.0230   16.8310   28.9160 H   0  0  0  0  0  0  0  0  0  0  0  0
    8.7880   16.5970   28.9460 H   0  0  0  0  0  0  0  0  0  0  0  0
    7.9210   17.7810   27.9530 H   0  0  0  0  0  0  0  0  0  0  0  0
    8.9050   15.1670   27.2660 H   0  0  0  0  0  0  0  0  0  0  0  0
    8.1340    9.0530   24.5080 H   0  0  0  0  0  0  0  0  0  0  0  0
  1  2  1  0
  2  3  2  0
  3  4  1  0
  4  5  2  0
  5  6  1  0
  6  7  1  0
  7  8  2  0
  7  9  1  0
  9 10  1  0
 10 11  1  0
 11 12  1  0
 12 13  1  0
  5 14  1  0
 14 15  1  0
 14 16  2  0
 16  2  1  0
 13  9  1  0
  1 17  1  0
  1 18  1  0
  1 19  1  0
  3 20  1  0
  4 21  1  0
  6 22  1  0
  9 23  1  6
 10 24  1  0
 10 25  1  0
 11 26  1  0
 11 27  1  0
 12 28  1  0
 12 29  1  0
 13 30  1  0
 16 31  1  0
A    1
 C1 
A    2
 C2 
A    3
 C3 
A    4
 C4 
A    5
 C5 
A    6
 N1 
A    7
 C6 
A    8
 O1 
A    9
 C7 
A   10
 C8 
A   11
 C9 
A   12
 C10
A   13
 N2 
A   14
 C11
A   15
CL1 
A   16
 C12
A   17
 H1 
A   18
 H2 
A   19
 H3 
A   20
 H4 
A   21
 H5 
A   22
 H6 
A   23
 H7 
A   24
 H8 
A   25
 H9 
A   26
 H10
A   27
 H11
A   28
 H12
A   29
 H13
A   30
 H14
A   31
 H15
M  END
>  <ref_pdb>  (47) 
x0310_0A

>  <ref_mols>  (47) 
x0554_0A,x0812_0A,x0416_0A

>  <original SMILES>  (47) 
Cc1ccc(NC(=O)[C@H]2CCCN2)c(Cl)c1

>  <rationale>  (47) 
info hbond:E88; hydroph_interaction:P107+V124; 

>  <intxn_cluster>  (47) 
103

>  <intxn_cluster_rank>  (47) 
215

>  <N_interactions>  (47) 
3

>  <∆∆G>  (47) 
-7.941703

>  <$/mg>  (47) 
0.0

>  <comRMSD>  (47) 
0.782401

>  <N_rotatable_bonds>  (47) 
3

>  <hbond:SER:7>  (47) 
hbond:SER:7    0
hbond:SER:7    0
Name: 46, dtype: object

>  <halogenbond:SER:7>  (47) 
halogenbond:SER:7    0
halogenbond:SER:7    0
Name: 46, dtype: object

>  <hbond:GLY:8>  (47) 
hbond:GLY:8    0
hbond:GLY:8    0
Name: 46, dtype: object

>  <hydroph_interaction:ASN:19>  (47) 
hydroph_interaction:ASN:19    0
hydroph_interaction:ASN:19    0
Name: 46, dtype: object

>  <hbond:ASN:19>  (47) 
hbond:ASN:19    0
hbond:ASN:19    0
Name: 46, dtype: object

>  <halogenbond:ASN:19>  (47) 
halogenbond:ASN:19    0
halogenbond:ASN:19    0
Name: 46, dtype: object

>  <hbond:ARG:20>  (47) 
hbond:ARG:20    0
hbond:ARG:20    0
Name: 46, dtype: object

>  <hydroph_interaction:ARG:20>  (47) 
hydroph_interaction:ARG:20    0
hydroph_interaction:ARG:20    0
Name: 46, dtype: object

>  <saltbridge:ARG:20>  (47) 
saltbridge:ARG:20    0
saltbridge:ARG:20    0
Name: 46, dtype: object

>  <halogenbond:ARG:20>  (47) 
halogenbond:ARG:20    0
halogenbond:ARG:20    0
Name: 46, dtype: object

>  <pication:ARG:20>  (47) 
pication:ARG:20    0
pication:ARG:20    0
Name: 46, dtype: object

>  <hbond:HIS:21>  (47) 
hbond:HIS:21    0
hbond:HIS:21    0
Name: 46, dtype: object

>  <hydroph_interaction:HIS:21>  (47) 
hydroph_interaction:HIS:21    0
hydroph_interaction:HIS:21    0
Name: 46, dtype: object

>  <saltbridge:HIS:21>  (47) 
saltbridge:HIS:21    0
saltbridge:HIS:21    0
Name: 46, dtype: object

>  <pistack:HIS:21>  (47) 
pistack:HIS:21    0
pistack:HIS:21    0
Name: 46, dtype: object

>  <pication:HIS:21>  (47) 
pication:HIS:21    0
pication:HIS:21    0
Name: 46, dtype: object

>  <halogenbond:HIS:21>  (47) 
halogenbond:HIS:21    0
halogenbond:HIS:21    0
Name: 46, dtype: object

>  <hydroph_interaction:LEU:22>  (47) 
hydroph_interaction:LEU:22    0
hydroph_interaction:LEU:22    0
Name: 46, dtype: object

>  <hbond:LEU:22>  (47) 
hbond:LEU:22    0
hbond:LEU:22    0
Name: 46, dtype: object

>  <hydroph_interaction:TRP:28>  (47) 
hydroph_interaction:TRP:28    0
hydroph_interaction:TRP:28    0
Name: 46, dtype: object

>  <hbond:SER:36>  (47) 
hbond:SER:36    0
hbond:SER:36    0
Name: 46, dtype: object

>  <halogenbond:SER:36>  (47) 
halogenbond:SER:36    0
halogenbond:SER:36    0
Name: 46, dtype: object

>  <hbond:ARG:38>  (47) 
hbond:ARG:38    0
hbond:ARG:38    0
Name: 46, dtype: object

>  <halogenbond:ARG:38>  (47) 
halogenbond:ARG:38    0
halogenbond:ARG:38    0
Name: 46, dtype: object

>  <hbond:ASP:39>  (47) 
hbond:ASP:39    0
hbond:ASP:39    0
Name: 46, dtype: object

>  <saltbridge:ASP:39>  (47) 
saltbridge:ASP:39    0
saltbridge:ASP:39    0
Name: 46, dtype: object

>  <hydroph_interaction:ASP:39>  (47) 
hydroph_interaction:ASP:39    0
hydroph_interaction:ASP:39    0
Name: 46, dtype: object

>  <halogenbond:ASP:39>  (47) 
halogenbond:ASP:39    0
halogenbond:ASP:39    0
Name: 46, dtype: object

>  <hydroph_interaction:LEU:40>  (47) 
hydroph_interaction:LEU:40    0
hydroph_interaction:LEU:40    0
Name: 46, dtype: object

>  <hydroph_interaction:TYR:63>  (47) 
hydroph_interaction:TYR:63    0
hydroph_interaction:TYR:63    0
Name: 46, dtype: object

>  <pistack:TYR:63>  (47) 
pistack:TYR:63    0
pistack:TYR:63    0
Name: 46, dtype: object

>  <hbond:TYR:63>  (47) 
hbond:TYR:63    0
hbond:TYR:63    0
Name: 46, dtype: object

>  <hbond:TYR:64>  (47) 
hbond:TYR:64    0
hbond:TYR:64    0
Name: 46, dtype: object

>  <halogenbond:TYR:64>  (47) 
halogenbond:TYR:64    0
halogenbond:TYR:64    0
Name: 46, dtype: object

>  <hydroph_interaction:TYR:64>  (47) 
hydroph_interaction:TYR:64    0
hydroph_interaction:TYR:64    0
Name: 46, dtype: object

>  <hbond:CYS:65>  (47) 
hbond:CYS:65    0
hbond:CYS:65    0
Name: 46, dtype: object

>  <halogenbond:CYS:65>  (47) 
halogenbond:CYS:65    0
halogenbond:CYS:65    0
Name: 46, dtype: object

>  <hbond:SER:66>  (47) 
hbond:SER:66    0
hbond:SER:66    0
Name: 46, dtype: object

>  <hbond:SER:67>  (47) 
hbond:SER:67    0
hbond:SER:67    0
Name: 46, dtype: object

>  <halogenbond:SER:67>  (47) 
halogenbond:SER:67    0
halogenbond:SER:67    0
Name: 46, dtype: object

>  <hydroph_interaction:ARG:68>  (47) 
hydroph_interaction:ARG:68    0
hydroph_interaction:ARG:68    0
Name: 46, dtype: object

>  <hbond:ARG:68>  (47) 
hbond:ARG:68    0
hbond:ARG:68    0
Name: 46, dtype: object

>  <saltbridge:ARG:68>  (47) 
saltbridge:ARG:68    0
saltbridge:ARG:68    0
Name: 46, dtype: object

>  <pication:ARG:68>  (47) 
pication:ARG:68    0
pication:ARG:68    0
Name: 46, dtype: object

>  <hydroph_interaction:TYR:72>  (47) 
hydroph_interaction:TYR:72    0
hydroph_interaction:TYR:72    0
Name: 46, dtype: object

>  <hydroph_interaction:VAL:74>  (47) 
hydroph_interaction:VAL:74    0
hydroph_interaction:VAL:74    0
Name: 46, dtype: object

>  <hydroph_interaction:PHE:76>  (47) 
hydroph_interaction:PHE:76    0
hydroph_interaction:PHE:76    0
Name: 46, dtype: object

>  <hbond:SER:77>  (47) 
hbond:SER:77    0
hbond:SER:77    0
Name: 46, dtype: object

>  <hbond:SER:80>  (47) 
hbond:SER:80    0
hbond:SER:80    0
Name: 46, dtype: object

>  <hbond:LEU:81>  (47) 
hbond:LEU:81    0
hbond:LEU:81    0
Name: 46, dtype: object

>  <halogenbond:LEU:81>  (47) 
halogenbond:LEU:81    0
halogenbond:LEU:81    0
Name: 46, dtype: object

>  <hydroph_interaction:LEU:81>  (47) 
hydroph_interaction:LEU:81    0
hydroph_interaction:LEU:81    0
Name: 46, dtype: object

>  <hydroph_interaction:ILE:82>  (47) 
hydroph_interaction:ILE:82    0
hydroph_interaction:ILE:82    0
Name: 46, dtype: object

>  <hbond:ILE:82>  (47) 
hbond:ILE:82    0
hbond:ILE:82    0
Name: 46, dtype: object

>  <hydroph_interaction:PHE:83>  (47) 
hydroph_interaction:PHE:83    0
hydroph_interaction:PHE:83    0
Name: 46, dtype: object

>  <hbond:PHE:83>  (47) 
hbond:PHE:83    0
hbond:PHE:83    0
Name: 46, dtype: object

>  <halogenbond:PHE:83>  (47) 
halogenbond:PHE:83    0
halogenbond:PHE:83    0
Name: 46, dtype: object

>  <pistack:PHE:83>  (47) 
pistack:PHE:83    0
pistack:PHE:83    0
Name: 46, dtype: object

>  <hydroph_interaction:VAL:84>  (47) 
hydroph_interaction:VAL:84    0
hydroph_interaction:VAL:84    0
Name: 46, dtype: object

>  <hbond:VAL:84>  (47) 
hbond:VAL:84    0
hbond:VAL:84    0
Name: 46, dtype: object

>  <halogenbond:VAL:84>  (47) 
halogenbond:VAL:84    0
halogenbond:VAL:84    0
Name: 46, dtype: object

>  <hydroph_interaction:GLU:85>  (47) 
hydroph_interaction:GLU:85    0
hydroph_interaction:GLU:85    0
Name: 46, dtype: object

>  <hbond:GLU:85>  (47) 
hbond:GLU:85    0
hbond:GLU:85    0
Name: 46, dtype: object

>  <saltbridge:GLU:85>  (47) 
saltbridge:GLU:85    0
saltbridge:GLU:85    0
Name: 46, dtype: object

>  <halogenbond:GLU:85>  (47) 
halogenbond:GLU:85    0
halogenbond:GLU:85    0
Name: 46, dtype: object

>  <hbond:ALA:86>  (47) 
hbond:ALA:86    0
hbond:ALA:86    0
Name: 46, dtype: object

>  <halogenbond:ALA:86>  (47) 
halogenbond:ALA:86    0
halogenbond:ALA:86    0
Name: 46, dtype: object

>  <hydroph_interaction:ALA:86>  (47) 
hydroph_interaction:ALA:86    0
hydroph_interaction:ALA:86    0
Name: 46, dtype: object

>  <hbond:SER:87>  (47) 
hbond:SER:87    0
hbond:SER:87    0
Name: 46, dtype: object

>  <halogenbond:SER:87>  (47) 
halogenbond:SER:87    0
halogenbond:SER:87    0
Name: 46, dtype: object

>  <hbond:GLU:88>  (47) 
hbond:GLU:88    1
hbond:GLU:88    1
Name: 46, dtype: object

>  <hydroph_interaction:GLU:88>  (47) 
hydroph_interaction:GLU:88    0
hydroph_interaction:GLU:88    0
Name: 46, dtype: object

>  <halogenbond:GLU:88>  (47) 
halogenbond:GLU:88    0
halogenbond:GLU:88    0
Name: 46, dtype: object

>  <saltbridge:GLU:88>  (47) 
saltbridge:GLU:88    0
saltbridge:GLU:88    0
Name: 46, dtype: object

>  <hydroph_interaction:TYR:89>  (47) 
hydroph_interaction:TYR:89    0
hydroph_interaction:TYR:89    0
Name: 46, dtype: object

>  <pistack:TYR:89>  (47) 
pistack:TYR:89    0
pistack:TYR:89    0
Name: 46, dtype: object

>  <hbond:TYR:89>  (47) 
hbond:TYR:89    0
hbond:TYR:89    0
Name: 46, dtype: object

>  <halogenbond:TYR:89>  (47) 
halogenbond:TYR:89    0
halogenbond:TYR:89    0
Name: 46, dtype: object

>  <hbond:TYR:90>  (47) 
hbond:TYR:90    0
hbond:TYR:90    0
Name: 46, dtype: object

>  <hydroph_interaction:TYR:90>  (47) 
hydroph_interaction:TYR:90    0
hydroph_interaction:TYR:90    0
Name: 46, dtype: object

>  <pistack:TYR:90>  (47) 
pistack:TYR:90    0
pistack:TYR:90    0
Name: 46, dtype: object

>  <halogenbond:TYR:90>  (47) 
halogenbond:TYR:90    0
halogenbond:TYR:90    0
Name: 46, dtype: object

>  <pication:TYR:90>  (47) 
pication:TYR:90    0
pication:TYR:90    0
Name: 46, dtype: object

>  <hydroph_interaction:PRO:91>  (47) 
hydroph_interaction:PRO:91    0
hydroph_interaction:PRO:91    0
Name: 46, dtype: object

>  <halogenbond:PRO:91>  (47) 
halogenbond:PRO:91    0
halogenbond:PRO:91    0
Name: 46, dtype: object

>  <hbond:PRO:91>  (47) 
hbond:PRO:91    0
hbond:PRO:91    0
Name: 46, dtype: object

>  <hydroph_interaction:ALA:92>  (47) 
hydroph_interaction:ALA:92    0
hydroph_interaction:ALA:92    0
Name: 46, dtype: object

>  <hbond:ARG:93>  (47) 
hbond:ARG:93    0
hbond:ARG:93    0
Name: 46, dtype: object

>  <pication:ARG:93>  (47) 
pication:ARG:93    0
pication:ARG:93    0
Name: 46, dtype: object

>  <saltbridge:ARG:93>  (47) 
saltbridge:ARG:93    0
saltbridge:ARG:93    0
Name: 46, dtype: object

>  <hydroph_interaction:ARG:93>  (47) 
hydroph_interaction:ARG:93    0
hydroph_interaction:ARG:93    0
Name: 46, dtype: object

>  <halogenbond:ARG:93>  (47) 
halogenbond:ARG:93    0
halogenbond:ARG:93    0
Name: 46, dtype: object

>  <hydroph_interaction:TYR:94>  (47) 
hydroph_interaction:TYR:94    0
hydroph_interaction:TYR:94    0
Name: 46, dtype: object

>  <hbond:TYR:94>  (47) 
hbond:TYR:94    0
hbond:TYR:94    0
Name: 46, dtype: object

>  <halogenbond:GLN:95>  (47) 
halogenbond:GLN:95    0
halogenbond:GLN:95    0
Name: 46, dtype: object

>  <hbond:GLN:95>  (47) 
hbond:GLN:95    0
hbond:GLN:95    0
Name: 46, dtype: object

>  <hydroph_interaction:GLN:95>  (47) 
hydroph_interaction:GLN:95    0
hydroph_interaction:GLN:95    0
Name: 46, dtype: object

>  <hbond:SER:96>  (47) 
hbond:SER:96    0
hbond:SER:96    0
Name: 46, dtype: object

>  <hydroph_interaction:LEU:98>  (47) 
hydroph_interaction:LEU:98    0
hydroph_interaction:LEU:98    0
Name: 46, dtype: object

>  <hbond:LEU:98>  (47) 
hbond:LEU:98    0
hbond:LEU:98    0
Name: 46, dtype: object

>  <hbond:MET:99>  (47) 
hbond:MET:99    0
hbond:MET:99    0
Name: 46, dtype: object

>  <hydroph_interaction:MET:99>  (47) 
hydroph_interaction:MET:99    0
hydroph_interaction:MET:99    0
Name: 46, dtype: object

>  <halogenbond:MET:99>  (47) 
halogenbond:MET:99    0
halogenbond:MET:99    0
Name: 46, dtype: object

>  <hydroph_interaction:LEU:100>  (47) 
hydroph_interaction:LEU:100    0
hydroph_interaction:LEU:100    0
Name: 46, dtype: object

>  <hbond:LEU:100>  (47) 
hbond:LEU:100    0
hbond:LEU:100    0
Name: 46, dtype: object

>  <hbond:ALA:101>  (47) 
hbond:ALA:101    0
hbond:ALA:101    0
Name: 46, dtype: object

>  <hydroph_interaction:ALA:101>  (47) 
hydroph_interaction:ALA:101    0
hydroph_interaction:ALA:101    0
Name: 46, dtype: object

>  <hydroph_interaction:VAL:102>  (47) 
hydroph_interaction:VAL:102    0
hydroph_interaction:VAL:102    0
Name: 46, dtype: object

>  <hbond:VAL:102>  (47) 
hbond:VAL:102    0
hbond:VAL:102    0
Name: 46, dtype: object

>  <hbond:GLY:103>  (47) 
hbond:GLY:103    0
hbond:GLY:103    0
Name: 46, dtype: object

>  <halogenbond:GLY:103>  (47) 
halogenbond:GLY:103    0
halogenbond:GLY:103    0
Name: 46, dtype: object

>  <hydroph_interaction:HIS:104>  (47) 
hydroph_interaction:HIS:104    0
hydroph_interaction:HIS:104    0
Name: 46, dtype: object

>  <hbond:HIS:104>  (47) 
hbond:HIS:104    0
hbond:HIS:104    0
Name: 46, dtype: object

>  <saltbridge:HIS:104>  (47) 
saltbridge:HIS:104    0
saltbridge:HIS:104    0
Name: 46, dtype: object

>  <pication:HIS:104>  (47) 
pication:HIS:104    0
pication:HIS:104    0
Name: 46, dtype: object

>  <pistack:HIS:104>  (47) 
pistack:HIS:104    0
pistack:HIS:104    0
Name: 46, dtype: object

>  <halogenbond:HIS:104>  (47) 
halogenbond:HIS:104    0
halogenbond:HIS:104    0
Name: 46, dtype: object

>  <hbond:SER:105>  (47) 
hbond:SER:105    0
hbond:SER:105    0
Name: 46, dtype: object

>  <halogenbond:SER:105>  (47) 
halogenbond:SER:105    0
halogenbond:SER:105    0
Name: 46, dtype: object

>  <hbond:GLU:106>  (47) 
hbond:GLU:106    0
hbond:GLU:106    0
Name: 46, dtype: object

>  <hydroph_interaction:GLU:106>  (47) 
hydroph_interaction:GLU:106    0
hydroph_interaction:GLU:106    0
Name: 46, dtype: object

>  <saltbridge:GLU:106>  (47) 
saltbridge:GLU:106    0
saltbridge:GLU:106    0
Name: 46, dtype: object

>  <halogenbond:GLU:106>  (47) 
halogenbond:GLU:106    0
halogenbond:GLU:106    0
Name: 46, dtype: object

>  <hydroph_interaction:PRO:107>  (47) 
hydroph_interaction:PRO:107    1
hydroph_interaction:PRO:107    1
Name: 46, dtype: object

>  <hbond:PRO:107>  (47) 
hbond:PRO:107    0
hbond:PRO:107    0
Name: 46, dtype: object

>  <halogenbond:PRO:107>  (47) 
halogenbond:PRO:107    0
halogenbond:PRO:107    0
Name: 46, dtype: object

>  <hbond:GLY:108>  (47) 
hbond:GLY:108    0
hbond:GLY:108    0
Name: 46, dtype: object

>  <halogenbond:GLY:108>  (47) 
halogenbond:GLY:108    0
halogenbond:GLY:108    0
Name: 46, dtype: object

>  <hbond:ASP:109>  (47) 
hbond:ASP:109    0
hbond:ASP:109    0
Name: 46, dtype: object

>  <hydroph_interaction:ASP:109>  (47) 
hydroph_interaction:ASP:109    0
hydroph_interaction:ASP:109    0
Name: 46, dtype: object

>  <saltbridge:ASP:109>  (47) 
saltbridge:ASP:109    0
saltbridge:ASP:109    0
Name: 46, dtype: object

>  <hbond:CYS:110>  (47) 
hbond:CYS:110    0
hbond:CYS:110    0
Name: 46, dtype: object

>  <halogenbond:CYS:110>  (47) 
halogenbond:CYS:110    0
halogenbond:CYS:110    0
Name: 46, dtype: object

>  <hbond:GLY:111>  (47) 
hbond:GLY:111    0
hbond:GLY:111    0
Name: 46, dtype: object

>  <hbond:GLY:112>  (47) 
hbond:GLY:112    0
hbond:GLY:112    0
Name: 46, dtype: object

>  <hbond:ILE:113>  (47) 
hbond:ILE:113    0
hbond:ILE:113    0
Name: 46, dtype: object

>  <hydroph_interaction:LEU:114>  (47) 
hydroph_interaction:LEU:114    0
hydroph_interaction:LEU:114    0
Name: 46, dtype: object

>  <hbond:LEU:114>  (47) 
hbond:LEU:114    0
hbond:LEU:114    0
Name: 46, dtype: object

>  <hydroph_interaction:ILE:123>  (47) 
hydroph_interaction:ILE:123    0
hydroph_interaction:ILE:123    0
Name: 46, dtype: object

>  <hbond:ILE:123>  (47) 
hbond:ILE:123    0
hbond:ILE:123    0
Name: 46, dtype: object

>  <hydroph_interaction:VAL:124>  (47) 
hydroph_interaction:VAL:124    1
hydroph_interaction:VAL:124    1
Name: 46, dtype: object

>  <hbond:VAL:124>  (47) 
hbond:VAL:124    0
hbond:VAL:124    0
Name: 46, dtype: object

>  <halogenbond:VAL:124>  (47) 
halogenbond:VAL:124    0
halogenbond:VAL:124    0
Name: 46, dtype: object

>  <hbond:SER:125>  (47) 
hbond:SER:125    0
hbond:SER:125    0
Name: 46, dtype: object

>  <halogenbond:SER:125>  (47) 
halogenbond:SER:125    0
halogenbond:SER:125    0
Name: 46, dtype: object

>  <hydroph_interaction:THR:126>  (47) 
hydroph_interaction:THR:126    0
hydroph_interaction:THR:126    0
Name: 46, dtype: object

>  <hbond:THR:126>  (47) 
hbond:THR:126    0
hbond:THR:126    0
Name: 46, dtype: object

>  <halogenbond:THR:126>  (47) 
halogenbond:THR:126    0
halogenbond:THR:126    0
Name: 46, dtype: object

>  <hbond:GLY:127>  (47) 
hbond:GLY:127    0
hbond:GLY:127    0
Name: 46, dtype: object

>  <halogenbond:GLY:127>  (47) 
halogenbond:GLY:127    0
halogenbond:GLY:127    0
Name: 46, dtype: object

>  <hydroph_interaction:GLY:127>  (47) 
hydroph_interaction:GLY:127    0
hydroph_interaction:GLY:127    0
Name: 46, dtype: object

>  <hbond:GLY:128>  (47) 
hbond:GLY:128    0
hbond:GLY:128    0
Name: 46, dtype: object

>  <halogenbond:GLY:128>  (47) 
halogenbond:GLY:128    0
halogenbond:GLY:128    0
Name: 46, dtype: object

>  <hydroph_interaction:GLY:128>  (47) 
hydroph_interaction:GLY:128    0
hydroph_interaction:GLY:128    0
Name: 46, dtype: object

>  <hbond:ASN:129>  (47) 
hbond:ASN:129    0
hbond:ASN:129    0
Name: 46, dtype: object

>  <hydroph_interaction:ASN:129>  (47) 
hydroph_interaction:ASN:129    0
hydroph_interaction:ASN:129    0
Name: 46, dtype: object

>  <halogenbond:ASN:129>  (47) 
halogenbond:ASN:129    0
halogenbond:ASN:129    0
Name: 46, dtype: object

>  <hbond:GLY:130>  (47) 
hbond:GLY:130    0
hbond:GLY:130    0
Name: 46, dtype: object

>  <hydroph_interaction:LEU:131>  (47) 
hydroph_interaction:LEU:131    0
hydroph_interaction:LEU:131    0
Name: 46, dtype: object

>  <hbond:LEU:131>  (47) 
hbond:LEU:131    0
hbond:LEU:131    0
Name: 46, dtype: object

>  <halogenbond:LEU:131>  (47) 
halogenbond:LEU:131    0
halogenbond:LEU:131    0
Name: 46, dtype: object

>  <hydroph_interaction:VAL:132>  (47) 
hydroph_interaction:VAL:132    0
hydroph_interaction:VAL:132    0
Name: 46, dtype: object

>  <hbond:VAL:132>  (47) 
hbond:VAL:132    0
hbond:VAL:132    0
Name: 46, dtype: object

>  <hbond:GLY:133>  (47) 
hbond:GLY:133    0
hbond:GLY:133    0
Name: 46, dtype: object

>  <halogenbond:GLY:133>  (47) 
halogenbond:GLY:133    0
halogenbond:GLY:133    0
Name: 46, dtype: object

>  <hydroph_interaction:PHE:134>  (47) 
hydroph_interaction:PHE:134    0
hydroph_interaction:PHE:134    0
Name: 46, dtype: object

>  <hbond:PHE:134>  (47) 
hbond:PHE:134    0
hbond:PHE:134    0
Name: 46, dtype: object

>  <pistack:PHE:134>  (47) 
pistack:PHE:134    0
pistack:PHE:134    0
Name: 46, dtype: object

>  <pication:PHE:134>  (47) 
pication:PHE:134    0
pication:PHE:134    0
Name: 46, dtype: object

>  <hydroph_interaction:ALA:135>  (47) 
hydroph_interaction:ALA:135    0
hydroph_interaction:ALA:135    0
Name: 46, dtype: object

>  <hbond:ALA:135>  (47) 
hbond:ALA:135    0
hbond:ALA:135    0
Name: 46, dtype: object

$$$$
PV_002777536206
     RDKit          3D

 25 26  0  0  0  0  0  0  0  0999 V2000
   11.9890   15.0540   21.9670 C   0  0  0  0  0  0  0  0  0  0  0  0
   11.4530   14.1470   22.8060 C   0  0  0  0  0  0  0  0  0  0  0  0
   11.9400   14.1150   24.2200 C   0  0  0  0  0  0  0  0  0  0  0  0
   10.5150   13.3180   22.3250 C   0  0  0  0  0  0  0  0  0  0  0  0
    9.8560   12.2930   23.0100 C   0  0  0  0  0  0  0  0  0  0  0  0
    8.8840   12.5480   23.9810 C   0  0  0  0  0  0  0  0  0  0  0  0
    8.4540   13.8050   24.3920 O   0  0  0  0  0  0  0  0  0  0  0  0
    7.5000   13.6290   25.3430 C   0  0  0  0  0  0  0  0  0  0  0  0
    7.3530   12.1760   25.5120 C   0  0  0  0  0  0  0  0  0  0  0  0
    8.2100   11.5160   24.6680 C   0  0  0  0  0  0  0  0  0  0  0  0
    8.5010   10.2120   24.3940 C   0  0  0  0  0  0  0  0  0  0  0  0
    9.4630    9.9380   23.4320 C   0  0  0  0  0  0  0  0  0  0  0  0
    9.7720    8.6820   23.1300 F   0  0  0  0  0  0  0  0  0  0  0  0
   10.1200   10.9440   22.7620 C   0  0  0  0  0  0  0  0  0  0  0  0
   12.7450   14.6590   21.2920 H   0  0  0  0  0  0  0  0  0  0  0  0
   12.3360   15.9770   22.4220 H   0  0  0  0  0  0  0  0  0  0  0  0
   11.1690   15.3550   21.3070 H   0  0  0  0  0  0  0  0  0  0  0  0
   12.3670   15.0830   24.5180 H   0  0  0  0  0  0  0  0  0  0  0  0
   12.7360   13.3710   24.3200 H   0  0  0  0  0  0  0  0  0  0  0  0
   11.1230   13.8670   24.8980 H   0  0  0  0  0  0  0  0  0  0  0  0
   10.2610   13.4790   21.2780 H   0  0  0  0  0  0  0  0  0  0  0  0
    7.0530   14.5150   25.7740 H   0  0  0  0  0  0  0  0  0  0  0  0
    6.6660   11.7080   26.2050 H   0  0  0  0  0  0  0  0  0  0  0  0
    8.0010    9.4050   24.9040 H   0  0  0  0  0  0  0  0  0  0  0  0
   10.8530   10.6590   22.0240 H   0  0  0  0  0  0  0  0  0  0  0  0
  1  2  1  0
  2  3  1  0
  2  4  2  3
  4  5  1  0
  5  6  2  0
  6  7  1  0
  7  8  1  0
  8  9  2  0
  9 10  1  0
 10 11  2  0
 11 12  1  0
 12 13  1  0
 12 14  2  0
 14  5  1  0
 10  6  1  0
  1 15  1  0
  1 16  1  0
  1 17  1  0
  3 18  1  0
  3 19  1  0
  3 20  1  0
  4 21  1  0
  8 22  1  0
  9 23  1  0
 11 24  1  0
 14 25  1  0
A    1
 C1 
A    2
 C2 
A    3
 C3 
A    4
 C4 
A    5
 C5 
A    6
 C6 
A    7
 O1 
A    8
 C7 
A    9
 C8 
A   10
 C9 
A   11
 C10
A   12
 C11
A   13
 F1 
A   14
 C12
A   15
 H1 
A   16
 H2 
A   17
 H3 
A   18
 H4 
A   19
 H5 
A   20
 H6 
A   21
 H7 
A   22
 H8 
A   23
 H9 
A   24
 H10
A   25
 H11
M  END
>  <ref_pdb>  (48) 
x0310_0A

>  <ref_mols>  (48) 
x0554_0A,x0739_0A

>  <original SMILES>  (48) 
CC(C)=Cc1cc(F)cc2ccoc12

>  <rationale>  (48) 
info hydroph_interaction:P107; 

>  <intxn_cluster>  (48) 
208

>  <intxn_cluster_rank>  (48) 
221

>  <N_interactions>  (48) 
2

>  <∆∆G>  (48) 
-8.794201

>  <$/mg>  (48) 
163.0

>  <comRMSD>  (48) 
0.714688

>  <N_rotatable_bonds>  (48) 
3

>  <hbond:SER:7>  (48) 
hbond:SER:7    0
hbond:SER:7    0
Name: 47, dtype: object

>  <halogenbond:SER:7>  (48) 
halogenbond:SER:7    0
halogenbond:SER:7    0
Name: 47, dtype: object

>  <hbond:GLY:8>  (48) 
hbond:GLY:8    0
hbond:GLY:8    0
Name: 47, dtype: object

>  <hydroph_interaction:ASN:19>  (48) 
hydroph_interaction:ASN:19    0
hydroph_interaction:ASN:19    0
Name: 47, dtype: object

>  <hbond:ASN:19>  (48) 
hbond:ASN:19    0
hbond:ASN:19    0
Name: 47, dtype: object

>  <halogenbond:ASN:19>  (48) 
halogenbond:ASN:19    0
halogenbond:ASN:19    0
Name: 47, dtype: object

>  <hbond:ARG:20>  (48) 
hbond:ARG:20    0
hbond:ARG:20    0
Name: 47, dtype: object

>  <hydroph_interaction:ARG:20>  (48) 
hydroph_interaction:ARG:20    0
hydroph_interaction:ARG:20    0
Name: 47, dtype: object

>  <saltbridge:ARG:20>  (48) 
saltbridge:ARG:20    0
saltbridge:ARG:20    0
Name: 47, dtype: object

>  <halogenbond:ARG:20>  (48) 
halogenbond:ARG:20    0
halogenbond:ARG:20    0
Name: 47, dtype: object

>  <pication:ARG:20>  (48) 
pication:ARG:20    0
pication:ARG:20    0
Name: 47, dtype: object

>  <hbond:HIS:21>  (48) 
hbond:HIS:21    0
hbond:HIS:21    0
Name: 47, dtype: object

>  <hydroph_interaction:HIS:21>  (48) 
hydroph_interaction:HIS:21    0
hydroph_interaction:HIS:21    0
Name: 47, dtype: object

>  <saltbridge:HIS:21>  (48) 
saltbridge:HIS:21    0
saltbridge:HIS:21    0
Name: 47, dtype: object

>  <pistack:HIS:21>  (48) 
pistack:HIS:21    0
pistack:HIS:21    0
Name: 47, dtype: object

>  <pication:HIS:21>  (48) 
pication:HIS:21    0
pication:HIS:21    0
Name: 47, dtype: object

>  <halogenbond:HIS:21>  (48) 
halogenbond:HIS:21    0
halogenbond:HIS:21    0
Name: 47, dtype: object

>  <hydroph_interaction:LEU:22>  (48) 
hydroph_interaction:LEU:22    0
hydroph_interaction:LEU:22    0
Name: 47, dtype: object

>  <hbond:LEU:22>  (48) 
hbond:LEU:22    0
hbond:LEU:22    0
Name: 47, dtype: object

>  <hydroph_interaction:TRP:28>  (48) 
hydroph_interaction:TRP:28    0
hydroph_interaction:TRP:28    0
Name: 47, dtype: object

>  <hbond:SER:36>  (48) 
hbond:SER:36    0
hbond:SER:36    0
Name: 47, dtype: object

>  <halogenbond:SER:36>  (48) 
halogenbond:SER:36    0
halogenbond:SER:36    0
Name: 47, dtype: object

>  <hbond:ARG:38>  (48) 
hbond:ARG:38    0
hbond:ARG:38    0
Name: 47, dtype: object

>  <halogenbond:ARG:38>  (48) 
halogenbond:ARG:38    0
halogenbond:ARG:38    0
Name: 47, dtype: object

>  <hbond:ASP:39>  (48) 
hbond:ASP:39    0
hbond:ASP:39    0
Name: 47, dtype: object

>  <saltbridge:ASP:39>  (48) 
saltbridge:ASP:39    0
saltbridge:ASP:39    0
Name: 47, dtype: object

>  <hydroph_interaction:ASP:39>  (48) 
hydroph_interaction:ASP:39    0
hydroph_interaction:ASP:39    0
Name: 47, dtype: object

>  <halogenbond:ASP:39>  (48) 
halogenbond:ASP:39    0
halogenbond:ASP:39    0
Name: 47, dtype: object

>  <hydroph_interaction:LEU:40>  (48) 
hydroph_interaction:LEU:40    0
hydroph_interaction:LEU:40    0
Name: 47, dtype: object

>  <hydroph_interaction:TYR:63>  (48) 
hydroph_interaction:TYR:63    0
hydroph_interaction:TYR:63    0
Name: 47, dtype: object

>  <pistack:TYR:63>  (48) 
pistack:TYR:63    0
pistack:TYR:63    0
Name: 47, dtype: object

>  <hbond:TYR:63>  (48) 
hbond:TYR:63    0
hbond:TYR:63    0
Name: 47, dtype: object

>  <hbond:TYR:64>  (48) 
hbond:TYR:64    0
hbond:TYR:64    0
Name: 47, dtype: object

>  <halogenbond:TYR:64>  (48) 
halogenbond:TYR:64    0
halogenbond:TYR:64    0
Name: 47, dtype: object

>  <hydroph_interaction:TYR:64>  (48) 
hydroph_interaction:TYR:64    0
hydroph_interaction:TYR:64    0
Name: 47, dtype: object

>  <hbond:CYS:65>  (48) 
hbond:CYS:65    0
hbond:CYS:65    0
Name: 47, dtype: object

>  <halogenbond:CYS:65>  (48) 
halogenbond:CYS:65    0
halogenbond:CYS:65    0
Name: 47, dtype: object

>  <hbond:SER:66>  (48) 
hbond:SER:66    0
hbond:SER:66    0
Name: 47, dtype: object

>  <hbond:SER:67>  (48) 
hbond:SER:67    0
hbond:SER:67    0
Name: 47, dtype: object

>  <halogenbond:SER:67>  (48) 
halogenbond:SER:67    0
halogenbond:SER:67    0
Name: 47, dtype: object

>  <hydroph_interaction:ARG:68>  (48) 
hydroph_interaction:ARG:68    0
hydroph_interaction:ARG:68    0
Name: 47, dtype: object

>  <hbond:ARG:68>  (48) 
hbond:ARG:68    0
hbond:ARG:68    0
Name: 47, dtype: object

>  <saltbridge:ARG:68>  (48) 
saltbridge:ARG:68    0
saltbridge:ARG:68    0
Name: 47, dtype: object

>  <pication:ARG:68>  (48) 
pication:ARG:68    0
pication:ARG:68    0
Name: 47, dtype: object

>  <hydroph_interaction:TYR:72>  (48) 
hydroph_interaction:TYR:72    0
hydroph_interaction:TYR:72    0
Name: 47, dtype: object

>  <hydroph_interaction:VAL:74>  (48) 
hydroph_interaction:VAL:74    0
hydroph_interaction:VAL:74    0
Name: 47, dtype: object

>  <hydroph_interaction:PHE:76>  (48) 
hydroph_interaction:PHE:76    0
hydroph_interaction:PHE:76    0
Name: 47, dtype: object

>  <hbond:SER:77>  (48) 
hbond:SER:77    0
hbond:SER:77    0
Name: 47, dtype: object

>  <hbond:SER:80>  (48) 
hbond:SER:80    0
hbond:SER:80    0
Name: 47, dtype: object

>  <hbond:LEU:81>  (48) 
hbond:LEU:81    0
hbond:LEU:81    0
Name: 47, dtype: object

>  <halogenbond:LEU:81>  (48) 
halogenbond:LEU:81    0
halogenbond:LEU:81    0
Name: 47, dtype: object

>  <hydroph_interaction:LEU:81>  (48) 
hydroph_interaction:LEU:81    0
hydroph_interaction:LEU:81    0
Name: 47, dtype: object

>  <hydroph_interaction:ILE:82>  (48) 
hydroph_interaction:ILE:82    0
hydroph_interaction:ILE:82    0
Name: 47, dtype: object

>  <hbond:ILE:82>  (48) 
hbond:ILE:82    0
hbond:ILE:82    0
Name: 47, dtype: object

>  <hydroph_interaction:PHE:83>  (48) 
hydroph_interaction:PHE:83    0
hydroph_interaction:PHE:83    0
Name: 47, dtype: object

>  <hbond:PHE:83>  (48) 
hbond:PHE:83    0
hbond:PHE:83    0
Name: 47, dtype: object

>  <halogenbond:PHE:83>  (48) 
halogenbond:PHE:83    0
halogenbond:PHE:83    0
Name: 47, dtype: object

>  <pistack:PHE:83>  (48) 
pistack:PHE:83    0
pistack:PHE:83    0
Name: 47, dtype: object

>  <hydroph_interaction:VAL:84>  (48) 
hydroph_interaction:VAL:84    0
hydroph_interaction:VAL:84    0
Name: 47, dtype: object

>  <hbond:VAL:84>  (48) 
hbond:VAL:84    0
hbond:VAL:84    0
Name: 47, dtype: object

>  <halogenbond:VAL:84>  (48) 
halogenbond:VAL:84    0
halogenbond:VAL:84    0
Name: 47, dtype: object

>  <hydroph_interaction:GLU:85>  (48) 
hydroph_interaction:GLU:85    0
hydroph_interaction:GLU:85    0
Name: 47, dtype: object

>  <hbond:GLU:85>  (48) 
hbond:GLU:85    0
hbond:GLU:85    0
Name: 47, dtype: object

>  <saltbridge:GLU:85>  (48) 
saltbridge:GLU:85    0
saltbridge:GLU:85    0
Name: 47, dtype: object

>  <halogenbond:GLU:85>  (48) 
halogenbond:GLU:85    0
halogenbond:GLU:85    0
Name: 47, dtype: object

>  <hbond:ALA:86>  (48) 
hbond:ALA:86    0
hbond:ALA:86    0
Name: 47, dtype: object

>  <halogenbond:ALA:86>  (48) 
halogenbond:ALA:86    0
halogenbond:ALA:86    0
Name: 47, dtype: object

>  <hydroph_interaction:ALA:86>  (48) 
hydroph_interaction:ALA:86    0
hydroph_interaction:ALA:86    0
Name: 47, dtype: object

>  <hbond:SER:87>  (48) 
hbond:SER:87    0
hbond:SER:87    0
Name: 47, dtype: object

>  <halogenbond:SER:87>  (48) 
halogenbond:SER:87    0
halogenbond:SER:87    0
Name: 47, dtype: object

>  <hbond:GLU:88>  (48) 
hbond:GLU:88    0
hbond:GLU:88    0
Name: 47, dtype: object

>  <hydroph_interaction:GLU:88>  (48) 
hydroph_interaction:GLU:88    0
hydroph_interaction:GLU:88    0
Name: 47, dtype: object

>  <halogenbond:GLU:88>  (48) 
halogenbond:GLU:88    0
halogenbond:GLU:88    0
Name: 47, dtype: object

>  <saltbridge:GLU:88>  (48) 
saltbridge:GLU:88    0
saltbridge:GLU:88    0
Name: 47, dtype: object

>  <hydroph_interaction:TYR:89>  (48) 
hydroph_interaction:TYR:89    0
hydroph_interaction:TYR:89    0
Name: 47, dtype: object

>  <pistack:TYR:89>  (48) 
pistack:TYR:89    0
pistack:TYR:89    0
Name: 47, dtype: object

>  <hbond:TYR:89>  (48) 
hbond:TYR:89    0
hbond:TYR:89    0
Name: 47, dtype: object

>  <halogenbond:TYR:89>  (48) 
halogenbond:TYR:89    0
halogenbond:TYR:89    0
Name: 47, dtype: object

>  <hbond:TYR:90>  (48) 
hbond:TYR:90    0
hbond:TYR:90    0
Name: 47, dtype: object

>  <hydroph_interaction:TYR:90>  (48) 
hydroph_interaction:TYR:90    0
hydroph_interaction:TYR:90    0
Name: 47, dtype: object

>  <pistack:TYR:90>  (48) 
pistack:TYR:90    0
pistack:TYR:90    0
Name: 47, dtype: object

>  <halogenbond:TYR:90>  (48) 
halogenbond:TYR:90    0
halogenbond:TYR:90    0
Name: 47, dtype: object

>  <pication:TYR:90>  (48) 
pication:TYR:90    0
pication:TYR:90    0
Name: 47, dtype: object

>  <hydroph_interaction:PRO:91>  (48) 
hydroph_interaction:PRO:91    0
hydroph_interaction:PRO:91    0
Name: 47, dtype: object

>  <halogenbond:PRO:91>  (48) 
halogenbond:PRO:91    0
halogenbond:PRO:91    0
Name: 47, dtype: object

>  <hbond:PRO:91>  (48) 
hbond:PRO:91    0
hbond:PRO:91    0
Name: 47, dtype: object

>  <hydroph_interaction:ALA:92>  (48) 
hydroph_interaction:ALA:92    0
hydroph_interaction:ALA:92    0
Name: 47, dtype: object

>  <hbond:ARG:93>  (48) 
hbond:ARG:93    0
hbond:ARG:93    0
Name: 47, dtype: object

>  <pication:ARG:93>  (48) 
pication:ARG:93    0
pication:ARG:93    0
Name: 47, dtype: object

>  <saltbridge:ARG:93>  (48) 
saltbridge:ARG:93    0
saltbridge:ARG:93    0
Name: 47, dtype: object

>  <hydroph_interaction:ARG:93>  (48) 
hydroph_interaction:ARG:93    0
hydroph_interaction:ARG:93    0
Name: 47, dtype: object

>  <halogenbond:ARG:93>  (48) 
halogenbond:ARG:93    0
halogenbond:ARG:93    0
Name: 47, dtype: object

>  <hydroph_interaction:TYR:94>  (48) 
hydroph_interaction:TYR:94    0
hydroph_interaction:TYR:94    0
Name: 47, dtype: object

>  <hbond:TYR:94>  (48) 
hbond:TYR:94    0
hbond:TYR:94    0
Name: 47, dtype: object

>  <halogenbond:GLN:95>  (48) 
halogenbond:GLN:95    0
halogenbond:GLN:95    0
Name: 47, dtype: object

>  <hbond:GLN:95>  (48) 
hbond:GLN:95    0
hbond:GLN:95    0
Name: 47, dtype: object

>  <hydroph_interaction:GLN:95>  (48) 
hydroph_interaction:GLN:95    0
hydroph_interaction:GLN:95    0
Name: 47, dtype: object

>  <hbond:SER:96>  (48) 
hbond:SER:96    0
hbond:SER:96    0
Name: 47, dtype: object

>  <hydroph_interaction:LEU:98>  (48) 
hydroph_interaction:LEU:98    0
hydroph_interaction:LEU:98    0
Name: 47, dtype: object

>  <hbond:LEU:98>  (48) 
hbond:LEU:98    0
hbond:LEU:98    0
Name: 47, dtype: object

>  <hbond:MET:99>  (48) 
hbond:MET:99    0
hbond:MET:99    0
Name: 47, dtype: object

>  <hydroph_interaction:MET:99>  (48) 
hydroph_interaction:MET:99    0
hydroph_interaction:MET:99    0
Name: 47, dtype: object

>  <halogenbond:MET:99>  (48) 
halogenbond:MET:99    0
halogenbond:MET:99    0
Name: 47, dtype: object

>  <hydroph_interaction:LEU:100>  (48) 
hydroph_interaction:LEU:100    0
hydroph_interaction:LEU:100    0
Name: 47, dtype: object

>  <hbond:LEU:100>  (48) 
hbond:LEU:100    0
hbond:LEU:100    0
Name: 47, dtype: object

>  <hbond:ALA:101>  (48) 
hbond:ALA:101    0
hbond:ALA:101    0
Name: 47, dtype: object

>  <hydroph_interaction:ALA:101>  (48) 
hydroph_interaction:ALA:101    0
hydroph_interaction:ALA:101    0
Name: 47, dtype: object

>  <hydroph_interaction:VAL:102>  (48) 
hydroph_interaction:VAL:102    0
hydroph_interaction:VAL:102    0
Name: 47, dtype: object

>  <hbond:VAL:102>  (48) 
hbond:VAL:102    0
hbond:VAL:102    0
Name: 47, dtype: object

>  <hbond:GLY:103>  (48) 
hbond:GLY:103    0
hbond:GLY:103    0
Name: 47, dtype: object

>  <halogenbond:GLY:103>  (48) 
halogenbond:GLY:103    0
halogenbond:GLY:103    0
Name: 47, dtype: object

>  <hydroph_interaction:HIS:104>  (48) 
hydroph_interaction:HIS:104    0
hydroph_interaction:HIS:104    0
Name: 47, dtype: object

>  <hbond:HIS:104>  (48) 
hbond:HIS:104    0
hbond:HIS:104    0
Name: 47, dtype: object

>  <saltbridge:HIS:104>  (48) 
saltbridge:HIS:104    0
saltbridge:HIS:104    0
Name: 47, dtype: object

>  <pication:HIS:104>  (48) 
pication:HIS:104    0
pication:HIS:104    0
Name: 47, dtype: object

>  <pistack:HIS:104>  (48) 
pistack:HIS:104    0
pistack:HIS:104    0
Name: 47, dtype: object

>  <halogenbond:HIS:104>  (48) 
halogenbond:HIS:104    0
halogenbond:HIS:104    0
Name: 47, dtype: object

>  <hbond:SER:105>  (48) 
hbond:SER:105    0
hbond:SER:105    0
Name: 47, dtype: object

>  <halogenbond:SER:105>  (48) 
halogenbond:SER:105    0
halogenbond:SER:105    0
Name: 47, dtype: object

>  <hbond:GLU:106>  (48) 
hbond:GLU:106    0
hbond:GLU:106    0
Name: 47, dtype: object

>  <hydroph_interaction:GLU:106>  (48) 
hydroph_interaction:GLU:106    0
hydroph_interaction:GLU:106    0
Name: 47, dtype: object

>  <saltbridge:GLU:106>  (48) 
saltbridge:GLU:106    0
saltbridge:GLU:106    0
Name: 47, dtype: object

>  <halogenbond:GLU:106>  (48) 
halogenbond:GLU:106    0
halogenbond:GLU:106    0
Name: 47, dtype: object

>  <hydroph_interaction:PRO:107>  (48) 
hydroph_interaction:PRO:107    2
hydroph_interaction:PRO:107    2
Name: 47, dtype: object

>  <hbond:PRO:107>  (48) 
hbond:PRO:107    0
hbond:PRO:107    0
Name: 47, dtype: object

>  <halogenbond:PRO:107>  (48) 
halogenbond:PRO:107    0
halogenbond:PRO:107    0
Name: 47, dtype: object

>  <hbond:GLY:108>  (48) 
hbond:GLY:108    0
hbond:GLY:108    0
Name: 47, dtype: object

>  <halogenbond:GLY:108>  (48) 
halogenbond:GLY:108    0
halogenbond:GLY:108    0
Name: 47, dtype: object

>  <hbond:ASP:109>  (48) 
hbond:ASP:109    0
hbond:ASP:109    0
Name: 47, dtype: object

>  <hydroph_interaction:ASP:109>  (48) 
hydroph_interaction:ASP:109    0
hydroph_interaction:ASP:109    0
Name: 47, dtype: object

>  <saltbridge:ASP:109>  (48) 
saltbridge:ASP:109    0
saltbridge:ASP:109    0
Name: 47, dtype: object

>  <hbond:CYS:110>  (48) 
hbond:CYS:110    0
hbond:CYS:110    0
Name: 47, dtype: object

>  <halogenbond:CYS:110>  (48) 
halogenbond:CYS:110    0
halogenbond:CYS:110    0
Name: 47, dtype: object

>  <hbond:GLY:111>  (48) 
hbond:GLY:111    0
hbond:GLY:111    0
Name: 47, dtype: object

>  <hbond:GLY:112>  (48) 
hbond:GLY:112    0
hbond:GLY:112    0
Name: 47, dtype: object

>  <hbond:ILE:113>  (48) 
hbond:ILE:113    0
hbond:ILE:113    0
Name: 47, dtype: object

>  <hydroph_interaction:LEU:114>  (48) 
hydroph_interaction:LEU:114    0
hydroph_interaction:LEU:114    0
Name: 47, dtype: object

>  <hbond:LEU:114>  (48) 
hbond:LEU:114    0
hbond:LEU:114    0
Name: 47, dtype: object

>  <hydroph_interaction:ILE:123>  (48) 
hydroph_interaction:ILE:123    0
hydroph_interaction:ILE:123    0
Name: 47, dtype: object

>  <hbond:ILE:123>  (48) 
hbond:ILE:123    0
hbond:ILE:123    0
Name: 47, dtype: object

>  <hydroph_interaction:VAL:124>  (48) 
hydroph_interaction:VAL:124    0
hydroph_interaction:VAL:124    0
Name: 47, dtype: object

>  <hbond:VAL:124>  (48) 
hbond:VAL:124    0
hbond:VAL:124    0
Name: 47, dtype: object

>  <halogenbond:VAL:124>  (48) 
halogenbond:VAL:124    0
halogenbond:VAL:124    0
Name: 47, dtype: object

>  <hbond:SER:125>  (48) 
hbond:SER:125    0
hbond:SER:125    0
Name: 47, dtype: object

>  <halogenbond:SER:125>  (48) 
halogenbond:SER:125    0
halogenbond:SER:125    0
Name: 47, dtype: object

>  <hydroph_interaction:THR:126>  (48) 
hydroph_interaction:THR:126    0
hydroph_interaction:THR:126    0
Name: 47, dtype: object

>  <hbond:THR:126>  (48) 
hbond:THR:126    0
hbond:THR:126    0
Name: 47, dtype: object

>  <halogenbond:THR:126>  (48) 
halogenbond:THR:126    0
halogenbond:THR:126    0
Name: 47, dtype: object

>  <hbond:GLY:127>  (48) 
hbond:GLY:127    0
hbond:GLY:127    0
Name: 47, dtype: object

>  <halogenbond:GLY:127>  (48) 
halogenbond:GLY:127    0
halogenbond:GLY:127    0
Name: 47, dtype: object

>  <hydroph_interaction:GLY:127>  (48) 
hydroph_interaction:GLY:127    0
hydroph_interaction:GLY:127    0
Name: 47, dtype: object

>  <hbond:GLY:128>  (48) 
hbond:GLY:128    0
hbond:GLY:128    0
Name: 47, dtype: object

>  <halogenbond:GLY:128>  (48) 
halogenbond:GLY:128    0
halogenbond:GLY:128    0
Name: 47, dtype: object

>  <hydroph_interaction:GLY:128>  (48) 
hydroph_interaction:GLY:128    0
hydroph_interaction:GLY:128    0
Name: 47, dtype: object

>  <hbond:ASN:129>  (48) 
hbond:ASN:129    0
hbond:ASN:129    0
Name: 47, dtype: object

>  <hydroph_interaction:ASN:129>  (48) 
hydroph_interaction:ASN:129    0
hydroph_interaction:ASN:129    0
Name: 47, dtype: object

>  <halogenbond:ASN:129>  (48) 
halogenbond:ASN:129    0
halogenbond:ASN:129    0
Name: 47, dtype: object

>  <hbond:GLY:130>  (48) 
hbond:GLY:130    0
hbond:GLY:130    0
Name: 47, dtype: object

>  <hydroph_interaction:LEU:131>  (48) 
hydroph_interaction:LEU:131    0
hydroph_interaction:LEU:131    0
Name: 47, dtype: object

>  <hbond:LEU:131>  (48) 
hbond:LEU:131    0
hbond:LEU:131    0
Name: 47, dtype: object

>  <halogenbond:LEU:131>  (48) 
halogenbond:LEU:131    0
halogenbond:LEU:131    0
Name: 47, dtype: object

>  <hydroph_interaction:VAL:132>  (48) 
hydroph_interaction:VAL:132    0
hydroph_interaction:VAL:132    0
Name: 47, dtype: object

>  <hbond:VAL:132>  (48) 
hbond:VAL:132    0
hbond:VAL:132    0
Name: 47, dtype: object

>  <hbond:GLY:133>  (48) 
hbond:GLY:133    0
hbond:GLY:133    0
Name: 47, dtype: object

>  <halogenbond:GLY:133>  (48) 
halogenbond:GLY:133    0
halogenbond:GLY:133    0
Name: 47, dtype: object

>  <hydroph_interaction:PHE:134>  (48) 
hydroph_interaction:PHE:134    0
hydroph_interaction:PHE:134    0
Name: 47, dtype: object

>  <hbond:PHE:134>  (48) 
hbond:PHE:134    0
hbond:PHE:134    0
Name: 47, dtype: object

>  <pistack:PHE:134>  (48) 
pistack:PHE:134    0
pistack:PHE:134    0
Name: 47, dtype: object

>  <pication:PHE:134>  (48) 
pication:PHE:134    0
pication:PHE:134    0
Name: 47, dtype: object

>  <hydroph_interaction:ALA:135>  (48) 
hydroph_interaction:ALA:135    0
hydroph_interaction:ALA:135    0
Name: 47, dtype: object

>  <hbond:ALA:135>  (48) 
hbond:ALA:135    0
hbond:ALA:135    0
Name: 47, dtype: object

$$$$
PV_002845023535
     RDKit          3D

 25 26  0  0  0  0  0  0  0  0999 V2000
   12.1810   15.2700   21.9480 C   0  0  0  0  0  0  0  0  0  0  0  0
   11.4780   14.2180   22.7640 C   0  0  0  0  0  0  0  0  0  0  0  0
   11.9540   14.1190   24.1720 C   0  0  0  0  0  0  0  0  0  0  0  0
   10.5080   13.4180   22.3120 C   0  0  0  0  0  0  0  0  0  0  0  0
    9.8080   12.3690   23.0650 C   0  0  0  0  0  0  0  0  0  0  0  0
   10.0640   11.0040   22.8410 C   0  0  0  0  0  0  0  0  0  0  0  0
    9.4310    9.9450   23.5180 C   0  0  0  0  0  0  0  0  0  0  0  0
    8.4680   10.2460   24.4890 C   0  0  0  0  0  0  0  0  0  0  0  0
    8.2420   11.5990   24.6860 C   0  0  0  0  0  0  0  0  0  0  0  0
    8.8610   12.6310   24.0250 C   0  0  0  0  0  0  0  0  0  0  0  0
    8.3880   13.8280   24.4730 O   0  0  0  0  0  0  0  0  0  0  0  0
    7.2430   13.3760   25.2430 C   0  0  0  0  0  0  0  0  0  0  0  0
    7.3240   11.9920   25.6160 O   0  0  0  0  0  0  0  0  0  0  0  0
   11.5570   15.5650   21.0980 H   0  0  0  0  0  0  0  0  0  0  0  0
   12.3720   16.1590   22.5580 H   0  0  0  0  0  0  0  0  0  0  0  0
   13.1420   14.9400   21.5450 H   0  0  0  0  0  0  0  0  0  0  0  0
   11.1230   13.8470   24.8270 H   0  0  0  0  0  0  0  0  0  0  0  0
   12.3660   15.0810   24.5020 H   0  0  0  0  0  0  0  0  0  0  0  0
   12.7390   13.3650   24.2800 H   0  0  0  0  0  0  0  0  0  0  0  0
   10.1790   13.5240   21.2840 H   0  0  0  0  0  0  0  0  0  0  0  0
   10.7990   10.7390   22.0940 H   0  0  0  0  0  0  0  0  0  0  0  0
    9.7070    8.9450   23.2660 H   0  0  0  0  0  0  0  0  0  0  0  0
    7.9570    9.4680   25.0300 H   0  0  0  0  0  0  0  0  0  0  0  0
    7.1770   13.9760   26.1560 H   0  0  0  0  0  0  0  0  0  0  0  0
    6.3430   13.5140   24.6390 H   0  0  0  0  0  0  0  0  0  0  0  0
  1  2  1  0
  2  3  1  0
  2  4  2  3
  4  5  1  0
  5  6  2  0
  6  7  1  0
  7  8  2  0
  8  9  1  0
  9 10  2  0
 10 11  1  0
 11 12  1  0
 12 13  1  0
 10  5  1  0
 13  9  1  0
  1 14  1  0
  1 15  1  0
  1 16  1  0
  3 17  1  0
  3 18  1  0
  3 19  1  0
  4 20  1  0
  6 21  1  0
  7 22  1  0
  8 23  1  0
 12 24  1  0
 12 25  1  0
A    1
 C1 
A    2
 C2 
A    3
 C3 
A    4
 C4 
A    5
 C5 
A    6
 C6 
A    7
 C7 
A    8
 C8 
A    9
 C9 
A   10
 C10
A   11
 O1 
A   12
 C11
A   13
 O2 
A   14
 H1 
A   15
 H2 
A   16
 H3 
A   17
 H4 
A   18
 H5 
A   19
 H6 
A   20
 H7 
A   21
 H8 
A   22
 H9 
A   23
 H10
A   24
 H11
A   25
 H12
M  END
>  <ref_pdb>  (49) 
x0310_0A

>  <ref_mols>  (49) 
x0554_0A,x0739_0A

>  <original SMILES>  (49) 
CC(C)=Cc1cccc2c1OCO2

>  <rationale>  (49) 
info hydroph_interaction:P107; 

>  <intxn_cluster>  (49) 
208

>  <intxn_cluster_rank>  (49) 
228

>  <N_interactions>  (49) 
1

>  <∆∆G>  (49) 
-8.954585

>  <$/mg>  (49) 
163.0

>  <comRMSD>  (49) 
0.741018

>  <N_rotatable_bonds>  (49) 
3

>  <hbond:SER:7>  (49) 
hbond:SER:7    0
hbond:SER:7    0
Name: 48, dtype: object

>  <halogenbond:SER:7>  (49) 
halogenbond:SER:7    0
halogenbond:SER:7    0
Name: 48, dtype: object

>  <hbond:GLY:8>  (49) 
hbond:GLY:8    0
hbond:GLY:8    0
Name: 48, dtype: object

>  <hydroph_interaction:ASN:19>  (49) 
hydroph_interaction:ASN:19    0
hydroph_interaction:ASN:19    0
Name: 48, dtype: object

>  <hbond:ASN:19>  (49) 
hbond:ASN:19    0
hbond:ASN:19    0
Name: 48, dtype: object

>  <halogenbond:ASN:19>  (49) 
halogenbond:ASN:19    0
halogenbond:ASN:19    0
Name: 48, dtype: object

>  <hbond:ARG:20>  (49) 
hbond:ARG:20    0
hbond:ARG:20    0
Name: 48, dtype: object

>  <hydroph_interaction:ARG:20>  (49) 
hydroph_interaction:ARG:20    0
hydroph_interaction:ARG:20    0
Name: 48, dtype: object

>  <saltbridge:ARG:20>  (49) 
saltbridge:ARG:20    0
saltbridge:ARG:20    0
Name: 48, dtype: object

>  <halogenbond:ARG:20>  (49) 
halogenbond:ARG:20    0
halogenbond:ARG:20    0
Name: 48, dtype: object

>  <pication:ARG:20>  (49) 
pication:ARG:20    0
pication:ARG:20    0
Name: 48, dtype: object

>  <hbond:HIS:21>  (49) 
hbond:HIS:21    0
hbond:HIS:21    0
Name: 48, dtype: object

>  <hydroph_interaction:HIS:21>  (49) 
hydroph_interaction:HIS:21    0
hydroph_interaction:HIS:21    0
Name: 48, dtype: object

>  <saltbridge:HIS:21>  (49) 
saltbridge:HIS:21    0
saltbridge:HIS:21    0
Name: 48, dtype: object

>  <pistack:HIS:21>  (49) 
pistack:HIS:21    0
pistack:HIS:21    0
Name: 48, dtype: object

>  <pication:HIS:21>  (49) 
pication:HIS:21    0
pication:HIS:21    0
Name: 48, dtype: object

>  <halogenbond:HIS:21>  (49) 
halogenbond:HIS:21    0
halogenbond:HIS:21    0
Name: 48, dtype: object

>  <hydroph_interaction:LEU:22>  (49) 
hydroph_interaction:LEU:22    0
hydroph_interaction:LEU:22    0
Name: 48, dtype: object

>  <hbond:LEU:22>  (49) 
hbond:LEU:22    0
hbond:LEU:22    0
Name: 48, dtype: object

>  <hydroph_interaction:TRP:28>  (49) 
hydroph_interaction:TRP:28    0
hydroph_interaction:TRP:28    0
Name: 48, dtype: object

>  <hbond:SER:36>  (49) 
hbond:SER:36    0
hbond:SER:36    0
Name: 48, dtype: object

>  <halogenbond:SER:36>  (49) 
halogenbond:SER:36    0
halogenbond:SER:36    0
Name: 48, dtype: object

>  <hbond:ARG:38>  (49) 
hbond:ARG:38    0
hbond:ARG:38    0
Name: 48, dtype: object

>  <halogenbond:ARG:38>  (49) 
halogenbond:ARG:38    0
halogenbond:ARG:38    0
Name: 48, dtype: object

>  <hbond:ASP:39>  (49) 
hbond:ASP:39    0
hbond:ASP:39    0
Name: 48, dtype: object

>  <saltbridge:ASP:39>  (49) 
saltbridge:ASP:39    0
saltbridge:ASP:39    0
Name: 48, dtype: object

>  <hydroph_interaction:ASP:39>  (49) 
hydroph_interaction:ASP:39    0
hydroph_interaction:ASP:39    0
Name: 48, dtype: object

>  <halogenbond:ASP:39>  (49) 
halogenbond:ASP:39    0
halogenbond:ASP:39    0
Name: 48, dtype: object

>  <hydroph_interaction:LEU:40>  (49) 
hydroph_interaction:LEU:40    0
hydroph_interaction:LEU:40    0
Name: 48, dtype: object

>  <hydroph_interaction:TYR:63>  (49) 
hydroph_interaction:TYR:63    0
hydroph_interaction:TYR:63    0
Name: 48, dtype: object

>  <pistack:TYR:63>  (49) 
pistack:TYR:63    0
pistack:TYR:63    0
Name: 48, dtype: object

>  <hbond:TYR:63>  (49) 
hbond:TYR:63    0
hbond:TYR:63    0
Name: 48, dtype: object

>  <hbond:TYR:64>  (49) 
hbond:TYR:64    0
hbond:TYR:64    0
Name: 48, dtype: object

>  <halogenbond:TYR:64>  (49) 
halogenbond:TYR:64    0
halogenbond:TYR:64    0
Name: 48, dtype: object

>  <hydroph_interaction:TYR:64>  (49) 
hydroph_interaction:TYR:64    0
hydroph_interaction:TYR:64    0
Name: 48, dtype: object

>  <hbond:CYS:65>  (49) 
hbond:CYS:65    0
hbond:CYS:65    0
Name: 48, dtype: object

>  <halogenbond:CYS:65>  (49) 
halogenbond:CYS:65    0
halogenbond:CYS:65    0
Name: 48, dtype: object

>  <hbond:SER:66>  (49) 
hbond:SER:66    0
hbond:SER:66    0
Name: 48, dtype: object

>  <hbond:SER:67>  (49) 
hbond:SER:67    0
hbond:SER:67    0
Name: 48, dtype: object

>  <halogenbond:SER:67>  (49) 
halogenbond:SER:67    0
halogenbond:SER:67    0
Name: 48, dtype: object

>  <hydroph_interaction:ARG:68>  (49) 
hydroph_interaction:ARG:68    0
hydroph_interaction:ARG:68    0
Name: 48, dtype: object

>  <hbond:ARG:68>  (49) 
hbond:ARG:68    0
hbond:ARG:68    0
Name: 48, dtype: object

>  <saltbridge:ARG:68>  (49) 
saltbridge:ARG:68    0
saltbridge:ARG:68    0
Name: 48, dtype: object

>  <pication:ARG:68>  (49) 
pication:ARG:68    0
pication:ARG:68    0
Name: 48, dtype: object

>  <hydroph_interaction:TYR:72>  (49) 
hydroph_interaction:TYR:72    0
hydroph_interaction:TYR:72    0
Name: 48, dtype: object

>  <hydroph_interaction:VAL:74>  (49) 
hydroph_interaction:VAL:74    0
hydroph_interaction:VAL:74    0
Name: 48, dtype: object

>  <hydroph_interaction:PHE:76>  (49) 
hydroph_interaction:PHE:76    0
hydroph_interaction:PHE:76    0
Name: 48, dtype: object

>  <hbond:SER:77>  (49) 
hbond:SER:77    0
hbond:SER:77    0
Name: 48, dtype: object

>  <hbond:SER:80>  (49) 
hbond:SER:80    0
hbond:SER:80    0
Name: 48, dtype: object

>  <hbond:LEU:81>  (49) 
hbond:LEU:81    0
hbond:LEU:81    0
Name: 48, dtype: object

>  <halogenbond:LEU:81>  (49) 
halogenbond:LEU:81    0
halogenbond:LEU:81    0
Name: 48, dtype: object

>  <hydroph_interaction:LEU:81>  (49) 
hydroph_interaction:LEU:81    0
hydroph_interaction:LEU:81    0
Name: 48, dtype: object

>  <hydroph_interaction:ILE:82>  (49) 
hydroph_interaction:ILE:82    0
hydroph_interaction:ILE:82    0
Name: 48, dtype: object

>  <hbond:ILE:82>  (49) 
hbond:ILE:82    0
hbond:ILE:82    0
Name: 48, dtype: object

>  <hydroph_interaction:PHE:83>  (49) 
hydroph_interaction:PHE:83    0
hydroph_interaction:PHE:83    0
Name: 48, dtype: object

>  <hbond:PHE:83>  (49) 
hbond:PHE:83    0
hbond:PHE:83    0
Name: 48, dtype: object

>  <halogenbond:PHE:83>  (49) 
halogenbond:PHE:83    0
halogenbond:PHE:83    0
Name: 48, dtype: object

>  <pistack:PHE:83>  (49) 
pistack:PHE:83    0
pistack:PHE:83    0
Name: 48, dtype: object

>  <hydroph_interaction:VAL:84>  (49) 
hydroph_interaction:VAL:84    0
hydroph_interaction:VAL:84    0
Name: 48, dtype: object

>  <hbond:VAL:84>  (49) 
hbond:VAL:84    0
hbond:VAL:84    0
Name: 48, dtype: object

>  <halogenbond:VAL:84>  (49) 
halogenbond:VAL:84    0
halogenbond:VAL:84    0
Name: 48, dtype: object

>  <hydroph_interaction:GLU:85>  (49) 
hydroph_interaction:GLU:85    0
hydroph_interaction:GLU:85    0
Name: 48, dtype: object

>  <hbond:GLU:85>  (49) 
hbond:GLU:85    0
hbond:GLU:85    0
Name: 48, dtype: object

>  <saltbridge:GLU:85>  (49) 
saltbridge:GLU:85    0
saltbridge:GLU:85    0
Name: 48, dtype: object

>  <halogenbond:GLU:85>  (49) 
halogenbond:GLU:85    0
halogenbond:GLU:85    0
Name: 48, dtype: object

>  <hbond:ALA:86>  (49) 
hbond:ALA:86    0
hbond:ALA:86    0
Name: 48, dtype: object

>  <halogenbond:ALA:86>  (49) 
halogenbond:ALA:86    0
halogenbond:ALA:86    0
Name: 48, dtype: object

>  <hydroph_interaction:ALA:86>  (49) 
hydroph_interaction:ALA:86    0
hydroph_interaction:ALA:86    0
Name: 48, dtype: object

>  <hbond:SER:87>  (49) 
hbond:SER:87    0
hbond:SER:87    0
Name: 48, dtype: object

>  <halogenbond:SER:87>  (49) 
halogenbond:SER:87    0
halogenbond:SER:87    0
Name: 48, dtype: object

>  <hbond:GLU:88>  (49) 
hbond:GLU:88    0
hbond:GLU:88    0
Name: 48, dtype: object

>  <hydroph_interaction:GLU:88>  (49) 
hydroph_interaction:GLU:88    0
hydroph_interaction:GLU:88    0
Name: 48, dtype: object

>  <halogenbond:GLU:88>  (49) 
halogenbond:GLU:88    0
halogenbond:GLU:88    0
Name: 48, dtype: object

>  <saltbridge:GLU:88>  (49) 
saltbridge:GLU:88    0
saltbridge:GLU:88    0
Name: 48, dtype: object

>  <hydroph_interaction:TYR:89>  (49) 
hydroph_interaction:TYR:89    0
hydroph_interaction:TYR:89    0
Name: 48, dtype: object

>  <pistack:TYR:89>  (49) 
pistack:TYR:89    0
pistack:TYR:89    0
Name: 48, dtype: object

>  <hbond:TYR:89>  (49) 
hbond:TYR:89    0
hbond:TYR:89    0
Name: 48, dtype: object

>  <halogenbond:TYR:89>  (49) 
halogenbond:TYR:89    0
halogenbond:TYR:89    0
Name: 48, dtype: object

>  <hbond:TYR:90>  (49) 
hbond:TYR:90    0
hbond:TYR:90    0
Name: 48, dtype: object

>  <hydroph_interaction:TYR:90>  (49) 
hydroph_interaction:TYR:90    0
hydroph_interaction:TYR:90    0
Name: 48, dtype: object

>  <pistack:TYR:90>  (49) 
pistack:TYR:90    0
pistack:TYR:90    0
Name: 48, dtype: object

>  <halogenbond:TYR:90>  (49) 
halogenbond:TYR:90    0
halogenbond:TYR:90    0
Name: 48, dtype: object

>  <pication:TYR:90>  (49) 
pication:TYR:90    0
pication:TYR:90    0
Name: 48, dtype: object

>  <hydroph_interaction:PRO:91>  (49) 
hydroph_interaction:PRO:91    0
hydroph_interaction:PRO:91    0
Name: 48, dtype: object

>  <halogenbond:PRO:91>  (49) 
halogenbond:PRO:91    0
halogenbond:PRO:91    0
Name: 48, dtype: object

>  <hbond:PRO:91>  (49) 
hbond:PRO:91    0
hbond:PRO:91    0
Name: 48, dtype: object

>  <hydroph_interaction:ALA:92>  (49) 
hydroph_interaction:ALA:92    0
hydroph_interaction:ALA:92    0
Name: 48, dtype: object

>  <hbond:ARG:93>  (49) 
hbond:ARG:93    0
hbond:ARG:93    0
Name: 48, dtype: object

>  <pication:ARG:93>  (49) 
pication:ARG:93    0
pication:ARG:93    0
Name: 48, dtype: object

>  <saltbridge:ARG:93>  (49) 
saltbridge:ARG:93    0
saltbridge:ARG:93    0
Name: 48, dtype: object

>  <hydroph_interaction:ARG:93>  (49) 
hydroph_interaction:ARG:93    0
hydroph_interaction:ARG:93    0
Name: 48, dtype: object

>  <halogenbond:ARG:93>  (49) 
halogenbond:ARG:93    0
halogenbond:ARG:93    0
Name: 48, dtype: object

>  <hydroph_interaction:TYR:94>  (49) 
hydroph_interaction:TYR:94    0
hydroph_interaction:TYR:94    0
Name: 48, dtype: object

>  <hbond:TYR:94>  (49) 
hbond:TYR:94    0
hbond:TYR:94    0
Name: 48, dtype: object

>  <halogenbond:GLN:95>  (49) 
halogenbond:GLN:95    0
halogenbond:GLN:95    0
Name: 48, dtype: object

>  <hbond:GLN:95>  (49) 
hbond:GLN:95    0
hbond:GLN:95    0
Name: 48, dtype: object

>  <hydroph_interaction:GLN:95>  (49) 
hydroph_interaction:GLN:95    0
hydroph_interaction:GLN:95    0
Name: 48, dtype: object

>  <hbond:SER:96>  (49) 
hbond:SER:96    0
hbond:SER:96    0
Name: 48, dtype: object

>  <hydroph_interaction:LEU:98>  (49) 
hydroph_interaction:LEU:98    0
hydroph_interaction:LEU:98    0
Name: 48, dtype: object

>  <hbond:LEU:98>  (49) 
hbond:LEU:98    0
hbond:LEU:98    0
Name: 48, dtype: object

>  <hbond:MET:99>  (49) 
hbond:MET:99    0
hbond:MET:99    0
Name: 48, dtype: object

>  <hydroph_interaction:MET:99>  (49) 
hydroph_interaction:MET:99    0
hydroph_interaction:MET:99    0
Name: 48, dtype: object

>  <halogenbond:MET:99>  (49) 
halogenbond:MET:99    0
halogenbond:MET:99    0
Name: 48, dtype: object

>  <hydroph_interaction:LEU:100>  (49) 
hydroph_interaction:LEU:100    0
hydroph_interaction:LEU:100    0
Name: 48, dtype: object

>  <hbond:LEU:100>  (49) 
hbond:LEU:100    0
hbond:LEU:100    0
Name: 48, dtype: object

>  <hbond:ALA:101>  (49) 
hbond:ALA:101    0
hbond:ALA:101    0
Name: 48, dtype: object

>  <hydroph_interaction:ALA:101>  (49) 
hydroph_interaction:ALA:101    0
hydroph_interaction:ALA:101    0
Name: 48, dtype: object

>  <hydroph_interaction:VAL:102>  (49) 
hydroph_interaction:VAL:102    0
hydroph_interaction:VAL:102    0
Name: 48, dtype: object

>  <hbond:VAL:102>  (49) 
hbond:VAL:102    0
hbond:VAL:102    0
Name: 48, dtype: object

>  <hbond:GLY:103>  (49) 
hbond:GLY:103    0
hbond:GLY:103    0
Name: 48, dtype: object

>  <halogenbond:GLY:103>  (49) 
halogenbond:GLY:103    0
halogenbond:GLY:103    0
Name: 48, dtype: object

>  <hydroph_interaction:HIS:104>  (49) 
hydroph_interaction:HIS:104    0
hydroph_interaction:HIS:104    0
Name: 48, dtype: object

>  <hbond:HIS:104>  (49) 
hbond:HIS:104    0
hbond:HIS:104    0
Name: 48, dtype: object

>  <saltbridge:HIS:104>  (49) 
saltbridge:HIS:104    0
saltbridge:HIS:104    0
Name: 48, dtype: object

>  <pication:HIS:104>  (49) 
pication:HIS:104    0
pication:HIS:104    0
Name: 48, dtype: object

>  <pistack:HIS:104>  (49) 
pistack:HIS:104    0
pistack:HIS:104    0
Name: 48, dtype: object

>  <halogenbond:HIS:104>  (49) 
halogenbond:HIS:104    0
halogenbond:HIS:104    0
Name: 48, dtype: object

>  <hbond:SER:105>  (49) 
hbond:SER:105    0
hbond:SER:105    0
Name: 48, dtype: object

>  <halogenbond:SER:105>  (49) 
halogenbond:SER:105    0
halogenbond:SER:105    0
Name: 48, dtype: object

>  <hbond:GLU:106>  (49) 
hbond:GLU:106    0
hbond:GLU:106    0
Name: 48, dtype: object

>  <hydroph_interaction:GLU:106>  (49) 
hydroph_interaction:GLU:106    0
hydroph_interaction:GLU:106    0
Name: 48, dtype: object

>  <saltbridge:GLU:106>  (49) 
saltbridge:GLU:106    0
saltbridge:GLU:106    0
Name: 48, dtype: object

>  <halogenbond:GLU:106>  (49) 
halogenbond:GLU:106    0
halogenbond:GLU:106    0
Name: 48, dtype: object

>  <hydroph_interaction:PRO:107>  (49) 
hydroph_interaction:PRO:107    1
hydroph_interaction:PRO:107    1
Name: 48, dtype: object

>  <hbond:PRO:107>  (49) 
hbond:PRO:107    0
hbond:PRO:107    0
Name: 48, dtype: object

>  <halogenbond:PRO:107>  (49) 
halogenbond:PRO:107    0
halogenbond:PRO:107    0
Name: 48, dtype: object

>  <hbond:GLY:108>  (49) 
hbond:GLY:108    0
hbond:GLY:108    0
Name: 48, dtype: object

>  <halogenbond:GLY:108>  (49) 
halogenbond:GLY:108    0
halogenbond:GLY:108    0
Name: 48, dtype: object

>  <hbond:ASP:109>  (49) 
hbond:ASP:109    0
hbond:ASP:109    0
Name: 48, dtype: object

>  <hydroph_interaction:ASP:109>  (49) 
hydroph_interaction:ASP:109    0
hydroph_interaction:ASP:109    0
Name: 48, dtype: object

>  <saltbridge:ASP:109>  (49) 
saltbridge:ASP:109    0
saltbridge:ASP:109    0
Name: 48, dtype: object

>  <hbond:CYS:110>  (49) 
hbond:CYS:110    0
hbond:CYS:110    0
Name: 48, dtype: object

>  <halogenbond:CYS:110>  (49) 
halogenbond:CYS:110    0
halogenbond:CYS:110    0
Name: 48, dtype: object

>  <hbond:GLY:111>  (49) 
hbond:GLY:111    0
hbond:GLY:111    0
Name: 48, dtype: object

>  <hbond:GLY:112>  (49) 
hbond:GLY:112    0
hbond:GLY:112    0
Name: 48, dtype: object

>  <hbond:ILE:113>  (49) 
hbond:ILE:113    0
hbond:ILE:113    0
Name: 48, dtype: object

>  <hydroph_interaction:LEU:114>  (49) 
hydroph_interaction:LEU:114    0
hydroph_interaction:LEU:114    0
Name: 48, dtype: object

>  <hbond:LEU:114>  (49) 
hbond:LEU:114    0
hbond:LEU:114    0
Name: 48, dtype: object

>  <hydroph_interaction:ILE:123>  (49) 
hydroph_interaction:ILE:123    0
hydroph_interaction:ILE:123    0
Name: 48, dtype: object

>  <hbond:ILE:123>  (49) 
hbond:ILE:123    0
hbond:ILE:123    0
Name: 48, dtype: object

>  <hydroph_interaction:VAL:124>  (49) 
hydroph_interaction:VAL:124    0
hydroph_interaction:VAL:124    0
Name: 48, dtype: object

>  <hbond:VAL:124>  (49) 
hbond:VAL:124    0
hbond:VAL:124    0
Name: 48, dtype: object

>  <halogenbond:VAL:124>  (49) 
halogenbond:VAL:124    0
halogenbond:VAL:124    0
Name: 48, dtype: object

>  <hbond:SER:125>  (49) 
hbond:SER:125    0
hbond:SER:125    0
Name: 48, dtype: object

>  <halogenbond:SER:125>  (49) 
halogenbond:SER:125    0
halogenbond:SER:125    0
Name: 48, dtype: object

>  <hydroph_interaction:THR:126>  (49) 
hydroph_interaction:THR:126    0
hydroph_interaction:THR:126    0
Name: 48, dtype: object

>  <hbond:THR:126>  (49) 
hbond:THR:126    0
hbond:THR:126    0
Name: 48, dtype: object

>  <halogenbond:THR:126>  (49) 
halogenbond:THR:126    0
halogenbond:THR:126    0
Name: 48, dtype: object

>  <hbond:GLY:127>  (49) 
hbond:GLY:127    0
hbond:GLY:127    0
Name: 48, dtype: object

>  <halogenbond:GLY:127>  (49) 
halogenbond:GLY:127    0
halogenbond:GLY:127    0
Name: 48, dtype: object

>  <hydroph_interaction:GLY:127>  (49) 
hydroph_interaction:GLY:127    0
hydroph_interaction:GLY:127    0
Name: 48, dtype: object

>  <hbond:GLY:128>  (49) 
hbond:GLY:128    0
hbond:GLY:128    0
Name: 48, dtype: object

>  <halogenbond:GLY:128>  (49) 
halogenbond:GLY:128    0
halogenbond:GLY:128    0
Name: 48, dtype: object

>  <hydroph_interaction:GLY:128>  (49) 
hydroph_interaction:GLY:128    0
hydroph_interaction:GLY:128    0
Name: 48, dtype: object

>  <hbond:ASN:129>  (49) 
hbond:ASN:129    0
hbond:ASN:129    0
Name: 48, dtype: object

>  <hydroph_interaction:ASN:129>  (49) 
hydroph_interaction:ASN:129    0
hydroph_interaction:ASN:129    0
Name: 48, dtype: object

>  <halogenbond:ASN:129>  (49) 
halogenbond:ASN:129    0
halogenbond:ASN:129    0
Name: 48, dtype: object

>  <hbond:GLY:130>  (49) 
hbond:GLY:130    0
hbond:GLY:130    0
Name: 48, dtype: object

>  <hydroph_interaction:LEU:131>  (49) 
hydroph_interaction:LEU:131    0
hydroph_interaction:LEU:131    0
Name: 48, dtype: object

>  <hbond:LEU:131>  (49) 
hbond:LEU:131    0
hbond:LEU:131    0
Name: 48, dtype: object

>  <halogenbond:LEU:131>  (49) 
halogenbond:LEU:131    0
halogenbond:LEU:131    0
Name: 48, dtype: object

>  <hydroph_interaction:VAL:132>  (49) 
hydroph_interaction:VAL:132    0
hydroph_interaction:VAL:132    0
Name: 48, dtype: object

>  <hbond:VAL:132>  (49) 
hbond:VAL:132    0
hbond:VAL:132    0
Name: 48, dtype: object

>  <hbond:GLY:133>  (49) 
hbond:GLY:133    0
hbond:GLY:133    0
Name: 48, dtype: object

>  <halogenbond:GLY:133>  (49) 
halogenbond:GLY:133    0
halogenbond:GLY:133    0
Name: 48, dtype: object

>  <hydroph_interaction:PHE:134>  (49) 
hydroph_interaction:PHE:134    0
hydroph_interaction:PHE:134    0
Name: 48, dtype: object

>  <hbond:PHE:134>  (49) 
hbond:PHE:134    0
hbond:PHE:134    0
Name: 48, dtype: object

>  <pistack:PHE:134>  (49) 
pistack:PHE:134    0
pistack:PHE:134    0
Name: 48, dtype: object

>  <pication:PHE:134>  (49) 
pication:PHE:134    0
pication:PHE:134    0
Name: 48, dtype: object

>  <hydroph_interaction:ALA:135>  (49) 
hydroph_interaction:ALA:135    0
hydroph_interaction:ALA:135    0
Name: 48, dtype: object

>  <hbond:ALA:135>  (49) 
hbond:ALA:135    0
hbond:ALA:135    0
Name: 48, dtype: object

$$$$
PV_002916070027
     RDKit          3D

 24 25  0  0  0  0  0  0  0  0999 V2000
   11.9990   15.1560   21.8730 C   0  0  0  0  0  0  0  0  0  0  0  0
   11.4380   14.1480   22.8160 C   0  0  0  0  0  0  0  0  0  0  0  0
   12.0190   14.1540   24.1760 C   0  0  0  0  0  0  0  0  0  0  0  0
   10.4670   13.3210   22.3900 C   0  0  0  0  0  0  0  0  0  0  0  0
    9.8000   12.2930   23.0780 C   0  0  0  0  0  0  0  0  0  0  0  0
   10.1420   10.8730   22.7930 C   0  0  0  0  0  0  0  0  0  0  0  0
    9.5240    9.8280   23.4330 C   0  0  0  0  0  0  0  0  0  0  0  0
    8.4790   10.1850   24.4380 C   0  0  0  0  0  0  0  0  0  0  0  0
    8.1710   11.5080   24.6890 C   0  0  0  0  0  0  0  0  0  0  0  0
    8.7990   12.5800   24.0400 C   0  0  0  0  0  0  0  0  0  0  0  0
    8.3400   13.8310   24.4390 N   0  0  0  0  0  0  0  0  0  0  0  0
    7.4030   13.6950   25.3480 C   0  0  0  0  0  0  0  0  0  0  0  0
    7.0000   12.1020   25.7990 S   0  0  0  0  0  0  0  0  0  0  0  0
   11.2170   15.4760   21.1830 H   0  0  0  0  0  0  0  0  0  0  0  0
   12.3630   16.0350   22.4170 H   0  0  0  0  0  0  0  0  0  0  0  0
   12.8120   14.7030   21.2990 H   0  0  0  0  0  0  0  0  0  0  0  0
   12.8660   13.5040   24.3750 H   0  0  0  0  0  0  0  0  0  0  0  0
   11.2600   13.9310   24.9270 H   0  0  0  0  0  0  0  0  0  0  0  0
   12.3520   15.1740   24.4020 H   0  0  0  0  0  0  0  0  0  0  0  0
   10.1270   13.4370   21.3670 H   0  0  0  0  0  0  0  0  0  0  0  0
   10.9100   10.7310   22.0440 H   0  0  0  0  0  0  0  0  0  0  0  0
    9.7930    8.8110   23.2070 H   0  0  0  0  0  0  0  0  0  0  0  0
    7.9600    9.4080   24.9700 H   0  0  0  0  0  0  0  0  0  0  0  0
    6.9090   14.5500   25.7900 H   0  0  0  0  0  0  0  0  0  0  0  0
  1  2  1  0
  2  3  1  0
  2  4  2  3
  4  5  1  0
  5  6  2  0
  6  7  1  0
  7  8  2  0
  8  9  1  0
  9 10  2  0
 10 11  1  0
 11 12  2  0
 12 13  1  0
 10  5  1  0
 13  9  1  0
  1 14  1  0
  1 15  1  0
  1 16  1  0
  3 17  1  0
  3 18  1  0
  3 19  1  0
  4 20  1  0
  6 21  1  0
  7 22  1  0
  8 23  1  0
 12 24  1  0
A    1
 C1 
A    2
 C2 
A    3
 C3 
A    4
 C4 
A    5
 C5 
A    6
 C6 
A    7
 C7 
A    8
 C8 
A    9
 C9 
A   10
 C10
A   11
 N1 
A   12
 C11
A   13
 S1 
A   14
 H1 
A   15
 H2 
A   16
 H3 
A   17
 H4 
A   18
 H5 
A   19
 H6 
A   20
 H7 
A   21
 H8 
A   22
 H9 
A   23
 H10
A   24
 H11
M  END
>  <ref_pdb>  (50) 
x0310_0A

>  <ref_mols>  (50) 
x0554_0A,x0739_0A

>  <original SMILES>  (50) 
CC(C)=Cc1cccc2scnc12

>  <rationale>  (50) 
info hydroph_interaction:P107; 

>  <intxn_cluster>  (50) 
208

>  <intxn_cluster_rank>  (50) 
229

>  <N_interactions>  (50) 
1

>  <∆∆G>  (50) 
-9.437049

>  <$/mg>  (50) 
163.0

>  <comRMSD>  (50) 
0.72226

>  <N_rotatable_bonds>  (50) 
3

>  <hbond:SER:7>  (50) 
hbond:SER:7    0
hbond:SER:7    0
Name: 49, dtype: object

>  <halogenbond:SER:7>  (50) 
halogenbond:SER:7    0
halogenbond:SER:7    0
Name: 49, dtype: object

>  <hbond:GLY:8>  (50) 
hbond:GLY:8    0
hbond:GLY:8    0
Name: 49, dtype: object

>  <hydroph_interaction:ASN:19>  (50) 
hydroph_interaction:ASN:19    0
hydroph_interaction:ASN:19    0
Name: 49, dtype: object

>  <hbond:ASN:19>  (50) 
hbond:ASN:19    0
hbond:ASN:19    0
Name: 49, dtype: object

>  <halogenbond:ASN:19>  (50) 
halogenbond:ASN:19    0
halogenbond:ASN:19    0
Name: 49, dtype: object

>  <hbond:ARG:20>  (50) 
hbond:ARG:20    0
hbond:ARG:20    0
Name: 49, dtype: object

>  <hydroph_interaction:ARG:20>  (50) 
hydroph_interaction:ARG:20    0
hydroph_interaction:ARG:20    0
Name: 49, dtype: object

>  <saltbridge:ARG:20>  (50) 
saltbridge:ARG:20    0
saltbridge:ARG:20    0
Name: 49, dtype: object

>  <halogenbond:ARG:20>  (50) 
halogenbond:ARG:20    0
halogenbond:ARG:20    0
Name: 49, dtype: object

>  <pication:ARG:20>  (50) 
pication:ARG:20    0
pication:ARG:20    0
Name: 49, dtype: object

>  <hbond:HIS:21>  (50) 
hbond:HIS:21    0
hbond:HIS:21    0
Name: 49, dtype: object

>  <hydroph_interaction:HIS:21>  (50) 
hydroph_interaction:HIS:21    0
hydroph_interaction:HIS:21    0
Name: 49, dtype: object

>  <saltbridge:HIS:21>  (50) 
saltbridge:HIS:21    0
saltbridge:HIS:21    0
Name: 49, dtype: object

>  <pistack:HIS:21>  (50) 
pistack:HIS:21    0
pistack:HIS:21    0
Name: 49, dtype: object

>  <pication:HIS:21>  (50) 
pication:HIS:21    0
pication:HIS:21    0
Name: 49, dtype: object

>  <halogenbond:HIS:21>  (50) 
halogenbond:HIS:21    0
halogenbond:HIS:21    0
Name: 49, dtype: object

>  <hydroph_interaction:LEU:22>  (50) 
hydroph_interaction:LEU:22    0
hydroph_interaction:LEU:22    0
Name: 49, dtype: object

>  <hbond:LEU:22>  (50) 
hbond:LEU:22    0
hbond:LEU:22    0
Name: 49, dtype: object

>  <hydroph_interaction:TRP:28>  (50) 
hydroph_interaction:TRP:28    0
hydroph_interaction:TRP:28    0
Name: 49, dtype: object

>  <hbond:SER:36>  (50) 
hbond:SER:36    0
hbond:SER:36    0
Name: 49, dtype: object

>  <halogenbond:SER:36>  (50) 
halogenbond:SER:36    0
halogenbond:SER:36    0
Name: 49, dtype: object

>  <hbond:ARG:38>  (50) 
hbond:ARG:38    0
hbond:ARG:38    0
Name: 49, dtype: object

>  <halogenbond:ARG:38>  (50) 
halogenbond:ARG:38    0
halogenbond:ARG:38    0
Name: 49, dtype: object

>  <hbond:ASP:39>  (50) 
hbond:ASP:39    0
hbond:ASP:39    0
Name: 49, dtype: object

>  <saltbridge:ASP:39>  (50) 
saltbridge:ASP:39    0
saltbridge:ASP:39    0
Name: 49, dtype: object

>  <hydroph_interaction:ASP:39>  (50) 
hydroph_interaction:ASP:39    0
hydroph_interaction:ASP:39    0
Name: 49, dtype: object

>  <halogenbond:ASP:39>  (50) 
halogenbond:ASP:39    0
halogenbond:ASP:39    0
Name: 49, dtype: object

>  <hydroph_interaction:LEU:40>  (50) 
hydroph_interaction:LEU:40    0
hydroph_interaction:LEU:40    0
Name: 49, dtype: object

>  <hydroph_interaction:TYR:63>  (50) 
hydroph_interaction:TYR:63    0
hydroph_interaction:TYR:63    0
Name: 49, dtype: object

>  <pistack:TYR:63>  (50) 
pistack:TYR:63    0
pistack:TYR:63    0
Name: 49, dtype: object

>  <hbond:TYR:63>  (50) 
hbond:TYR:63    0
hbond:TYR:63    0
Name: 49, dtype: object

>  <hbond:TYR:64>  (50) 
hbond:TYR:64    0
hbond:TYR:64    0
Name: 49, dtype: object

>  <halogenbond:TYR:64>  (50) 
halogenbond:TYR:64    0
halogenbond:TYR:64    0
Name: 49, dtype: object

>  <hydroph_interaction:TYR:64>  (50) 
hydroph_interaction:TYR:64    0
hydroph_interaction:TYR:64    0
Name: 49, dtype: object

>  <hbond:CYS:65>  (50) 
hbond:CYS:65    0
hbond:CYS:65    0
Name: 49, dtype: object

>  <halogenbond:CYS:65>  (50) 
halogenbond:CYS:65    0
halogenbond:CYS:65    0
Name: 49, dtype: object

>  <hbond:SER:66>  (50) 
hbond:SER:66    0
hbond:SER:66    0
Name: 49, dtype: object

>  <hbond:SER:67>  (50) 
hbond:SER:67    0
hbond:SER:67    0
Name: 49, dtype: object

>  <halogenbond:SER:67>  (50) 
halogenbond:SER:67    0
halogenbond:SER:67    0
Name: 49, dtype: object

>  <hydroph_interaction:ARG:68>  (50) 
hydroph_interaction:ARG:68    0
hydroph_interaction:ARG:68    0
Name: 49, dtype: object

>  <hbond:ARG:68>  (50) 
hbond:ARG:68    0
hbond:ARG:68    0
Name: 49, dtype: object

>  <saltbridge:ARG:68>  (50) 
saltbridge:ARG:68    0
saltbridge:ARG:68    0
Name: 49, dtype: object

>  <pication:ARG:68>  (50) 
pication:ARG:68    0
pication:ARG:68    0
Name: 49, dtype: object

>  <hydroph_interaction:TYR:72>  (50) 
hydroph_interaction:TYR:72    0
hydroph_interaction:TYR:72    0
Name: 49, dtype: object

>  <hydroph_interaction:VAL:74>  (50) 
hydroph_interaction:VAL:74    0
hydroph_interaction:VAL:74    0
Name: 49, dtype: object

>  <hydroph_interaction:PHE:76>  (50) 
hydroph_interaction:PHE:76    0
hydroph_interaction:PHE:76    0
Name: 49, dtype: object

>  <hbond:SER:77>  (50) 
hbond:SER:77    0
hbond:SER:77    0
Name: 49, dtype: object

>  <hbond:SER:80>  (50) 
hbond:SER:80    0
hbond:SER:80    0
Name: 49, dtype: object

>  <hbond:LEU:81>  (50) 
hbond:LEU:81    0
hbond:LEU:81    0
Name: 49, dtype: object

>  <halogenbond:LEU:81>  (50) 
halogenbond:LEU:81    0
halogenbond:LEU:81    0
Name: 49, dtype: object

>  <hydroph_interaction:LEU:81>  (50) 
hydroph_interaction:LEU:81    0
hydroph_interaction:LEU:81    0
Name: 49, dtype: object

>  <hydroph_interaction:ILE:82>  (50) 
hydroph_interaction:ILE:82    0
hydroph_interaction:ILE:82    0
Name: 49, dtype: object

>  <hbond:ILE:82>  (50) 
hbond:ILE:82    0
hbond:ILE:82    0
Name: 49, dtype: object

>  <hydroph_interaction:PHE:83>  (50) 
hydroph_interaction:PHE:83    0
hydroph_interaction:PHE:83    0
Name: 49, dtype: object

>  <hbond:PHE:83>  (50) 
hbond:PHE:83    0
hbond:PHE:83    0
Name: 49, dtype: object

>  <halogenbond:PHE:83>  (50) 
halogenbond:PHE:83    0
halogenbond:PHE:83    0
Name: 49, dtype: object

>  <pistack:PHE:83>  (50) 
pistack:PHE:83    0
pistack:PHE:83    0
Name: 49, dtype: object

>  <hydroph_interaction:VAL:84>  (50) 
hydroph_interaction:VAL:84    0
hydroph_interaction:VAL:84    0
Name: 49, dtype: object

>  <hbond:VAL:84>  (50) 
hbond:VAL:84    0
hbond:VAL:84    0
Name: 49, dtype: object

>  <halogenbond:VAL:84>  (50) 
halogenbond:VAL:84    0
halogenbond:VAL:84    0
Name: 49, dtype: object

>  <hydroph_interaction:GLU:85>  (50) 
hydroph_interaction:GLU:85    0
hydroph_interaction:GLU:85    0
Name: 49, dtype: object

>  <hbond:GLU:85>  (50) 
hbond:GLU:85    0
hbond:GLU:85    0
Name: 49, dtype: object

>  <saltbridge:GLU:85>  (50) 
saltbridge:GLU:85    0
saltbridge:GLU:85    0
Name: 49, dtype: object

>  <halogenbond:GLU:85>  (50) 
halogenbond:GLU:85    0
halogenbond:GLU:85    0
Name: 49, dtype: object

>  <hbond:ALA:86>  (50) 
hbond:ALA:86    0
hbond:ALA:86    0
Name: 49, dtype: object

>  <halogenbond:ALA:86>  (50) 
halogenbond:ALA:86    0
halogenbond:ALA:86    0
Name: 49, dtype: object

>  <hydroph_interaction:ALA:86>  (50) 
hydroph_interaction:ALA:86    0
hydroph_interaction:ALA:86    0
Name: 49, dtype: object

>  <hbond:SER:87>  (50) 
hbond:SER:87    0
hbond:SER:87    0
Name: 49, dtype: object

>  <halogenbond:SER:87>  (50) 
halogenbond:SER:87    0
halogenbond:SER:87    0
Name: 49, dtype: object

>  <hbond:GLU:88>  (50) 
hbond:GLU:88    0
hbond:GLU:88    0
Name: 49, dtype: object

>  <hydroph_interaction:GLU:88>  (50) 
hydroph_interaction:GLU:88    0
hydroph_interaction:GLU:88    0
Name: 49, dtype: object

>  <halogenbond:GLU:88>  (50) 
halogenbond:GLU:88    0
halogenbond:GLU:88    0
Name: 49, dtype: object

>  <saltbridge:GLU:88>  (50) 
saltbridge:GLU:88    0
saltbridge:GLU:88    0
Name: 49, dtype: object

>  <hydroph_interaction:TYR:89>  (50) 
hydroph_interaction:TYR:89    0
hydroph_interaction:TYR:89    0
Name: 49, dtype: object

>  <pistack:TYR:89>  (50) 
pistack:TYR:89    0
pistack:TYR:89    0
Name: 49, dtype: object

>  <hbond:TYR:89>  (50) 
hbond:TYR:89    0
hbond:TYR:89    0
Name: 49, dtype: object

>  <halogenbond:TYR:89>  (50) 
halogenbond:TYR:89    0
halogenbond:TYR:89    0
Name: 49, dtype: object

>  <hbond:TYR:90>  (50) 
hbond:TYR:90    0
hbond:TYR:90    0
Name: 49, dtype: object

>  <hydroph_interaction:TYR:90>  (50) 
hydroph_interaction:TYR:90    0
hydroph_interaction:TYR:90    0
Name: 49, dtype: object

>  <pistack:TYR:90>  (50) 
pistack:TYR:90    0
pistack:TYR:90    0
Name: 49, dtype: object

>  <halogenbond:TYR:90>  (50) 
halogenbond:TYR:90    0
halogenbond:TYR:90    0
Name: 49, dtype: object

>  <pication:TYR:90>  (50) 
pication:TYR:90    0
pication:TYR:90    0
Name: 49, dtype: object

>  <hydroph_interaction:PRO:91>  (50) 
hydroph_interaction:PRO:91    0
hydroph_interaction:PRO:91    0
Name: 49, dtype: object

>  <halogenbond:PRO:91>  (50) 
halogenbond:PRO:91    0
halogenbond:PRO:91    0
Name: 49, dtype: object

>  <hbond:PRO:91>  (50) 
hbond:PRO:91    0
hbond:PRO:91    0
Name: 49, dtype: object

>  <hydroph_interaction:ALA:92>  (50) 
hydroph_interaction:ALA:92    0
hydroph_interaction:ALA:92    0
Name: 49, dtype: object

>  <hbond:ARG:93>  (50) 
hbond:ARG:93    0
hbond:ARG:93    0
Name: 49, dtype: object

>  <pication:ARG:93>  (50) 
pication:ARG:93    0
pication:ARG:93    0
Name: 49, dtype: object

>  <saltbridge:ARG:93>  (50) 
saltbridge:ARG:93    0
saltbridge:ARG:93    0
Name: 49, dtype: object

>  <hydroph_interaction:ARG:93>  (50) 
hydroph_interaction:ARG:93    0
hydroph_interaction:ARG:93    0
Name: 49, dtype: object

>  <halogenbond:ARG:93>  (50) 
halogenbond:ARG:93    0
halogenbond:ARG:93    0
Name: 49, dtype: object

>  <hydroph_interaction:TYR:94>  (50) 
hydroph_interaction:TYR:94    0
hydroph_interaction:TYR:94    0
Name: 49, dtype: object

>  <hbond:TYR:94>  (50) 
hbond:TYR:94    0
hbond:TYR:94    0
Name: 49, dtype: object

>  <halogenbond:GLN:95>  (50) 
halogenbond:GLN:95    0
halogenbond:GLN:95    0
Name: 49, dtype: object

>  <hbond:GLN:95>  (50) 
hbond:GLN:95    0
hbond:GLN:95    0
Name: 49, dtype: object

>  <hydroph_interaction:GLN:95>  (50) 
hydroph_interaction:GLN:95    0
hydroph_interaction:GLN:95    0
Name: 49, dtype: object

>  <hbond:SER:96>  (50) 
hbond:SER:96    0
hbond:SER:96    0
Name: 49, dtype: object

>  <hydroph_interaction:LEU:98>  (50) 
hydroph_interaction:LEU:98    0
hydroph_interaction:LEU:98    0
Name: 49, dtype: object

>  <hbond:LEU:98>  (50) 
hbond:LEU:98    0
hbond:LEU:98    0
Name: 49, dtype: object

>  <hbond:MET:99>  (50) 
hbond:MET:99    0
hbond:MET:99    0
Name: 49, dtype: object

>  <hydroph_interaction:MET:99>  (50) 
hydroph_interaction:MET:99    0
hydroph_interaction:MET:99    0
Name: 49, dtype: object

>  <halogenbond:MET:99>  (50) 
halogenbond:MET:99    0
halogenbond:MET:99    0
Name: 49, dtype: object

>  <hydroph_interaction:LEU:100>  (50) 
hydroph_interaction:LEU:100    0
hydroph_interaction:LEU:100    0
Name: 49, dtype: object

>  <hbond:LEU:100>  (50) 
hbond:LEU:100    0
hbond:LEU:100    0
Name: 49, dtype: object

>  <hbond:ALA:101>  (50) 
hbond:ALA:101    0
hbond:ALA:101    0
Name: 49, dtype: object

>  <hydroph_interaction:ALA:101>  (50) 
hydroph_interaction:ALA:101    0
hydroph_interaction:ALA:101    0
Name: 49, dtype: object

>  <hydroph_interaction:VAL:102>  (50) 
hydroph_interaction:VAL:102    0
hydroph_interaction:VAL:102    0
Name: 49, dtype: object

>  <hbond:VAL:102>  (50) 
hbond:VAL:102    0
hbond:VAL:102    0
Name: 49, dtype: object

>  <hbond:GLY:103>  (50) 
hbond:GLY:103    0
hbond:GLY:103    0
Name: 49, dtype: object

>  <halogenbond:GLY:103>  (50) 
halogenbond:GLY:103    0
halogenbond:GLY:103    0
Name: 49, dtype: object

>  <hydroph_interaction:HIS:104>  (50) 
hydroph_interaction:HIS:104    0
hydroph_interaction:HIS:104    0
Name: 49, dtype: object

>  <hbond:HIS:104>  (50) 
hbond:HIS:104    0
hbond:HIS:104    0
Name: 49, dtype: object

>  <saltbridge:HIS:104>  (50) 
saltbridge:HIS:104    0
saltbridge:HIS:104    0
Name: 49, dtype: object

>  <pication:HIS:104>  (50) 
pication:HIS:104    0
pication:HIS:104    0
Name: 49, dtype: object

>  <pistack:HIS:104>  (50) 
pistack:HIS:104    0
pistack:HIS:104    0
Name: 49, dtype: object

>  <halogenbond:HIS:104>  (50) 
halogenbond:HIS:104    0
halogenbond:HIS:104    0
Name: 49, dtype: object

>  <hbond:SER:105>  (50) 
hbond:SER:105    0
hbond:SER:105    0
Name: 49, dtype: object

>  <halogenbond:SER:105>  (50) 
halogenbond:SER:105    0
halogenbond:SER:105    0
Name: 49, dtype: object

>  <hbond:GLU:106>  (50) 
hbond:GLU:106    0
hbond:GLU:106    0
Name: 49, dtype: object

>  <hydroph_interaction:GLU:106>  (50) 
hydroph_interaction:GLU:106    0
hydroph_interaction:GLU:106    0
Name: 49, dtype: object

>  <saltbridge:GLU:106>  (50) 
saltbridge:GLU:106    0
saltbridge:GLU:106    0
Name: 49, dtype: object

>  <halogenbond:GLU:106>  (50) 
halogenbond:GLU:106    0
halogenbond:GLU:106    0
Name: 49, dtype: object

>  <hydroph_interaction:PRO:107>  (50) 
hydroph_interaction:PRO:107    1
hydroph_interaction:PRO:107    1
Name: 49, dtype: object

>  <hbond:PRO:107>  (50) 
hbond:PRO:107    0
hbond:PRO:107    0
Name: 49, dtype: object

>  <halogenbond:PRO:107>  (50) 
halogenbond:PRO:107    0
halogenbond:PRO:107    0
Name: 49, dtype: object

>  <hbond:GLY:108>  (50) 
hbond:GLY:108    0
hbond:GLY:108    0
Name: 49, dtype: object

>  <halogenbond:GLY:108>  (50) 
halogenbond:GLY:108    0
halogenbond:GLY:108    0
Name: 49, dtype: object

>  <hbond:ASP:109>  (50) 
hbond:ASP:109    0
hbond:ASP:109    0
Name: 49, dtype: object

>  <hydroph_interaction:ASP:109>  (50) 
hydroph_interaction:ASP:109    0
hydroph_interaction:ASP:109    0
Name: 49, dtype: object

>  <saltbridge:ASP:109>  (50) 
saltbridge:ASP:109    0
saltbridge:ASP:109    0
Name: 49, dtype: object

>  <hbond:CYS:110>  (50) 
hbond:CYS:110    0
hbond:CYS:110    0
Name: 49, dtype: object

>  <halogenbond:CYS:110>  (50) 
halogenbond:CYS:110    0
halogenbond:CYS:110    0
Name: 49, dtype: object

>  <hbond:GLY:111>  (50) 
hbond:GLY:111    0
hbond:GLY:111    0
Name: 49, dtype: object

>  <hbond:GLY:112>  (50) 
hbond:GLY:112    0
hbond:GLY:112    0
Name: 49, dtype: object

>  <hbond:ILE:113>  (50) 
hbond:ILE:113    0
hbond:ILE:113    0
Name: 49, dtype: object

>  <hydroph_interaction:LEU:114>  (50) 
hydroph_interaction:LEU:114    0
hydroph_interaction:LEU:114    0
Name: 49, dtype: object

>  <hbond:LEU:114>  (50) 
hbond:LEU:114    0
hbond:LEU:114    0
Name: 49, dtype: object

>  <hydroph_interaction:ILE:123>  (50) 
hydroph_interaction:ILE:123    0
hydroph_interaction:ILE:123    0
Name: 49, dtype: object

>  <hbond:ILE:123>  (50) 
hbond:ILE:123    0
hbond:ILE:123    0
Name: 49, dtype: object

>  <hydroph_interaction:VAL:124>  (50) 
hydroph_interaction:VAL:124    0
hydroph_interaction:VAL:124    0
Name: 49, dtype: object

>  <hbond:VAL:124>  (50) 
hbond:VAL:124    0
hbond:VAL:124    0
Name: 49, dtype: object

>  <halogenbond:VAL:124>  (50) 
halogenbond:VAL:124    0
halogenbond:VAL:124    0
Name: 49, dtype: object

>  <hbond:SER:125>  (50) 
hbond:SER:125    0
hbond:SER:125    0
Name: 49, dtype: object

>  <halogenbond:SER:125>  (50) 
halogenbond:SER:125    0
halogenbond:SER:125    0
Name: 49, dtype: object

>  <hydroph_interaction:THR:126>  (50) 
hydroph_interaction:THR:126    0
hydroph_interaction:THR:126    0
Name: 49, dtype: object

>  <hbond:THR:126>  (50) 
hbond:THR:126    0
hbond:THR:126    0
Name: 49, dtype: object

>  <halogenbond:THR:126>  (50) 
halogenbond:THR:126    0
halogenbond:THR:126    0
Name: 49, dtype: object

>  <hbond:GLY:127>  (50) 
hbond:GLY:127    0
hbond:GLY:127    0
Name: 49, dtype: object

>  <halogenbond:GLY:127>  (50) 
halogenbond:GLY:127    0
halogenbond:GLY:127    0
Name: 49, dtype: object

>  <hydroph_interaction:GLY:127>  (50) 
hydroph_interaction:GLY:127    0
hydroph_interaction:GLY:127    0
Name: 49, dtype: object

>  <hbond:GLY:128>  (50) 
hbond:GLY:128    0
hbond:GLY:128    0
Name: 49, dtype: object

>  <halogenbond:GLY:128>  (50) 
halogenbond:GLY:128    0
halogenbond:GLY:128    0
Name: 49, dtype: object

>  <hydroph_interaction:GLY:128>  (50) 
hydroph_interaction:GLY:128    0
hydroph_interaction:GLY:128    0
Name: 49, dtype: object

>  <hbond:ASN:129>  (50) 
hbond:ASN:129    0
hbond:ASN:129    0
Name: 49, dtype: object

>  <hydroph_interaction:ASN:129>  (50) 
hydroph_interaction:ASN:129    0
hydroph_interaction:ASN:129    0
Name: 49, dtype: object

>  <halogenbond:ASN:129>  (50) 
halogenbond:ASN:129    0
halogenbond:ASN:129    0
Name: 49, dtype: object

>  <hbond:GLY:130>  (50) 
hbond:GLY:130    0
hbond:GLY:130    0
Name: 49, dtype: object

>  <hydroph_interaction:LEU:131>  (50) 
hydroph_interaction:LEU:131    0
hydroph_interaction:LEU:131    0
Name: 49, dtype: object

>  <hbond:LEU:131>  (50) 
hbond:LEU:131    0
hbond:LEU:131    0
Name: 49, dtype: object

>  <halogenbond:LEU:131>  (50) 
halogenbond:LEU:131    0
halogenbond:LEU:131    0
Name: 49, dtype: object

>  <hydroph_interaction:VAL:132>  (50) 
hydroph_interaction:VAL:132    0
hydroph_interaction:VAL:132    0
Name: 49, dtype: object

>  <hbond:VAL:132>  (50) 
hbond:VAL:132    0
hbond:VAL:132    0
Name: 49, dtype: object

>  <hbond:GLY:133>  (50) 
hbond:GLY:133    0
hbond:GLY:133    0
Name: 49, dtype: object

>  <halogenbond:GLY:133>  (50) 
halogenbond:GLY:133    0
halogenbond:GLY:133    0
Name: 49, dtype: object

>  <hydroph_interaction:PHE:134>  (50) 
hydroph_interaction:PHE:134    0
hydroph_interaction:PHE:134    0
Name: 49, dtype: object

>  <hbond:PHE:134>  (50) 
hbond:PHE:134    0
hbond:PHE:134    0
Name: 49, dtype: object

>  <pistack:PHE:134>  (50) 
pistack:PHE:134    0
pistack:PHE:134    0
Name: 49, dtype: object

>  <pication:PHE:134>  (50) 
pication:PHE:134    0
pication:PHE:134    0
Name: 49, dtype: object

>  <hydroph_interaction:ALA:135>  (50) 
hydroph_interaction:ALA:135    0
hydroph_interaction:ALA:135    0
Name: 49, dtype: object

>  <hbond:ALA:135>  (50) 
hbond:ALA:135    0
hbond:ALA:135    0
Name: 49, dtype: object

$$$$
Z1451022649
     RDKit          3D

 24 25  0  0  0  0  0  0  0  0999 V2000
   12.3140   14.7210   21.9770 C   0  0  0  0  0  0  0  0  0  0  0  0
   11.3470   14.0770   22.9440 C   0  0  0  0  0  0  0  0  0  0  0  0
   11.2950   14.4280   24.1170 O   0  0  0  0  0  0  0  0  0  0  0  0
   10.5770   13.0960   22.3650 N   0  0  0  0  0  0  0  0  0  0  0  0
    9.8690   12.1120   23.0640 C   0  0  0  0  0  0  0  0  0  0  0  0
   10.0780   10.7430   22.8930 C   0  0  0  0  0  0  0  0  0  0  0  0
    9.3540    9.8180   23.6100 C   0  0  0  0  0  0  0  0  0  0  0  0
    8.3940   10.2000   24.5220 C   0  0  0  0  0  0  0  0  0  0  0  0
    8.1910   11.5420   24.6870 C   0  0  0  0  0  0  0  0  0  0  0  0
    8.8850   12.5130   23.9990 C   0  0  0  0  0  0  0  0  0  0  0  0
    8.4410   13.7570   24.3910 N   0  0  0  0  0  0  0  0  0  0  0  0
    7.5000   13.4850   25.2960 C   0  0  0  0  0  0  0  0  0  0  0  0
    6.6320   14.4030   26.0980 C   0  0  0  0  0  0  0  0  0  0  0  0
    6.9670   15.7080   25.9330 F   0  0  0  0  0  0  0  0  0  0  0  0
    6.7080   14.1470   27.4300 F   0  0  0  0  0  0  0  0  0  0  0  0
    5.3200   14.2910   25.7630 F   0  0  0  0  0  0  0  0  0  0  0  0
    7.3070   12.1420   25.5190 O   0  0  0  0  0  0  0  0  0  0  0  0
   13.2570   14.9260   22.4930 H   0  0  0  0  0  0  0  0  0  0  0  0
   12.5100   14.0330   21.1520 H   0  0  0  0  0  0  0  0  0  0  0  0
   11.9070   15.6510   21.5680 H   0  0  0  0  0  0  0  0  0  0  0  0
   10.8660   12.7700   21.4360 H   0  0  0  0  0  0  0  0  0  0  0  0
   10.8120   10.3690   22.1910 H   0  0  0  0  0  0  0  0  0  0  0  0
    9.5560    8.7820   23.4430 H   0  0  0  0  0  0  0  0  0  0  0  0
    7.8240    9.4850   25.0840 H   0  0  0  0  0  0  0  0  0  0  0  0
  1  2  1  0
  2  3  2  0
  2  4  1  0
  4  5  1  0
  5  6  2  0
  6  7  1  0
  7  8  2  0
  8  9  1  0
  9 10  2  0
 10 11  1  0
 11 12  2  0
 12 13  1  0
 13 14  1  0
 13 15  1  0
 13 16  1  0
 12 17  1  0
 10  5  1  0
 17  9  1  0
  1 18  1  0
  1 19  1  0
  1 20  1  0
  4 21  1  0
  6 22  1  0
  7 23  1  0
  8 24  1  0
A    1
 C1 
A    2
 C2 
A    3
 O1 
A    4
 N1 
A    5
 C3 
A    6
 C4 
A    7
 C5 
A    8
 C6 
A    9
 C7 
A   10
 C8 
A   11
 N2 
A   12
 C9 
A   13
 C10
A   14
 F1 
A   15
 F2 
A   16
 F3 
A   17
 O2 
A   18
 H1 
A   19
 H2 
A   20
 H3 
A   21
 H4 
A   22
 H5 
A   23
 H6 
A   24
 H7 
M  END
>  <ref_pdb>  (51) 
x0310_0A

>  <ref_mols>  (51) 
x0554_0A,x0416_0A,x0446_0A

>  <original SMILES>  (51) 
CC(=O)Nc1cccc2oc(C(F)(F)F)nc12

>  <rationale>  (51) 
info halogenbond:A86; hbond:S125; 

>  <intxn_cluster>  (51) 
208

>  <intxn_cluster_rank>  (51) 
231

>  <N_interactions>  (51) 
2

>  <∆∆G>  (51) 
-7.577068

>  <$/mg>  (51) 
104.0

>  <comRMSD>  (51) 
0.578634

>  <N_rotatable_bonds>  (51) 
2

>  <hbond:SER:7>  (51) 
hbond:SER:7    0
hbond:SER:7    0
Name: 50, dtype: object

>  <halogenbond:SER:7>  (51) 
halogenbond:SER:7    0
halogenbond:SER:7    0
Name: 50, dtype: object

>  <hbond:GLY:8>  (51) 
hbond:GLY:8    0
hbond:GLY:8    0
Name: 50, dtype: object

>  <hydroph_interaction:ASN:19>  (51) 
hydroph_interaction:ASN:19    0
hydroph_interaction:ASN:19    0
Name: 50, dtype: object

>  <hbond:ASN:19>  (51) 
hbond:ASN:19    0
hbond:ASN:19    0
Name: 50, dtype: object

>  <halogenbond:ASN:19>  (51) 
halogenbond:ASN:19    0
halogenbond:ASN:19    0
Name: 50, dtype: object

>  <hbond:ARG:20>  (51) 
hbond:ARG:20    0
hbond:ARG:20    0
Name: 50, dtype: object

>  <hydroph_interaction:ARG:20>  (51) 
hydroph_interaction:ARG:20    0
hydroph_interaction:ARG:20    0
Name: 50, dtype: object

>  <saltbridge:ARG:20>  (51) 
saltbridge:ARG:20    0
saltbridge:ARG:20    0
Name: 50, dtype: object

>  <halogenbond:ARG:20>  (51) 
halogenbond:ARG:20    0
halogenbond:ARG:20    0
Name: 50, dtype: object

>  <pication:ARG:20>  (51) 
pication:ARG:20    0
pication:ARG:20    0
Name: 50, dtype: object

>  <hbond:HIS:21>  (51) 
hbond:HIS:21    0
hbond:HIS:21    0
Name: 50, dtype: object

>  <hydroph_interaction:HIS:21>  (51) 
hydroph_interaction:HIS:21    0
hydroph_interaction:HIS:21    0
Name: 50, dtype: object

>  <saltbridge:HIS:21>  (51) 
saltbridge:HIS:21    0
saltbridge:HIS:21    0
Name: 50, dtype: object

>  <pistack:HIS:21>  (51) 
pistack:HIS:21    0
pistack:HIS:21    0
Name: 50, dtype: object

>  <pication:HIS:21>  (51) 
pication:HIS:21    0
pication:HIS:21    0
Name: 50, dtype: object

>  <halogenbond:HIS:21>  (51) 
halogenbond:HIS:21    0
halogenbond:HIS:21    0
Name: 50, dtype: object

>  <hydroph_interaction:LEU:22>  (51) 
hydroph_interaction:LEU:22    0
hydroph_interaction:LEU:22    0
Name: 50, dtype: object

>  <hbond:LEU:22>  (51) 
hbond:LEU:22    0
hbond:LEU:22    0
Name: 50, dtype: object

>  <hydroph_interaction:TRP:28>  (51) 
hydroph_interaction:TRP:28    0
hydroph_interaction:TRP:28    0
Name: 50, dtype: object

>  <hbond:SER:36>  (51) 
hbond:SER:36    0
hbond:SER:36    0
Name: 50, dtype: object

>  <halogenbond:SER:36>  (51) 
halogenbond:SER:36    0
halogenbond:SER:36    0
Name: 50, dtype: object

>  <hbond:ARG:38>  (51) 
hbond:ARG:38    0
hbond:ARG:38    0
Name: 50, dtype: object

>  <halogenbond:ARG:38>  (51) 
halogenbond:ARG:38    0
halogenbond:ARG:38    0
Name: 50, dtype: object

>  <hbond:ASP:39>  (51) 
hbond:ASP:39    0
hbond:ASP:39    0
Name: 50, dtype: object

>  <saltbridge:ASP:39>  (51) 
saltbridge:ASP:39    0
saltbridge:ASP:39    0
Name: 50, dtype: object

>  <hydroph_interaction:ASP:39>  (51) 
hydroph_interaction:ASP:39    0
hydroph_interaction:ASP:39    0
Name: 50, dtype: object

>  <halogenbond:ASP:39>  (51) 
halogenbond:ASP:39    0
halogenbond:ASP:39    0
Name: 50, dtype: object

>  <hydroph_interaction:LEU:40>  (51) 
hydroph_interaction:LEU:40    0
hydroph_interaction:LEU:40    0
Name: 50, dtype: object

>  <hydroph_interaction:TYR:63>  (51) 
hydroph_interaction:TYR:63    0
hydroph_interaction:TYR:63    0
Name: 50, dtype: object

>  <pistack:TYR:63>  (51) 
pistack:TYR:63    0
pistack:TYR:63    0
Name: 50, dtype: object

>  <hbond:TYR:63>  (51) 
hbond:TYR:63    0
hbond:TYR:63    0
Name: 50, dtype: object

>  <hbond:TYR:64>  (51) 
hbond:TYR:64    0
hbond:TYR:64    0
Name: 50, dtype: object

>  <halogenbond:TYR:64>  (51) 
halogenbond:TYR:64    0
halogenbond:TYR:64    0
Name: 50, dtype: object

>  <hydroph_interaction:TYR:64>  (51) 
hydroph_interaction:TYR:64    0
hydroph_interaction:TYR:64    0
Name: 50, dtype: object

>  <hbond:CYS:65>  (51) 
hbond:CYS:65    0
hbond:CYS:65    0
Name: 50, dtype: object

>  <halogenbond:CYS:65>  (51) 
halogenbond:CYS:65    0
halogenbond:CYS:65    0
Name: 50, dtype: object

>  <hbond:SER:66>  (51) 
hbond:SER:66    0
hbond:SER:66    0
Name: 50, dtype: object

>  <hbond:SER:67>  (51) 
hbond:SER:67    0
hbond:SER:67    0
Name: 50, dtype: object

>  <halogenbond:SER:67>  (51) 
halogenbond:SER:67    0
halogenbond:SER:67    0
Name: 50, dtype: object

>  <hydroph_interaction:ARG:68>  (51) 
hydroph_interaction:ARG:68    0
hydroph_interaction:ARG:68    0
Name: 50, dtype: object

>  <hbond:ARG:68>  (51) 
hbond:ARG:68    0
hbond:ARG:68    0
Name: 50, dtype: object

>  <saltbridge:ARG:68>  (51) 
saltbridge:ARG:68    0
saltbridge:ARG:68    0
Name: 50, dtype: object

>  <pication:ARG:68>  (51) 
pication:ARG:68    0
pication:ARG:68    0
Name: 50, dtype: object

>  <hydroph_interaction:TYR:72>  (51) 
hydroph_interaction:TYR:72    0
hydroph_interaction:TYR:72    0
Name: 50, dtype: object

>  <hydroph_interaction:VAL:74>  (51) 
hydroph_interaction:VAL:74    0
hydroph_interaction:VAL:74    0
Name: 50, dtype: object

>  <hydroph_interaction:PHE:76>  (51) 
hydroph_interaction:PHE:76    0
hydroph_interaction:PHE:76    0
Name: 50, dtype: object

>  <hbond:SER:77>  (51) 
hbond:SER:77    0
hbond:SER:77    0
Name: 50, dtype: object

>  <hbond:SER:80>  (51) 
hbond:SER:80    0
hbond:SER:80    0
Name: 50, dtype: object

>  <hbond:LEU:81>  (51) 
hbond:LEU:81    0
hbond:LEU:81    0
Name: 50, dtype: object

>  <halogenbond:LEU:81>  (51) 
halogenbond:LEU:81    0
halogenbond:LEU:81    0
Name: 50, dtype: object

>  <hydroph_interaction:LEU:81>  (51) 
hydroph_interaction:LEU:81    0
hydroph_interaction:LEU:81    0
Name: 50, dtype: object

>  <hydroph_interaction:ILE:82>  (51) 
hydroph_interaction:ILE:82    0
hydroph_interaction:ILE:82    0
Name: 50, dtype: object

>  <hbond:ILE:82>  (51) 
hbond:ILE:82    0
hbond:ILE:82    0
Name: 50, dtype: object

>  <hydroph_interaction:PHE:83>  (51) 
hydroph_interaction:PHE:83    0
hydroph_interaction:PHE:83    0
Name: 50, dtype: object

>  <hbond:PHE:83>  (51) 
hbond:PHE:83    0
hbond:PHE:83    0
Name: 50, dtype: object

>  <halogenbond:PHE:83>  (51) 
halogenbond:PHE:83    0
halogenbond:PHE:83    0
Name: 50, dtype: object

>  <pistack:PHE:83>  (51) 
pistack:PHE:83    0
pistack:PHE:83    0
Name: 50, dtype: object

>  <hydroph_interaction:VAL:84>  (51) 
hydroph_interaction:VAL:84    0
hydroph_interaction:VAL:84    0
Name: 50, dtype: object

>  <hbond:VAL:84>  (51) 
hbond:VAL:84    0
hbond:VAL:84    0
Name: 50, dtype: object

>  <halogenbond:VAL:84>  (51) 
halogenbond:VAL:84    0
halogenbond:VAL:84    0
Name: 50, dtype: object

>  <hydroph_interaction:GLU:85>  (51) 
hydroph_interaction:GLU:85    0
hydroph_interaction:GLU:85    0
Name: 50, dtype: object

>  <hbond:GLU:85>  (51) 
hbond:GLU:85    0
hbond:GLU:85    0
Name: 50, dtype: object

>  <saltbridge:GLU:85>  (51) 
saltbridge:GLU:85    0
saltbridge:GLU:85    0
Name: 50, dtype: object

>  <halogenbond:GLU:85>  (51) 
halogenbond:GLU:85    0
halogenbond:GLU:85    0
Name: 50, dtype: object

>  <hbond:ALA:86>  (51) 
hbond:ALA:86    0
hbond:ALA:86    0
Name: 50, dtype: object

>  <halogenbond:ALA:86>  (51) 
halogenbond:ALA:86    1
halogenbond:ALA:86    1
Name: 50, dtype: object

>  <hydroph_interaction:ALA:86>  (51) 
hydroph_interaction:ALA:86    0
hydroph_interaction:ALA:86    0
Name: 50, dtype: object

>  <hbond:SER:87>  (51) 
hbond:SER:87    0
hbond:SER:87    0
Name: 50, dtype: object

>  <halogenbond:SER:87>  (51) 
halogenbond:SER:87    0
halogenbond:SER:87    0
Name: 50, dtype: object

>  <hbond:GLU:88>  (51) 
hbond:GLU:88    0
hbond:GLU:88    0
Name: 50, dtype: object

>  <hydroph_interaction:GLU:88>  (51) 
hydroph_interaction:GLU:88    0
hydroph_interaction:GLU:88    0
Name: 50, dtype: object

>  <halogenbond:GLU:88>  (51) 
halogenbond:GLU:88    0
halogenbond:GLU:88    0
Name: 50, dtype: object

>  <saltbridge:GLU:88>  (51) 
saltbridge:GLU:88    0
saltbridge:GLU:88    0
Name: 50, dtype: object

>  <hydroph_interaction:TYR:89>  (51) 
hydroph_interaction:TYR:89    0
hydroph_interaction:TYR:89    0
Name: 50, dtype: object

>  <pistack:TYR:89>  (51) 
pistack:TYR:89    0
pistack:TYR:89    0
Name: 50, dtype: object

>  <hbond:TYR:89>  (51) 
hbond:TYR:89    0
hbond:TYR:89    0
Name: 50, dtype: object

>  <halogenbond:TYR:89>  (51) 
halogenbond:TYR:89    0
halogenbond:TYR:89    0
Name: 50, dtype: object

>  <hbond:TYR:90>  (51) 
hbond:TYR:90    0
hbond:TYR:90    0
Name: 50, dtype: object

>  <hydroph_interaction:TYR:90>  (51) 
hydroph_interaction:TYR:90    0
hydroph_interaction:TYR:90    0
Name: 50, dtype: object

>  <pistack:TYR:90>  (51) 
pistack:TYR:90    0
pistack:TYR:90    0
Name: 50, dtype: object

>  <halogenbond:TYR:90>  (51) 
halogenbond:TYR:90    0
halogenbond:TYR:90    0
Name: 50, dtype: object

>  <pication:TYR:90>  (51) 
pication:TYR:90    0
pication:TYR:90    0
Name: 50, dtype: object

>  <hydroph_interaction:PRO:91>  (51) 
hydroph_interaction:PRO:91    0
hydroph_interaction:PRO:91    0
Name: 50, dtype: object

>  <halogenbond:PRO:91>  (51) 
halogenbond:PRO:91    0
halogenbond:PRO:91    0
Name: 50, dtype: object

>  <hbond:PRO:91>  (51) 
hbond:PRO:91    0
hbond:PRO:91    0
Name: 50, dtype: object

>  <hydroph_interaction:ALA:92>  (51) 
hydroph_interaction:ALA:92    0
hydroph_interaction:ALA:92    0
Name: 50, dtype: object

>  <hbond:ARG:93>  (51) 
hbond:ARG:93    0
hbond:ARG:93    0
Name: 50, dtype: object

>  <pication:ARG:93>  (51) 
pication:ARG:93    0
pication:ARG:93    0
Name: 50, dtype: object

>  <saltbridge:ARG:93>  (51) 
saltbridge:ARG:93    0
saltbridge:ARG:93    0
Name: 50, dtype: object

>  <hydroph_interaction:ARG:93>  (51) 
hydroph_interaction:ARG:93    0
hydroph_interaction:ARG:93    0
Name: 50, dtype: object

>  <halogenbond:ARG:93>  (51) 
halogenbond:ARG:93    0
halogenbond:ARG:93    0
Name: 50, dtype: object

>  <hydroph_interaction:TYR:94>  (51) 
hydroph_interaction:TYR:94    0
hydroph_interaction:TYR:94    0
Name: 50, dtype: object

>  <hbond:TYR:94>  (51) 
hbond:TYR:94    0
hbond:TYR:94    0
Name: 50, dtype: object

>  <halogenbond:GLN:95>  (51) 
halogenbond:GLN:95    0
halogenbond:GLN:95    0
Name: 50, dtype: object

>  <hbond:GLN:95>  (51) 
hbond:GLN:95    0
hbond:GLN:95    0
Name: 50, dtype: object

>  <hydroph_interaction:GLN:95>  (51) 
hydroph_interaction:GLN:95    0
hydroph_interaction:GLN:95    0
Name: 50, dtype: object

>  <hbond:SER:96>  (51) 
hbond:SER:96    0
hbond:SER:96    0
Name: 50, dtype: object

>  <hydroph_interaction:LEU:98>  (51) 
hydroph_interaction:LEU:98    0
hydroph_interaction:LEU:98    0
Name: 50, dtype: object

>  <hbond:LEU:98>  (51) 
hbond:LEU:98    0
hbond:LEU:98    0
Name: 50, dtype: object

>  <hbond:MET:99>  (51) 
hbond:MET:99    0
hbond:MET:99    0
Name: 50, dtype: object

>  <hydroph_interaction:MET:99>  (51) 
hydroph_interaction:MET:99    0
hydroph_interaction:MET:99    0
Name: 50, dtype: object

>  <halogenbond:MET:99>  (51) 
halogenbond:MET:99    0
halogenbond:MET:99    0
Name: 50, dtype: object

>  <hydroph_interaction:LEU:100>  (51) 
hydroph_interaction:LEU:100    0
hydroph_interaction:LEU:100    0
Name: 50, dtype: object

>  <hbond:LEU:100>  (51) 
hbond:LEU:100    0
hbond:LEU:100    0
Name: 50, dtype: object

>  <hbond:ALA:101>  (51) 
hbond:ALA:101    0
hbond:ALA:101    0
Name: 50, dtype: object

>  <hydroph_interaction:ALA:101>  (51) 
hydroph_interaction:ALA:101    0
hydroph_interaction:ALA:101    0
Name: 50, dtype: object

>  <hydroph_interaction:VAL:102>  (51) 
hydroph_interaction:VAL:102    0
hydroph_interaction:VAL:102    0
Name: 50, dtype: object

>  <hbond:VAL:102>  (51) 
hbond:VAL:102    0
hbond:VAL:102    0
Name: 50, dtype: object

>  <hbond:GLY:103>  (51) 
hbond:GLY:103    0
hbond:GLY:103    0
Name: 50, dtype: object

>  <halogenbond:GLY:103>  (51) 
halogenbond:GLY:103    0
halogenbond:GLY:103    0
Name: 50, dtype: object

>  <hydroph_interaction:HIS:104>  (51) 
hydroph_interaction:HIS:104    0
hydroph_interaction:HIS:104    0
Name: 50, dtype: object

>  <hbond:HIS:104>  (51) 
hbond:HIS:104    0
hbond:HIS:104    0
Name: 50, dtype: object

>  <saltbridge:HIS:104>  (51) 
saltbridge:HIS:104    0
saltbridge:HIS:104    0
Name: 50, dtype: object

>  <pication:HIS:104>  (51) 
pication:HIS:104    0
pication:HIS:104    0
Name: 50, dtype: object

>  <pistack:HIS:104>  (51) 
pistack:HIS:104    0
pistack:HIS:104    0
Name: 50, dtype: object

>  <halogenbond:HIS:104>  (51) 
halogenbond:HIS:104    0
halogenbond:HIS:104    0
Name: 50, dtype: object

>  <hbond:SER:105>  (51) 
hbond:SER:105    0
hbond:SER:105    0
Name: 50, dtype: object

>  <halogenbond:SER:105>  (51) 
halogenbond:SER:105    0
halogenbond:SER:105    0
Name: 50, dtype: object

>  <hbond:GLU:106>  (51) 
hbond:GLU:106    0
hbond:GLU:106    0
Name: 50, dtype: object

>  <hydroph_interaction:GLU:106>  (51) 
hydroph_interaction:GLU:106    0
hydroph_interaction:GLU:106    0
Name: 50, dtype: object

>  <saltbridge:GLU:106>  (51) 
saltbridge:GLU:106    0
saltbridge:GLU:106    0
Name: 50, dtype: object

>  <halogenbond:GLU:106>  (51) 
halogenbond:GLU:106    0
halogenbond:GLU:106    0
Name: 50, dtype: object

>  <hydroph_interaction:PRO:107>  (51) 
hydroph_interaction:PRO:107    0
hydroph_interaction:PRO:107    0
Name: 50, dtype: object

>  <hbond:PRO:107>  (51) 
hbond:PRO:107    0
hbond:PRO:107    0
Name: 50, dtype: object

>  <halogenbond:PRO:107>  (51) 
halogenbond:PRO:107    0
halogenbond:PRO:107    0
Name: 50, dtype: object

>  <hbond:GLY:108>  (51) 
hbond:GLY:108    0
hbond:GLY:108    0
Name: 50, dtype: object

>  <halogenbond:GLY:108>  (51) 
halogenbond:GLY:108    0
halogenbond:GLY:108    0
Name: 50, dtype: object

>  <hbond:ASP:109>  (51) 
hbond:ASP:109    0
hbond:ASP:109    0
Name: 50, dtype: object

>  <hydroph_interaction:ASP:109>  (51) 
hydroph_interaction:ASP:109    0
hydroph_interaction:ASP:109    0
Name: 50, dtype: object

>  <saltbridge:ASP:109>  (51) 
saltbridge:ASP:109    0
saltbridge:ASP:109    0
Name: 50, dtype: object

>  <hbond:CYS:110>  (51) 
hbond:CYS:110    0
hbond:CYS:110    0
Name: 50, dtype: object

>  <halogenbond:CYS:110>  (51) 
halogenbond:CYS:110    0
halogenbond:CYS:110    0
Name: 50, dtype: object

>  <hbond:GLY:111>  (51) 
hbond:GLY:111    0
hbond:GLY:111    0
Name: 50, dtype: object

>  <hbond:GLY:112>  (51) 
hbond:GLY:112    0
hbond:GLY:112    0
Name: 50, dtype: object

>  <hbond:ILE:113>  (51) 
hbond:ILE:113    0
hbond:ILE:113    0
Name: 50, dtype: object

>  <hydroph_interaction:LEU:114>  (51) 
hydroph_interaction:LEU:114    0
hydroph_interaction:LEU:114    0
Name: 50, dtype: object

>  <hbond:LEU:114>  (51) 
hbond:LEU:114    0
hbond:LEU:114    0
Name: 50, dtype: object

>  <hydroph_interaction:ILE:123>  (51) 
hydroph_interaction:ILE:123    0
hydroph_interaction:ILE:123    0
Name: 50, dtype: object

>  <hbond:ILE:123>  (51) 
hbond:ILE:123    0
hbond:ILE:123    0
Name: 50, dtype: object

>  <hydroph_interaction:VAL:124>  (51) 
hydroph_interaction:VAL:124    0
hydroph_interaction:VAL:124    0
Name: 50, dtype: object

>  <hbond:VAL:124>  (51) 
hbond:VAL:124    0
hbond:VAL:124    0
Name: 50, dtype: object

>  <halogenbond:VAL:124>  (51) 
halogenbond:VAL:124    0
halogenbond:VAL:124    0
Name: 50, dtype: object

>  <hbond:SER:125>  (51) 
hbond:SER:125    1
hbond:SER:125    1
Name: 50, dtype: object

>  <halogenbond:SER:125>  (51) 
halogenbond:SER:125    0
halogenbond:SER:125    0
Name: 50, dtype: object

>  <hydroph_interaction:THR:126>  (51) 
hydroph_interaction:THR:126    0
hydroph_interaction:THR:126    0
Name: 50, dtype: object

>  <hbond:THR:126>  (51) 
hbond:THR:126    0
hbond:THR:126    0
Name: 50, dtype: object

>  <halogenbond:THR:126>  (51) 
halogenbond:THR:126    0
halogenbond:THR:126    0
Name: 50, dtype: object

>  <hbond:GLY:127>  (51) 
hbond:GLY:127    0
hbond:GLY:127    0
Name: 50, dtype: object

>  <halogenbond:GLY:127>  (51) 
halogenbond:GLY:127    0
halogenbond:GLY:127    0
Name: 50, dtype: object

>  <hydroph_interaction:GLY:127>  (51) 
hydroph_interaction:GLY:127    0
hydroph_interaction:GLY:127    0
Name: 50, dtype: object

>  <hbond:GLY:128>  (51) 
hbond:GLY:128    0
hbond:GLY:128    0
Name: 50, dtype: object

>  <halogenbond:GLY:128>  (51) 
halogenbond:GLY:128    0
halogenbond:GLY:128    0
Name: 50, dtype: object

>  <hydroph_interaction:GLY:128>  (51) 
hydroph_interaction:GLY:128    0
hydroph_interaction:GLY:128    0
Name: 50, dtype: object

>  <hbond:ASN:129>  (51) 
hbond:ASN:129    0
hbond:ASN:129    0
Name: 50, dtype: object

>  <hydroph_interaction:ASN:129>  (51) 
hydroph_interaction:ASN:129    0
hydroph_interaction:ASN:129    0
Name: 50, dtype: object

>  <halogenbond:ASN:129>  (51) 
halogenbond:ASN:129    0
halogenbond:ASN:129    0
Name: 50, dtype: object

>  <hbond:GLY:130>  (51) 
hbond:GLY:130    0
hbond:GLY:130    0
Name: 50, dtype: object

>  <hydroph_interaction:LEU:131>  (51) 
hydroph_interaction:LEU:131    0
hydroph_interaction:LEU:131    0
Name: 50, dtype: object

>  <hbond:LEU:131>  (51) 
hbond:LEU:131    0
hbond:LEU:131    0
Name: 50, dtype: object

>  <halogenbond:LEU:131>  (51) 
halogenbond:LEU:131    0
halogenbond:LEU:131    0
Name: 50, dtype: object

>  <hydroph_interaction:VAL:132>  (51) 
hydroph_interaction:VAL:132    0
hydroph_interaction:VAL:132    0
Name: 50, dtype: object

>  <hbond:VAL:132>  (51) 
hbond:VAL:132    0
hbond:VAL:132    0
Name: 50, dtype: object

>  <hbond:GLY:133>  (51) 
hbond:GLY:133    0
hbond:GLY:133    0
Name: 50, dtype: object

>  <halogenbond:GLY:133>  (51) 
halogenbond:GLY:133    0
halogenbond:GLY:133    0
Name: 50, dtype: object

>  <hydroph_interaction:PHE:134>  (51) 
hydroph_interaction:PHE:134    0
hydroph_interaction:PHE:134    0
Name: 50, dtype: object

>  <hbond:PHE:134>  (51) 
hbond:PHE:134    0
hbond:PHE:134    0
Name: 50, dtype: object

>  <pistack:PHE:134>  (51) 
pistack:PHE:134    0
pistack:PHE:134    0
Name: 50, dtype: object

>  <pication:PHE:134>  (51) 
pication:PHE:134    0
pication:PHE:134    0
Name: 50, dtype: object

>  <hydroph_interaction:ALA:135>  (51) 
hydroph_interaction:ALA:135    0
hydroph_interaction:ALA:135    0
Name: 50, dtype: object

>  <hbond:ALA:135>  (51) 
hbond:ALA:135    0
hbond:ALA:135    0
Name: 50, dtype: object

$$$$
Z2447358809
     RDKit          3D

 31 32  0  0  0  0  0  0  0  0999 V2000
   10.2300    9.2000   22.5750 C   0  0  0  0  0  0  0  0  0  0  0  0
    9.5660   10.2910   23.3650 C   0  0  0  0  0  0  0  0  0  0  0  0
    9.9530   11.6350   23.1670 C   0  0  0  0  0  0  0  0  0  0  0  0
    9.3440   12.6520   23.9030 C   0  0  0  0  0  0  0  0  0  0  0  0
    8.3560   12.3210   24.8260 C   0  0  0  0  0  0  0  0  0  0  0  0
    7.7480   13.3170   25.5740 N   0  0  0  0  0  0  0  0  0  0  0  0
    7.5290   14.6550   25.2010 C   0  0  0  0  0  0  0  0  0  0  0  0
    7.5700   15.0100   24.0390 O   0  0  0  0  0  0  0  0  0  0  0  0
    7.2300   15.6830   26.2660 C   0  0  1  0  0  0  0  0  0  0  0  0
    6.3270   15.3600   27.2810 C   0  0  0  0  0  0  0  0  0  0  0  0
    6.6740   16.0410   28.5630 C   0  0  0  0  0  0  0  0  0  0  0  0
    8.0180   16.6930   28.2540 C   0  0  0  0  0  0  0  0  0  0  0  0
    8.3980   16.0310   26.9720 N   0  0  0  0  0  0  0  0  0  0  0  0
    7.9780   11.0080   25.0110 C   0  0  0  0  0  0  0  0  0  0  0  0
    7.0190   10.7180   25.9060 F   0  0  0  0  0  0  0  0  0  0  0  0
    8.5810    9.9940   24.2840 C   0  0  0  0  0  0  0  0  0  0  0  0
   10.7700    9.6170   21.7250 H   0  0  0  0  0  0  0  0  0  0  0  0
    9.5090    8.4600   22.2230 H   0  0  0  0  0  0  0  0  0  0  0  0
   10.9480    8.6510   23.1930 H   0  0  0  0  0  0  0  0  0  0  0  0
   10.7270   11.8760   22.4430 H   0  0  0  0  0  0  0  0  0  0  0  0
    9.6630   13.6760   23.7330 H   0  0  0  0  0  0  0  0  0  0  0  0
    7.2640   12.9780   26.4130 H   0  0  0  0  0  0  0  0  0  0  0  0
    6.8500   16.5940   25.7920 H   0  0  0  0  0  0  0  0  0  0  0  0
    5.3120   15.6340   26.9700 H   0  0  0  0  0  0  0  0  0  0  0  0
    6.3510   14.2700   27.4180 H   0  0  0  0  0  0  0  0  0  0  0  0
    5.9250   16.8090   28.7980 H   0  0  0  0  0  0  0  0  0  0  0  0
    6.7280   15.3480   29.4070 H   0  0  0  0  0  0  0  0  0  0  0  0
    8.7560   16.4860   29.0360 H   0  0  0  0  0  0  0  0  0  0  0  0
    7.9060   17.7750   28.1370 H   0  0  0  0  0  0  0  0  0  0  0  0
    8.9040   15.1740   27.1990 H   0  0  0  0  0  0  0  0  0  0  0  0
    8.2710    8.9780   24.4450 H   0  0  0  0  0  0  0  0  0  0  0  0
  1  2  1  0
  2  3  2  0
  3  4  1  0
  4  5  2  0
  5  6  1  0
  6  7  1  0
  7  8  2  0
  7  9  1  0
  9 10  1  0
 10 11  1  0
 11 12  1  0
 12 13  1  0
  5 14  1  0
 14 15  1  0
 14 16  2  0
 16  2  1  0
 13  9  1  0
  1 17  1  0
  1 18  1  0
  1 19  1  0
  3 20  1  0
  4 21  1  0
  6 22  1  0
  9 23  1  6
 10 24  1  0
 10 25  1  0
 11 26  1  0
 11 27  1  0
 12 28  1  0
 12 29  1  0
 13 30  1  0
 16 31  1  0
A    1
 C1 
A    2
 C2 
A    3
 C3 
A    4
 C4 
A    5
 C5 
A    6
 N1 
A    7
 C6 
A    8
 O1 
A    9
 C7 
A   10
 C8 
A   11
 C9 
A   12
 C10
A   13
 N2 
A   14
 C11
A   15
 F1 
A   16
 C12
A   17
 H1 
A   18
 H2 
A   19
 H3 
A   20
 H4 
A   21
 H5 
A   22
 H6 
A   23
 H7 
A   24
 H8 
A   25
 H9 
A   26
 H10
A   27
 H11
A   28
 H12
A   29
 H13
A   30
 H14
A   31
 H15
M  END
>  <ref_pdb>  (52) 
x0310_0A

>  <ref_mols>  (52) 
x0554_0A,x0812_0A,x0416_0A

>  <original SMILES>  (52) 
Cc1ccc(NC(=O)[C@H]2CCCN2)c(F)c1

>  <rationale>  (52) 
info hbond:E88; hydroph_interaction:P107+V124; 

>  <intxn_cluster>  (52) 
103

>  <intxn_cluster_rank>  (52) 
235

>  <N_interactions>  (52) 
3

>  <∆∆G>  (52) 
-7.7154

>  <$/mg>  (52) 
0.0

>  <comRMSD>  (52) 
0.851047

>  <N_rotatable_bonds>  (52) 
3

>  <hbond:SER:7>  (52) 
hbond:SER:7    0
hbond:SER:7    0
Name: 51, dtype: object

>  <halogenbond:SER:7>  (52) 
halogenbond:SER:7    0
halogenbond:SER:7    0
Name: 51, dtype: object

>  <hbond:GLY:8>  (52) 
hbond:GLY:8    0
hbond:GLY:8    0
Name: 51, dtype: object

>  <hydroph_interaction:ASN:19>  (52) 
hydroph_interaction:ASN:19    0
hydroph_interaction:ASN:19    0
Name: 51, dtype: object

>  <hbond:ASN:19>  (52) 
hbond:ASN:19    0
hbond:ASN:19    0
Name: 51, dtype: object

>  <halogenbond:ASN:19>  (52) 
halogenbond:ASN:19    0
halogenbond:ASN:19    0
Name: 51, dtype: object

>  <hbond:ARG:20>  (52) 
hbond:ARG:20    0
hbond:ARG:20    0
Name: 51, dtype: object

>  <hydroph_interaction:ARG:20>  (52) 
hydroph_interaction:ARG:20    0
hydroph_interaction:ARG:20    0
Name: 51, dtype: object

>  <saltbridge:ARG:20>  (52) 
saltbridge:ARG:20    0
saltbridge:ARG:20    0
Name: 51, dtype: object

>  <halogenbond:ARG:20>  (52) 
halogenbond:ARG:20    0
halogenbond:ARG:20    0
Name: 51, dtype: object

>  <pication:ARG:20>  (52) 
pication:ARG:20    0
pication:ARG:20    0
Name: 51, dtype: object

>  <hbond:HIS:21>  (52) 
hbond:HIS:21    0
hbond:HIS:21    0
Name: 51, dtype: object

>  <hydroph_interaction:HIS:21>  (52) 
hydroph_interaction:HIS:21    0
hydroph_interaction:HIS:21    0
Name: 51, dtype: object

>  <saltbridge:HIS:21>  (52) 
saltbridge:HIS:21    0
saltbridge:HIS:21    0
Name: 51, dtype: object

>  <pistack:HIS:21>  (52) 
pistack:HIS:21    0
pistack:HIS:21    0
Name: 51, dtype: object

>  <pication:HIS:21>  (52) 
pication:HIS:21    0
pication:HIS:21    0
Name: 51, dtype: object

>  <halogenbond:HIS:21>  (52) 
halogenbond:HIS:21    0
halogenbond:HIS:21    0
Name: 51, dtype: object

>  <hydroph_interaction:LEU:22>  (52) 
hydroph_interaction:LEU:22    0
hydroph_interaction:LEU:22    0
Name: 51, dtype: object

>  <hbond:LEU:22>  (52) 
hbond:LEU:22    0
hbond:LEU:22    0
Name: 51, dtype: object

>  <hydroph_interaction:TRP:28>  (52) 
hydroph_interaction:TRP:28    0
hydroph_interaction:TRP:28    0
Name: 51, dtype: object

>  <hbond:SER:36>  (52) 
hbond:SER:36    0
hbond:SER:36    0
Name: 51, dtype: object

>  <halogenbond:SER:36>  (52) 
halogenbond:SER:36    0
halogenbond:SER:36    0
Name: 51, dtype: object

>  <hbond:ARG:38>  (52) 
hbond:ARG:38    0
hbond:ARG:38    0
Name: 51, dtype: object

>  <halogenbond:ARG:38>  (52) 
halogenbond:ARG:38    0
halogenbond:ARG:38    0
Name: 51, dtype: object

>  <hbond:ASP:39>  (52) 
hbond:ASP:39    0
hbond:ASP:39    0
Name: 51, dtype: object

>  <saltbridge:ASP:39>  (52) 
saltbridge:ASP:39    0
saltbridge:ASP:39    0
Name: 51, dtype: object

>  <hydroph_interaction:ASP:39>  (52) 
hydroph_interaction:ASP:39    0
hydroph_interaction:ASP:39    0
Name: 51, dtype: object

>  <halogenbond:ASP:39>  (52) 
halogenbond:ASP:39    0
halogenbond:ASP:39    0
Name: 51, dtype: object

>  <hydroph_interaction:LEU:40>  (52) 
hydroph_interaction:LEU:40    0
hydroph_interaction:LEU:40    0
Name: 51, dtype: object

>  <hydroph_interaction:TYR:63>  (52) 
hydroph_interaction:TYR:63    0
hydroph_interaction:TYR:63    0
Name: 51, dtype: object

>  <pistack:TYR:63>  (52) 
pistack:TYR:63    0
pistack:TYR:63    0
Name: 51, dtype: object

>  <hbond:TYR:63>  (52) 
hbond:TYR:63    0
hbond:TYR:63    0
Name: 51, dtype: object

>  <hbond:TYR:64>  (52) 
hbond:TYR:64    0
hbond:TYR:64    0
Name: 51, dtype: object

>  <halogenbond:TYR:64>  (52) 
halogenbond:TYR:64    0
halogenbond:TYR:64    0
Name: 51, dtype: object

>  <hydroph_interaction:TYR:64>  (52) 
hydroph_interaction:TYR:64    0
hydroph_interaction:TYR:64    0
Name: 51, dtype: object

>  <hbond:CYS:65>  (52) 
hbond:CYS:65    0
hbond:CYS:65    0
Name: 51, dtype: object

>  <halogenbond:CYS:65>  (52) 
halogenbond:CYS:65    0
halogenbond:CYS:65    0
Name: 51, dtype: object

>  <hbond:SER:66>  (52) 
hbond:SER:66    0
hbond:SER:66    0
Name: 51, dtype: object

>  <hbond:SER:67>  (52) 
hbond:SER:67    0
hbond:SER:67    0
Name: 51, dtype: object

>  <halogenbond:SER:67>  (52) 
halogenbond:SER:67    0
halogenbond:SER:67    0
Name: 51, dtype: object

>  <hydroph_interaction:ARG:68>  (52) 
hydroph_interaction:ARG:68    0
hydroph_interaction:ARG:68    0
Name: 51, dtype: object

>  <hbond:ARG:68>  (52) 
hbond:ARG:68    0
hbond:ARG:68    0
Name: 51, dtype: object

>  <saltbridge:ARG:68>  (52) 
saltbridge:ARG:68    0
saltbridge:ARG:68    0
Name: 51, dtype: object

>  <pication:ARG:68>  (52) 
pication:ARG:68    0
pication:ARG:68    0
Name: 51, dtype: object

>  <hydroph_interaction:TYR:72>  (52) 
hydroph_interaction:TYR:72    0
hydroph_interaction:TYR:72    0
Name: 51, dtype: object

>  <hydroph_interaction:VAL:74>  (52) 
hydroph_interaction:VAL:74    0
hydroph_interaction:VAL:74    0
Name: 51, dtype: object

>  <hydroph_interaction:PHE:76>  (52) 
hydroph_interaction:PHE:76    0
hydroph_interaction:PHE:76    0
Name: 51, dtype: object

>  <hbond:SER:77>  (52) 
hbond:SER:77    0
hbond:SER:77    0
Name: 51, dtype: object

>  <hbond:SER:80>  (52) 
hbond:SER:80    0
hbond:SER:80    0
Name: 51, dtype: object

>  <hbond:LEU:81>  (52) 
hbond:LEU:81    0
hbond:LEU:81    0
Name: 51, dtype: object

>  <halogenbond:LEU:81>  (52) 
halogenbond:LEU:81    0
halogenbond:LEU:81    0
Name: 51, dtype: object

>  <hydroph_interaction:LEU:81>  (52) 
hydroph_interaction:LEU:81    0
hydroph_interaction:LEU:81    0
Name: 51, dtype: object

>  <hydroph_interaction:ILE:82>  (52) 
hydroph_interaction:ILE:82    0
hydroph_interaction:ILE:82    0
Name: 51, dtype: object

>  <hbond:ILE:82>  (52) 
hbond:ILE:82    0
hbond:ILE:82    0
Name: 51, dtype: object

>  <hydroph_interaction:PHE:83>  (52) 
hydroph_interaction:PHE:83    0
hydroph_interaction:PHE:83    0
Name: 51, dtype: object

>  <hbond:PHE:83>  (52) 
hbond:PHE:83    0
hbond:PHE:83    0
Name: 51, dtype: object

>  <halogenbond:PHE:83>  (52) 
halogenbond:PHE:83    0
halogenbond:PHE:83    0
Name: 51, dtype: object

>  <pistack:PHE:83>  (52) 
pistack:PHE:83    0
pistack:PHE:83    0
Name: 51, dtype: object

>  <hydroph_interaction:VAL:84>  (52) 
hydroph_interaction:VAL:84    0
hydroph_interaction:VAL:84    0
Name: 51, dtype: object

>  <hbond:VAL:84>  (52) 
hbond:VAL:84    0
hbond:VAL:84    0
Name: 51, dtype: object

>  <halogenbond:VAL:84>  (52) 
halogenbond:VAL:84    0
halogenbond:VAL:84    0
Name: 51, dtype: object

>  <hydroph_interaction:GLU:85>  (52) 
hydroph_interaction:GLU:85    0
hydroph_interaction:GLU:85    0
Name: 51, dtype: object

>  <hbond:GLU:85>  (52) 
hbond:GLU:85    0
hbond:GLU:85    0
Name: 51, dtype: object

>  <saltbridge:GLU:85>  (52) 
saltbridge:GLU:85    0
saltbridge:GLU:85    0
Name: 51, dtype: object

>  <halogenbond:GLU:85>  (52) 
halogenbond:GLU:85    0
halogenbond:GLU:85    0
Name: 51, dtype: object

>  <hbond:ALA:86>  (52) 
hbond:ALA:86    0
hbond:ALA:86    0
Name: 51, dtype: object

>  <halogenbond:ALA:86>  (52) 
halogenbond:ALA:86    0
halogenbond:ALA:86    0
Name: 51, dtype: object

>  <hydroph_interaction:ALA:86>  (52) 
hydroph_interaction:ALA:86    0
hydroph_interaction:ALA:86    0
Name: 51, dtype: object

>  <hbond:SER:87>  (52) 
hbond:SER:87    0
hbond:SER:87    0
Name: 51, dtype: object

>  <halogenbond:SER:87>  (52) 
halogenbond:SER:87    0
halogenbond:SER:87    0
Name: 51, dtype: object

>  <hbond:GLU:88>  (52) 
hbond:GLU:88    1
hbond:GLU:88    1
Name: 51, dtype: object

>  <hydroph_interaction:GLU:88>  (52) 
hydroph_interaction:GLU:88    0
hydroph_interaction:GLU:88    0
Name: 51, dtype: object

>  <halogenbond:GLU:88>  (52) 
halogenbond:GLU:88    0
halogenbond:GLU:88    0
Name: 51, dtype: object

>  <saltbridge:GLU:88>  (52) 
saltbridge:GLU:88    0
saltbridge:GLU:88    0
Name: 51, dtype: object

>  <hydroph_interaction:TYR:89>  (52) 
hydroph_interaction:TYR:89    0
hydroph_interaction:TYR:89    0
Name: 51, dtype: object

>  <pistack:TYR:89>  (52) 
pistack:TYR:89    0
pistack:TYR:89    0
Name: 51, dtype: object

>  <hbond:TYR:89>  (52) 
hbond:TYR:89    0
hbond:TYR:89    0
Name: 51, dtype: object

>  <halogenbond:TYR:89>  (52) 
halogenbond:TYR:89    0
halogenbond:TYR:89    0
Name: 51, dtype: object

>  <hbond:TYR:90>  (52) 
hbond:TYR:90    0
hbond:TYR:90    0
Name: 51, dtype: object

>  <hydroph_interaction:TYR:90>  (52) 
hydroph_interaction:TYR:90    0
hydroph_interaction:TYR:90    0
Name: 51, dtype: object

>  <pistack:TYR:90>  (52) 
pistack:TYR:90    0
pistack:TYR:90    0
Name: 51, dtype: object

>  <halogenbond:TYR:90>  (52) 
halogenbond:TYR:90    0
halogenbond:TYR:90    0
Name: 51, dtype: object

>  <pication:TYR:90>  (52) 
pication:TYR:90    0
pication:TYR:90    0
Name: 51, dtype: object

>  <hydroph_interaction:PRO:91>  (52) 
hydroph_interaction:PRO:91    0
hydroph_interaction:PRO:91    0
Name: 51, dtype: object

>  <halogenbond:PRO:91>  (52) 
halogenbond:PRO:91    0
halogenbond:PRO:91    0
Name: 51, dtype: object

>  <hbond:PRO:91>  (52) 
hbond:PRO:91    0
hbond:PRO:91    0
Name: 51, dtype: object

>  <hydroph_interaction:ALA:92>  (52) 
hydroph_interaction:ALA:92    0
hydroph_interaction:ALA:92    0
Name: 51, dtype: object

>  <hbond:ARG:93>  (52) 
hbond:ARG:93    0
hbond:ARG:93    0
Name: 51, dtype: object

>  <pication:ARG:93>  (52) 
pication:ARG:93    0
pication:ARG:93    0
Name: 51, dtype: object

>  <saltbridge:ARG:93>  (52) 
saltbridge:ARG:93    0
saltbridge:ARG:93    0
Name: 51, dtype: object

>  <hydroph_interaction:ARG:93>  (52) 
hydroph_interaction:ARG:93    0
hydroph_interaction:ARG:93    0
Name: 51, dtype: object

>  <halogenbond:ARG:93>  (52) 
halogenbond:ARG:93    0
halogenbond:ARG:93    0
Name: 51, dtype: object

>  <hydroph_interaction:TYR:94>  (52) 
hydroph_interaction:TYR:94    0
hydroph_interaction:TYR:94    0
Name: 51, dtype: object

>  <hbond:TYR:94>  (52) 
hbond:TYR:94    0
hbond:TYR:94    0
Name: 51, dtype: object

>  <halogenbond:GLN:95>  (52) 
halogenbond:GLN:95    0
halogenbond:GLN:95    0
Name: 51, dtype: object

>  <hbond:GLN:95>  (52) 
hbond:GLN:95    0
hbond:GLN:95    0
Name: 51, dtype: object

>  <hydroph_interaction:GLN:95>  (52) 
hydroph_interaction:GLN:95    0
hydroph_interaction:GLN:95    0
Name: 51, dtype: object

>  <hbond:SER:96>  (52) 
hbond:SER:96    0
hbond:SER:96    0
Name: 51, dtype: object

>  <hydroph_interaction:LEU:98>  (52) 
hydroph_interaction:LEU:98    0
hydroph_interaction:LEU:98    0
Name: 51, dtype: object

>  <hbond:LEU:98>  (52) 
hbond:LEU:98    0
hbond:LEU:98    0
Name: 51, dtype: object

>  <hbond:MET:99>  (52) 
hbond:MET:99    0
hbond:MET:99    0
Name: 51, dtype: object

>  <hydroph_interaction:MET:99>  (52) 
hydroph_interaction:MET:99    0
hydroph_interaction:MET:99    0
Name: 51, dtype: object

>  <halogenbond:MET:99>  (52) 
halogenbond:MET:99    0
halogenbond:MET:99    0
Name: 51, dtype: object

>  <hydroph_interaction:LEU:100>  (52) 
hydroph_interaction:LEU:100    0
hydroph_interaction:LEU:100    0
Name: 51, dtype: object

>  <hbond:LEU:100>  (52) 
hbond:LEU:100    0
hbond:LEU:100    0
Name: 51, dtype: object

>  <hbond:ALA:101>  (52) 
hbond:ALA:101    0
hbond:ALA:101    0
Name: 51, dtype: object

>  <hydroph_interaction:ALA:101>  (52) 
hydroph_interaction:ALA:101    0
hydroph_interaction:ALA:101    0
Name: 51, dtype: object

>  <hydroph_interaction:VAL:102>  (52) 
hydroph_interaction:VAL:102    0
hydroph_interaction:VAL:102    0
Name: 51, dtype: object

>  <hbond:VAL:102>  (52) 
hbond:VAL:102    0
hbond:VAL:102    0
Name: 51, dtype: object

>  <hbond:GLY:103>  (52) 
hbond:GLY:103    0
hbond:GLY:103    0
Name: 51, dtype: object

>  <halogenbond:GLY:103>  (52) 
halogenbond:GLY:103    0
halogenbond:GLY:103    0
Name: 51, dtype: object

>  <hydroph_interaction:HIS:104>  (52) 
hydroph_interaction:HIS:104    0
hydroph_interaction:HIS:104    0
Name: 51, dtype: object

>  <hbond:HIS:104>  (52) 
hbond:HIS:104    0
hbond:HIS:104    0
Name: 51, dtype: object

>  <saltbridge:HIS:104>  (52) 
saltbridge:HIS:104    0
saltbridge:HIS:104    0
Name: 51, dtype: object

>  <pication:HIS:104>  (52) 
pication:HIS:104    0
pication:HIS:104    0
Name: 51, dtype: object

>  <pistack:HIS:104>  (52) 
pistack:HIS:104    0
pistack:HIS:104    0
Name: 51, dtype: object

>  <halogenbond:HIS:104>  (52) 
halogenbond:HIS:104    0
halogenbond:HIS:104    0
Name: 51, dtype: object

>  <hbond:SER:105>  (52) 
hbond:SER:105    0
hbond:SER:105    0
Name: 51, dtype: object

>  <halogenbond:SER:105>  (52) 
halogenbond:SER:105    0
halogenbond:SER:105    0
Name: 51, dtype: object

>  <hbond:GLU:106>  (52) 
hbond:GLU:106    0
hbond:GLU:106    0
Name: 51, dtype: object

>  <hydroph_interaction:GLU:106>  (52) 
hydroph_interaction:GLU:106    0
hydroph_interaction:GLU:106    0
Name: 51, dtype: object

>  <saltbridge:GLU:106>  (52) 
saltbridge:GLU:106    0
saltbridge:GLU:106    0
Name: 51, dtype: object

>  <halogenbond:GLU:106>  (52) 
halogenbond:GLU:106    0
halogenbond:GLU:106    0
Name: 51, dtype: object

>  <hydroph_interaction:PRO:107>  (52) 
hydroph_interaction:PRO:107    1
hydroph_interaction:PRO:107    1
Name: 51, dtype: object

>  <hbond:PRO:107>  (52) 
hbond:PRO:107    0
hbond:PRO:107    0
Name: 51, dtype: object

>  <halogenbond:PRO:107>  (52) 
halogenbond:PRO:107    0
halogenbond:PRO:107    0
Name: 51, dtype: object

>  <hbond:GLY:108>  (52) 
hbond:GLY:108    0
hbond:GLY:108    0
Name: 51, dtype: object

>  <halogenbond:GLY:108>  (52) 
halogenbond:GLY:108    0
halogenbond:GLY:108    0
Name: 51, dtype: object

>  <hbond:ASP:109>  (52) 
hbond:ASP:109    0
hbond:ASP:109    0
Name: 51, dtype: object

>  <hydroph_interaction:ASP:109>  (52) 
hydroph_interaction:ASP:109    0
hydroph_interaction:ASP:109    0
Name: 51, dtype: object

>  <saltbridge:ASP:109>  (52) 
saltbridge:ASP:109    0
saltbridge:ASP:109    0
Name: 51, dtype: object

>  <hbond:CYS:110>  (52) 
hbond:CYS:110    0
hbond:CYS:110    0
Name: 51, dtype: object

>  <halogenbond:CYS:110>  (52) 
halogenbond:CYS:110    0
halogenbond:CYS:110    0
Name: 51, dtype: object

>  <hbond:GLY:111>  (52) 
hbond:GLY:111    0
hbond:GLY:111    0
Name: 51, dtype: object

>  <hbond:GLY:112>  (52) 
hbond:GLY:112    0
hbond:GLY:112    0
Name: 51, dtype: object

>  <hbond:ILE:113>  (52) 
hbond:ILE:113    0
hbond:ILE:113    0
Name: 51, dtype: object

>  <hydroph_interaction:LEU:114>  (52) 
hydroph_interaction:LEU:114    0
hydroph_interaction:LEU:114    0
Name: 51, dtype: object

>  <hbond:LEU:114>  (52) 
hbond:LEU:114    0
hbond:LEU:114    0
Name: 51, dtype: object

>  <hydroph_interaction:ILE:123>  (52) 
hydroph_interaction:ILE:123    0
hydroph_interaction:ILE:123    0
Name: 51, dtype: object

>  <hbond:ILE:123>  (52) 
hbond:ILE:123    0
hbond:ILE:123    0
Name: 51, dtype: object

>  <hydroph_interaction:VAL:124>  (52) 
hydroph_interaction:VAL:124    1
hydroph_interaction:VAL:124    1
Name: 51, dtype: object

>  <hbond:VAL:124>  (52) 
hbond:VAL:124    0
hbond:VAL:124    0
Name: 51, dtype: object

>  <halogenbond:VAL:124>  (52) 
halogenbond:VAL:124    0
halogenbond:VAL:124    0
Name: 51, dtype: object

>  <hbond:SER:125>  (52) 
hbond:SER:125    0
hbond:SER:125    0
Name: 51, dtype: object

>  <halogenbond:SER:125>  (52) 
halogenbond:SER:125    0
halogenbond:SER:125    0
Name: 51, dtype: object

>  <hydroph_interaction:THR:126>  (52) 
hydroph_interaction:THR:126    0
hydroph_interaction:THR:126    0
Name: 51, dtype: object

>  <hbond:THR:126>  (52) 
hbond:THR:126    0
hbond:THR:126    0
Name: 51, dtype: object

>  <halogenbond:THR:126>  (52) 
halogenbond:THR:126    0
halogenbond:THR:126    0
Name: 51, dtype: object

>  <hbond:GLY:127>  (52) 
hbond:GLY:127    0
hbond:GLY:127    0
Name: 51, dtype: object

>  <halogenbond:GLY:127>  (52) 
halogenbond:GLY:127    0
halogenbond:GLY:127    0
Name: 51, dtype: object

>  <hydroph_interaction:GLY:127>  (52) 
hydroph_interaction:GLY:127    0
hydroph_interaction:GLY:127    0
Name: 51, dtype: object

>  <hbond:GLY:128>  (52) 
hbond:GLY:128    0
hbond:GLY:128    0
Name: 51, dtype: object

>  <halogenbond:GLY:128>  (52) 
halogenbond:GLY:128    0
halogenbond:GLY:128    0
Name: 51, dtype: object

>  <hydroph_interaction:GLY:128>  (52) 
hydroph_interaction:GLY:128    0
hydroph_interaction:GLY:128    0
Name: 51, dtype: object

>  <hbond:ASN:129>  (52) 
hbond:ASN:129    0
hbond:ASN:129    0
Name: 51, dtype: object

>  <hydroph_interaction:ASN:129>  (52) 
hydroph_interaction:ASN:129    0
hydroph_interaction:ASN:129    0
Name: 51, dtype: object

>  <halogenbond:ASN:129>  (52) 
halogenbond:ASN:129    0
halogenbond:ASN:129    0
Name: 51, dtype: object

>  <hbond:GLY:130>  (52) 
hbond:GLY:130    0
hbond:GLY:130    0
Name: 51, dtype: object

>  <hydroph_interaction:LEU:131>  (52) 
hydroph_interaction:LEU:131    0
hydroph_interaction:LEU:131    0
Name: 51, dtype: object

>  <hbond:LEU:131>  (52) 
hbond:LEU:131    0
hbond:LEU:131    0
Name: 51, dtype: object

>  <halogenbond:LEU:131>  (52) 
halogenbond:LEU:131    0
halogenbond:LEU:131    0
Name: 51, dtype: object

>  <hydroph_interaction:VAL:132>  (52) 
hydroph_interaction:VAL:132    0
hydroph_interaction:VAL:132    0
Name: 51, dtype: object

>  <hbond:VAL:132>  (52) 
hbond:VAL:132    0
hbond:VAL:132    0
Name: 51, dtype: object

>  <hbond:GLY:133>  (52) 
hbond:GLY:133    0
hbond:GLY:133    0
Name: 51, dtype: object

>  <halogenbond:GLY:133>  (52) 
halogenbond:GLY:133    0
halogenbond:GLY:133    0
Name: 51, dtype: object

>  <hydroph_interaction:PHE:134>  (52) 
hydroph_interaction:PHE:134    0
hydroph_interaction:PHE:134    0
Name: 51, dtype: object

>  <hbond:PHE:134>  (52) 
hbond:PHE:134    0
hbond:PHE:134    0
Name: 51, dtype: object

>  <pistack:PHE:134>  (52) 
pistack:PHE:134    0
pistack:PHE:134    0
Name: 51, dtype: object

>  <pication:PHE:134>  (52) 
pication:PHE:134    0
pication:PHE:134    0
Name: 51, dtype: object

>  <hydroph_interaction:ALA:135>  (52) 
hydroph_interaction:ALA:135    0
hydroph_interaction:ALA:135    0
Name: 51, dtype: object

>  <hbond:ALA:135>  (52) 
hbond:ALA:135    0
hbond:ALA:135    0
Name: 51, dtype: object

$$$$
Z5298503208
     RDKit          3D

 33 34  0  0  0  0  0  0  0  0999 V2000
    9.5650   14.3240   21.6060 C   0  0  0  0  0  0  0  0  0  0  0  0
   10.2790   13.6300   22.5120 C   0  0  0  0  0  0  0  0  0  0  0  0
    9.6720   12.4630   23.1490 C   0  0  0  0  0  0  0  0  0  0  0  0
   10.1080   11.2040   22.7920 C   0  0  0  0  0  0  0  0  0  0  0  0
    9.5820   10.0570   23.3430 C   0  0  0  0  0  0  0  0  0  0  0  0
   10.1610    8.7870   22.8400 C   0  0  0  0  0  0  0  0  0  0  0  0
    8.5700   10.1500   24.3040 C   0  0  0  0  0  0  0  0  0  0  0  0
    8.1250   11.4130   24.6710 C   0  0  0  0  0  0  0  0  0  0  0  0
    8.6740   12.5600   24.0940 C   0  0  0  0  0  0  0  0  0  0  0  0
    8.0390   13.7970   24.6350 C   0  0  0  0  0  0  0  0  0  0  0  0
    7.2790   13.2740   25.8550 C   0  0  0  0  0  0  0  0  0  0  0  0
    7.0630   11.7680   25.6650 C   0  0  0  0  0  0  0  0  0  0  0  0
   11.6810   13.9600   22.9420 C   0  0  1  0  0  0  0  0  0  0  0  0
   12.3670   14.8980   21.9550 C   0  0  0  0  0  0  0  0  0  0  0  0
   11.6510   14.5910   24.2240 O   0  0  0  0  0  0  0  0  0  0  0  0
    9.9770   15.1980   21.1040 H   0  0  0  0  0  0  0  0  0  0  0  0
    8.5550   14.0410   21.3400 H   0  0  0  0  0  0  0  0  0  0  0  0
   10.8870   11.1110   22.0550 H   0  0  0  0  0  0  0  0  0  0  0  0
   10.2190    8.0580   23.6250 H   0  0  0  0  0  0  0  0  0  0  0  0
   11.1630    8.9590   22.4540 H   0  0  0  0  0  0  0  0  0  0  0  0
    9.5620    8.3850   22.0170 H   0  0  0  0  0  0  0  0  0  0  0  0
    8.1400    9.2700   24.7500 H   0  0  0  0  0  0  0  0  0  0  0  0
    8.8110   14.5150   24.9350 H   0  0  0  0  0  0  0  0  0  0  0  0
    7.3540   14.2650   23.9210 H   0  0  0  0  0  0  0  0  0  0  0  0
    7.7900   13.5040   26.7960 H   0  0  0  0  0  0  0  0  0  0  0  0
    6.2980   13.7670   25.8970 H   0  0  0  0  0  0  0  0  0  0  0  0
    6.0750   11.5780   25.2520 H   0  0  0  0  0  0  0  0  0  0  0  0
    7.1640   11.2240   26.6050 H   0  0  0  0  0  0  0  0  0  0  0  0
   12.2840   13.0570   23.0570 H   0  0  0  0  0  0  0  0  0  0  0  0
   12.5330   14.4030   20.9900 H   0  0  0  0  0  0  0  0  0  0  0  0
   13.3300   15.2540   22.3340 H   0  0  0  0  0  0  0  0  0  0  0  0
   11.7360   15.7690   21.7540 H   0  0  0  0  0  0  0  0  0  0  0  0
   12.3150   15.3060   24.1900 H   0  0  0  0  0  0  0  0  0  0  0  0
  1  2  2  0
  2  3  1  0
  3  4  2  0
  4  5  1  0
  5  6  1  0
  5  7  2  0
  7  8  1  0
  8  9  2  0
  9 10  1  0
 10 11  1  0
 11 12  1  0
  2 13  1  0
 13 14  1  0
 13 15  1  0
  9  3  1  0
 12  8  1  0
  1 16  1  0
  1 17  1  0
  4 18  1  0
  6 19  1  0
  6 20  1  0
  6 21  1  0
  7 22  1  0
 10 23  1  0
 10 24  1  0
 11 25  1  0
 11 26  1  0
 12 27  1  0
 12 28  1  0
 13 29  1  1
 14 30  1  0
 14 31  1  0
 14 32  1  0
 15 33  1  0
A    1
 C1 
A    2
 C2 
A    3
 C3 
A    4
 C4 
A    5
 C5 
A    6
 C6 
A    7
 C7 
A    8
 C8 
A    9
 C9 
A   10
 C10
A   11
 C11
A   12
 C12
A   13
 C13
A   14
 C14
A   15
 O1 
A   16
 H1 
A   17
 H2 
A   18
 H3 
A   19
 H4 
A   20
 H5 
A   21
 H6 
A   22
 H7 
A   23
 H8 
A   24
 H9 
A   25
 H10
A   26
 H11
A   27
 H12
A   28
 H13
A   29
 H14
A   30
 H15
A   31
 H16
A   32
 H17
A   33
 H18
M  END
>  <ref_pdb>  (53) 
x0310_0A

>  <ref_mols>  (53) 
x0554_0A,x0739_0A

>  <original SMILES>  (53) 
C=C(c1cc(C)cc2c1CCC2)[C@@H](C)O

>  <rationale>  (53) 
info hbond:E88; hydroph_interaction:V124; 

>  <intxn_cluster>  (53) 
103

>  <intxn_cluster_rank>  (53) 
244

>  <N_interactions>  (53) 
2

>  <∆∆G>  (53) 
-10.639245

>  <$/mg>  (53) 
244.5

>  <comRMSD>  (53) 
0.747761

>  <N_rotatable_bonds>  (53) 
5

>  <hbond:SER:7>  (53) 
hbond:SER:7    0
hbond:SER:7    0
Name: 52, dtype: object

>  <halogenbond:SER:7>  (53) 
halogenbond:SER:7    0
halogenbond:SER:7    0
Name: 52, dtype: object

>  <hbond:GLY:8>  (53) 
hbond:GLY:8    0
hbond:GLY:8    0
Name: 52, dtype: object

>  <hydroph_interaction:ASN:19>  (53) 
hydroph_interaction:ASN:19    0
hydroph_interaction:ASN:19    0
Name: 52, dtype: object

>  <hbond:ASN:19>  (53) 
hbond:ASN:19    0
hbond:ASN:19    0
Name: 52, dtype: object

>  <halogenbond:ASN:19>  (53) 
halogenbond:ASN:19    0
halogenbond:ASN:19    0
Name: 52, dtype: object

>  <hbond:ARG:20>  (53) 
hbond:ARG:20    0
hbond:ARG:20    0
Name: 52, dtype: object

>  <hydroph_interaction:ARG:20>  (53) 
hydroph_interaction:ARG:20    0
hydroph_interaction:ARG:20    0
Name: 52, dtype: object

>  <saltbridge:ARG:20>  (53) 
saltbridge:ARG:20    0
saltbridge:ARG:20    0
Name: 52, dtype: object

>  <halogenbond:ARG:20>  (53) 
halogenbond:ARG:20    0
halogenbond:ARG:20    0
Name: 52, dtype: object

>  <pication:ARG:20>  (53) 
pication:ARG:20    0
pication:ARG:20    0
Name: 52, dtype: object

>  <hbond:HIS:21>  (53) 
hbond:HIS:21    0
hbond:HIS:21    0
Name: 52, dtype: object

>  <hydroph_interaction:HIS:21>  (53) 
hydroph_interaction:HIS:21    0
hydroph_interaction:HIS:21    0
Name: 52, dtype: object

>  <saltbridge:HIS:21>  (53) 
saltbridge:HIS:21    0
saltbridge:HIS:21    0
Name: 52, dtype: object

>  <pistack:HIS:21>  (53) 
pistack:HIS:21    0
pistack:HIS:21    0
Name: 52, dtype: object

>  <pication:HIS:21>  (53) 
pication:HIS:21    0
pication:HIS:21    0
Name: 52, dtype: object

>  <halogenbond:HIS:21>  (53) 
halogenbond:HIS:21    0
halogenbond:HIS:21    0
Name: 52, dtype: object

>  <hydroph_interaction:LEU:22>  (53) 
hydroph_interaction:LEU:22    0
hydroph_interaction:LEU:22    0
Name: 52, dtype: object

>  <hbond:LEU:22>  (53) 
hbond:LEU:22    0
hbond:LEU:22    0
Name: 52, dtype: object

>  <hydroph_interaction:TRP:28>  (53) 
hydroph_interaction:TRP:28    0
hydroph_interaction:TRP:28    0
Name: 52, dtype: object

>  <hbond:SER:36>  (53) 
hbond:SER:36    0
hbond:SER:36    0
Name: 52, dtype: object

>  <halogenbond:SER:36>  (53) 
halogenbond:SER:36    0
halogenbond:SER:36    0
Name: 52, dtype: object

>  <hbond:ARG:38>  (53) 
hbond:ARG:38    0
hbond:ARG:38    0
Name: 52, dtype: object

>  <halogenbond:ARG:38>  (53) 
halogenbond:ARG:38    0
halogenbond:ARG:38    0
Name: 52, dtype: object

>  <hbond:ASP:39>  (53) 
hbond:ASP:39    0
hbond:ASP:39    0
Name: 52, dtype: object

>  <saltbridge:ASP:39>  (53) 
saltbridge:ASP:39    0
saltbridge:ASP:39    0
Name: 52, dtype: object

>  <hydroph_interaction:ASP:39>  (53) 
hydroph_interaction:ASP:39    0
hydroph_interaction:ASP:39    0
Name: 52, dtype: object

>  <halogenbond:ASP:39>  (53) 
halogenbond:ASP:39    0
halogenbond:ASP:39    0
Name: 52, dtype: object

>  <hydroph_interaction:LEU:40>  (53) 
hydroph_interaction:LEU:40    0
hydroph_interaction:LEU:40    0
Name: 52, dtype: object

>  <hydroph_interaction:TYR:63>  (53) 
hydroph_interaction:TYR:63    0
hydroph_interaction:TYR:63    0
Name: 52, dtype: object

>  <pistack:TYR:63>  (53) 
pistack:TYR:63    0
pistack:TYR:63    0
Name: 52, dtype: object

>  <hbond:TYR:63>  (53) 
hbond:TYR:63    0
hbond:TYR:63    0
Name: 52, dtype: object

>  <hbond:TYR:64>  (53) 
hbond:TYR:64    0
hbond:TYR:64    0
Name: 52, dtype: object

>  <halogenbond:TYR:64>  (53) 
halogenbond:TYR:64    0
halogenbond:TYR:64    0
Name: 52, dtype: object

>  <hydroph_interaction:TYR:64>  (53) 
hydroph_interaction:TYR:64    0
hydroph_interaction:TYR:64    0
Name: 52, dtype: object

>  <hbond:CYS:65>  (53) 
hbond:CYS:65    0
hbond:CYS:65    0
Name: 52, dtype: object

>  <halogenbond:CYS:65>  (53) 
halogenbond:CYS:65    0
halogenbond:CYS:65    0
Name: 52, dtype: object

>  <hbond:SER:66>  (53) 
hbond:SER:66    0
hbond:SER:66    0
Name: 52, dtype: object

>  <hbond:SER:67>  (53) 
hbond:SER:67    0
hbond:SER:67    0
Name: 52, dtype: object

>  <halogenbond:SER:67>  (53) 
halogenbond:SER:67    0
halogenbond:SER:67    0
Name: 52, dtype: object

>  <hydroph_interaction:ARG:68>  (53) 
hydroph_interaction:ARG:68    0
hydroph_interaction:ARG:68    0
Name: 52, dtype: object

>  <hbond:ARG:68>  (53) 
hbond:ARG:68    0
hbond:ARG:68    0
Name: 52, dtype: object

>  <saltbridge:ARG:68>  (53) 
saltbridge:ARG:68    0
saltbridge:ARG:68    0
Name: 52, dtype: object

>  <pication:ARG:68>  (53) 
pication:ARG:68    0
pication:ARG:68    0
Name: 52, dtype: object

>  <hydroph_interaction:TYR:72>  (53) 
hydroph_interaction:TYR:72    0
hydroph_interaction:TYR:72    0
Name: 52, dtype: object

>  <hydroph_interaction:VAL:74>  (53) 
hydroph_interaction:VAL:74    0
hydroph_interaction:VAL:74    0
Name: 52, dtype: object

>  <hydroph_interaction:PHE:76>  (53) 
hydroph_interaction:PHE:76    0
hydroph_interaction:PHE:76    0
Name: 52, dtype: object

>  <hbond:SER:77>  (53) 
hbond:SER:77    0
hbond:SER:77    0
Name: 52, dtype: object

>  <hbond:SER:80>  (53) 
hbond:SER:80    0
hbond:SER:80    0
Name: 52, dtype: object

>  <hbond:LEU:81>  (53) 
hbond:LEU:81    0
hbond:LEU:81    0
Name: 52, dtype: object

>  <halogenbond:LEU:81>  (53) 
halogenbond:LEU:81    0
halogenbond:LEU:81    0
Name: 52, dtype: object

>  <hydroph_interaction:LEU:81>  (53) 
hydroph_interaction:LEU:81    0
hydroph_interaction:LEU:81    0
Name: 52, dtype: object

>  <hydroph_interaction:ILE:82>  (53) 
hydroph_interaction:ILE:82    0
hydroph_interaction:ILE:82    0
Name: 52, dtype: object

>  <hbond:ILE:82>  (53) 
hbond:ILE:82    0
hbond:ILE:82    0
Name: 52, dtype: object

>  <hydroph_interaction:PHE:83>  (53) 
hydroph_interaction:PHE:83    0
hydroph_interaction:PHE:83    0
Name: 52, dtype: object

>  <hbond:PHE:83>  (53) 
hbond:PHE:83    0
hbond:PHE:83    0
Name: 52, dtype: object

>  <halogenbond:PHE:83>  (53) 
halogenbond:PHE:83    0
halogenbond:PHE:83    0
Name: 52, dtype: object

>  <pistack:PHE:83>  (53) 
pistack:PHE:83    0
pistack:PHE:83    0
Name: 52, dtype: object

>  <hydroph_interaction:VAL:84>  (53) 
hydroph_interaction:VAL:84    0
hydroph_interaction:VAL:84    0
Name: 52, dtype: object

>  <hbond:VAL:84>  (53) 
hbond:VAL:84    0
hbond:VAL:84    0
Name: 52, dtype: object

>  <halogenbond:VAL:84>  (53) 
halogenbond:VAL:84    0
halogenbond:VAL:84    0
Name: 52, dtype: object

>  <hydroph_interaction:GLU:85>  (53) 
hydroph_interaction:GLU:85    0
hydroph_interaction:GLU:85    0
Name: 52, dtype: object

>  <hbond:GLU:85>  (53) 
hbond:GLU:85    0
hbond:GLU:85    0
Name: 52, dtype: object

>  <saltbridge:GLU:85>  (53) 
saltbridge:GLU:85    0
saltbridge:GLU:85    0
Name: 52, dtype: object

>  <halogenbond:GLU:85>  (53) 
halogenbond:GLU:85    0
halogenbond:GLU:85    0
Name: 52, dtype: object

>  <hbond:ALA:86>  (53) 
hbond:ALA:86    0
hbond:ALA:86    0
Name: 52, dtype: object

>  <halogenbond:ALA:86>  (53) 
halogenbond:ALA:86    0
halogenbond:ALA:86    0
Name: 52, dtype: object

>  <hydroph_interaction:ALA:86>  (53) 
hydroph_interaction:ALA:86    0
hydroph_interaction:ALA:86    0
Name: 52, dtype: object

>  <hbond:SER:87>  (53) 
hbond:SER:87    0
hbond:SER:87    0
Name: 52, dtype: object

>  <halogenbond:SER:87>  (53) 
halogenbond:SER:87    0
halogenbond:SER:87    0
Name: 52, dtype: object

>  <hbond:GLU:88>  (53) 
hbond:GLU:88    1
hbond:GLU:88    1
Name: 52, dtype: object

>  <hydroph_interaction:GLU:88>  (53) 
hydroph_interaction:GLU:88    0
hydroph_interaction:GLU:88    0
Name: 52, dtype: object

>  <halogenbond:GLU:88>  (53) 
halogenbond:GLU:88    0
halogenbond:GLU:88    0
Name: 52, dtype: object

>  <saltbridge:GLU:88>  (53) 
saltbridge:GLU:88    0
saltbridge:GLU:88    0
Name: 52, dtype: object

>  <hydroph_interaction:TYR:89>  (53) 
hydroph_interaction:TYR:89    0
hydroph_interaction:TYR:89    0
Name: 52, dtype: object

>  <pistack:TYR:89>  (53) 
pistack:TYR:89    0
pistack:TYR:89    0
Name: 52, dtype: object

>  <hbond:TYR:89>  (53) 
hbond:TYR:89    0
hbond:TYR:89    0
Name: 52, dtype: object

>  <halogenbond:TYR:89>  (53) 
halogenbond:TYR:89    0
halogenbond:TYR:89    0
Name: 52, dtype: object

>  <hbond:TYR:90>  (53) 
hbond:TYR:90    0
hbond:TYR:90    0
Name: 52, dtype: object

>  <hydroph_interaction:TYR:90>  (53) 
hydroph_interaction:TYR:90    0
hydroph_interaction:TYR:90    0
Name: 52, dtype: object

>  <pistack:TYR:90>  (53) 
pistack:TYR:90    0
pistack:TYR:90    0
Name: 52, dtype: object

>  <halogenbond:TYR:90>  (53) 
halogenbond:TYR:90    0
halogenbond:TYR:90    0
Name: 52, dtype: object

>  <pication:TYR:90>  (53) 
pication:TYR:90    0
pication:TYR:90    0
Name: 52, dtype: object

>  <hydroph_interaction:PRO:91>  (53) 
hydroph_interaction:PRO:91    0
hydroph_interaction:PRO:91    0
Name: 52, dtype: object

>  <halogenbond:PRO:91>  (53) 
halogenbond:PRO:91    0
halogenbond:PRO:91    0
Name: 52, dtype: object

>  <hbond:PRO:91>  (53) 
hbond:PRO:91    0
hbond:PRO:91    0
Name: 52, dtype: object

>  <hydroph_interaction:ALA:92>  (53) 
hydroph_interaction:ALA:92    0
hydroph_interaction:ALA:92    0
Name: 52, dtype: object

>  <hbond:ARG:93>  (53) 
hbond:ARG:93    0
hbond:ARG:93    0
Name: 52, dtype: object

>  <pication:ARG:93>  (53) 
pication:ARG:93    0
pication:ARG:93    0
Name: 52, dtype: object

>  <saltbridge:ARG:93>  (53) 
saltbridge:ARG:93    0
saltbridge:ARG:93    0
Name: 52, dtype: object

>  <hydroph_interaction:ARG:93>  (53) 
hydroph_interaction:ARG:93    0
hydroph_interaction:ARG:93    0
Name: 52, dtype: object

>  <halogenbond:ARG:93>  (53) 
halogenbond:ARG:93    0
halogenbond:ARG:93    0
Name: 52, dtype: object

>  <hydroph_interaction:TYR:94>  (53) 
hydroph_interaction:TYR:94    0
hydroph_interaction:TYR:94    0
Name: 52, dtype: object

>  <hbond:TYR:94>  (53) 
hbond:TYR:94    0
hbond:TYR:94    0
Name: 52, dtype: object

>  <halogenbond:GLN:95>  (53) 
halogenbond:GLN:95    0
halogenbond:GLN:95    0
Name: 52, dtype: object

>  <hbond:GLN:95>  (53) 
hbond:GLN:95    0
hbond:GLN:95    0
Name: 52, dtype: object

>  <hydroph_interaction:GLN:95>  (53) 
hydroph_interaction:GLN:95    0
hydroph_interaction:GLN:95    0
Name: 52, dtype: object

>  <hbond:SER:96>  (53) 
hbond:SER:96    0
hbond:SER:96    0
Name: 52, dtype: object

>  <hydroph_interaction:LEU:98>  (53) 
hydroph_interaction:LEU:98    0
hydroph_interaction:LEU:98    0
Name: 52, dtype: object

>  <hbond:LEU:98>  (53) 
hbond:LEU:98    0
hbond:LEU:98    0
Name: 52, dtype: object

>  <hbond:MET:99>  (53) 
hbond:MET:99    0
hbond:MET:99    0
Name: 52, dtype: object

>  <hydroph_interaction:MET:99>  (53) 
hydroph_interaction:MET:99    0
hydroph_interaction:MET:99    0
Name: 52, dtype: object

>  <halogenbond:MET:99>  (53) 
halogenbond:MET:99    0
halogenbond:MET:99    0
Name: 52, dtype: object

>  <hydroph_interaction:LEU:100>  (53) 
hydroph_interaction:LEU:100    0
hydroph_interaction:LEU:100    0
Name: 52, dtype: object

>  <hbond:LEU:100>  (53) 
hbond:LEU:100    0
hbond:LEU:100    0
Name: 52, dtype: object

>  <hbond:ALA:101>  (53) 
hbond:ALA:101    0
hbond:ALA:101    0
Name: 52, dtype: object

>  <hydroph_interaction:ALA:101>  (53) 
hydroph_interaction:ALA:101    0
hydroph_interaction:ALA:101    0
Name: 52, dtype: object

>  <hydroph_interaction:VAL:102>  (53) 
hydroph_interaction:VAL:102    0
hydroph_interaction:VAL:102    0
Name: 52, dtype: object

>  <hbond:VAL:102>  (53) 
hbond:VAL:102    0
hbond:VAL:102    0
Name: 52, dtype: object

>  <hbond:GLY:103>  (53) 
hbond:GLY:103    0
hbond:GLY:103    0
Name: 52, dtype: object

>  <halogenbond:GLY:103>  (53) 
halogenbond:GLY:103    0
halogenbond:GLY:103    0
Name: 52, dtype: object

>  <hydroph_interaction:HIS:104>  (53) 
hydroph_interaction:HIS:104    0
hydroph_interaction:HIS:104    0
Name: 52, dtype: object

>  <hbond:HIS:104>  (53) 
hbond:HIS:104    0
hbond:HIS:104    0
Name: 52, dtype: object

>  <saltbridge:HIS:104>  (53) 
saltbridge:HIS:104    0
saltbridge:HIS:104    0
Name: 52, dtype: object

>  <pication:HIS:104>  (53) 
pication:HIS:104    0
pication:HIS:104    0
Name: 52, dtype: object

>  <pistack:HIS:104>  (53) 
pistack:HIS:104    0
pistack:HIS:104    0
Name: 52, dtype: object

>  <halogenbond:HIS:104>  (53) 
halogenbond:HIS:104    0
halogenbond:HIS:104    0
Name: 52, dtype: object

>  <hbond:SER:105>  (53) 
hbond:SER:105    0
hbond:SER:105    0
Name: 52, dtype: object

>  <halogenbond:SER:105>  (53) 
halogenbond:SER:105    0
halogenbond:SER:105    0
Name: 52, dtype: object

>  <hbond:GLU:106>  (53) 
hbond:GLU:106    0
hbond:GLU:106    0
Name: 52, dtype: object

>  <hydroph_interaction:GLU:106>  (53) 
hydroph_interaction:GLU:106    0
hydroph_interaction:GLU:106    0
Name: 52, dtype: object

>  <saltbridge:GLU:106>  (53) 
saltbridge:GLU:106    0
saltbridge:GLU:106    0
Name: 52, dtype: object

>  <halogenbond:GLU:106>  (53) 
halogenbond:GLU:106    0
halogenbond:GLU:106    0
Name: 52, dtype: object

>  <hydroph_interaction:PRO:107>  (53) 
hydroph_interaction:PRO:107    0
hydroph_interaction:PRO:107    0
Name: 52, dtype: object

>  <hbond:PRO:107>  (53) 
hbond:PRO:107    0
hbond:PRO:107    0
Name: 52, dtype: object

>  <halogenbond:PRO:107>  (53) 
halogenbond:PRO:107    0
halogenbond:PRO:107    0
Name: 52, dtype: object

>  <hbond:GLY:108>  (53) 
hbond:GLY:108    0
hbond:GLY:108    0
Name: 52, dtype: object

>  <halogenbond:GLY:108>  (53) 
halogenbond:GLY:108    0
halogenbond:GLY:108    0
Name: 52, dtype: object

>  <hbond:ASP:109>  (53) 
hbond:ASP:109    0
hbond:ASP:109    0
Name: 52, dtype: object

>  <hydroph_interaction:ASP:109>  (53) 
hydroph_interaction:ASP:109    0
hydroph_interaction:ASP:109    0
Name: 52, dtype: object

>  <saltbridge:ASP:109>  (53) 
saltbridge:ASP:109    0
saltbridge:ASP:109    0
Name: 52, dtype: object

>  <hbond:CYS:110>  (53) 
hbond:CYS:110    0
hbond:CYS:110    0
Name: 52, dtype: object

>  <halogenbond:CYS:110>  (53) 
halogenbond:CYS:110    0
halogenbond:CYS:110    0
Name: 52, dtype: object

>  <hbond:GLY:111>  (53) 
hbond:GLY:111    0
hbond:GLY:111    0
Name: 52, dtype: object

>  <hbond:GLY:112>  (53) 
hbond:GLY:112    0
hbond:GLY:112    0
Name: 52, dtype: object

>  <hbond:ILE:113>  (53) 
hbond:ILE:113    0
hbond:ILE:113    0
Name: 52, dtype: object

>  <hydroph_interaction:LEU:114>  (53) 
hydroph_interaction:LEU:114    0
hydroph_interaction:LEU:114    0
Name: 52, dtype: object

>  <hbond:LEU:114>  (53) 
hbond:LEU:114    0
hbond:LEU:114    0
Name: 52, dtype: object

>  <hydroph_interaction:ILE:123>  (53) 
hydroph_interaction:ILE:123    0
hydroph_interaction:ILE:123    0
Name: 52, dtype: object

>  <hbond:ILE:123>  (53) 
hbond:ILE:123    0
hbond:ILE:123    0
Name: 52, dtype: object

>  <hydroph_interaction:VAL:124>  (53) 
hydroph_interaction:VAL:124    1
hydroph_interaction:VAL:124    1
Name: 52, dtype: object

>  <hbond:VAL:124>  (53) 
hbond:VAL:124    0
hbond:VAL:124    0
Name: 52, dtype: object

>  <halogenbond:VAL:124>  (53) 
halogenbond:VAL:124    0
halogenbond:VAL:124    0
Name: 52, dtype: object

>  <hbond:SER:125>  (53) 
hbond:SER:125    0
hbond:SER:125    0
Name: 52, dtype: object

>  <halogenbond:SER:125>  (53) 
halogenbond:SER:125    0
halogenbond:SER:125    0
Name: 52, dtype: object

>  <hydroph_interaction:THR:126>  (53) 
hydroph_interaction:THR:126    0
hydroph_interaction:THR:126    0
Name: 52, dtype: object

>  <hbond:THR:126>  (53) 
hbond:THR:126    0
hbond:THR:126    0
Name: 52, dtype: object

>  <halogenbond:THR:126>  (53) 
halogenbond:THR:126    0
halogenbond:THR:126    0
Name: 52, dtype: object

>  <hbond:GLY:127>  (53) 
hbond:GLY:127    0
hbond:GLY:127    0
Name: 52, dtype: object

>  <halogenbond:GLY:127>  (53) 
halogenbond:GLY:127    0
halogenbond:GLY:127    0
Name: 52, dtype: object

>  <hydroph_interaction:GLY:127>  (53) 
hydroph_interaction:GLY:127    0
hydroph_interaction:GLY:127    0
Name: 52, dtype: object

>  <hbond:GLY:128>  (53) 
hbond:GLY:128    0
hbond:GLY:128    0
Name: 52, dtype: object

>  <halogenbond:GLY:128>  (53) 
halogenbond:GLY:128    0
halogenbond:GLY:128    0
Name: 52, dtype: object

>  <hydroph_interaction:GLY:128>  (53) 
hydroph_interaction:GLY:128    0
hydroph_interaction:GLY:128    0
Name: 52, dtype: object

>  <hbond:ASN:129>  (53) 
hbond:ASN:129    0
hbond:ASN:129    0
Name: 52, dtype: object

>  <hydroph_interaction:ASN:129>  (53) 
hydroph_interaction:ASN:129    0
hydroph_interaction:ASN:129    0
Name: 52, dtype: object

>  <halogenbond:ASN:129>  (53) 
halogenbond:ASN:129    0
halogenbond:ASN:129    0
Name: 52, dtype: object

>  <hbond:GLY:130>  (53) 
hbond:GLY:130    0
hbond:GLY:130    0
Name: 52, dtype: object

>  <hydroph_interaction:LEU:131>  (53) 
hydroph_interaction:LEU:131    0
hydroph_interaction:LEU:131    0
Name: 52, dtype: object

>  <hbond:LEU:131>  (53) 
hbond:LEU:131    0
hbond:LEU:131    0
Name: 52, dtype: object

>  <halogenbond:LEU:131>  (53) 
halogenbond:LEU:131    0
halogenbond:LEU:131    0
Name: 52, dtype: object

>  <hydroph_interaction:VAL:132>  (53) 
hydroph_interaction:VAL:132    0
hydroph_interaction:VAL:132    0
Name: 52, dtype: object

>  <hbond:VAL:132>  (53) 
hbond:VAL:132    0
hbond:VAL:132    0
Name: 52, dtype: object

>  <hbond:GLY:133>  (53) 
hbond:GLY:133    0
hbond:GLY:133    0
Name: 52, dtype: object

>  <halogenbond:GLY:133>  (53) 
halogenbond:GLY:133    0
halogenbond:GLY:133    0
Name: 52, dtype: object

>  <hydroph_interaction:PHE:134>  (53) 
hydroph_interaction:PHE:134    0
hydroph_interaction:PHE:134    0
Name: 52, dtype: object

>  <hbond:PHE:134>  (53) 
hbond:PHE:134    0
hbond:PHE:134    0
Name: 52, dtype: object

>  <pistack:PHE:134>  (53) 
pistack:PHE:134    0
pistack:PHE:134    0
Name: 52, dtype: object

>  <pication:PHE:134>  (53) 
pication:PHE:134    0
pication:PHE:134    0
Name: 52, dtype: object

>  <hydroph_interaction:ALA:135>  (53) 
hydroph_interaction:ALA:135    0
hydroph_interaction:ALA:135    0
Name: 52, dtype: object

>  <hbond:ALA:135>  (53) 
hbond:ALA:135    0
hbond:ALA:135    0
Name: 52, dtype: object

$$$$
Z1324021453
     RDKit          3D

 28 29  0  0  0  0  0  0  0  0999 V2000
   10.2380    9.4100   22.6670 C   0  0  0  0  0  0  0  0  0  0  0  0
    9.5240   10.5510   23.3580 C   0  0  0  0  0  0  0  0  0  0  0  0
    8.5290   10.1870   24.4200 C   0  0  0  0  0  0  0  0  0  0  0  0
    7.8540   11.3810   25.0600 C   0  0  0  0  0  0  0  0  0  0  0  0
    8.1660   12.7970   24.6460 C   0  0  0  0  0  0  0  0  0  0  0  0
    7.1980   14.3990   25.5690 I   0  0  0  0  0  0  0  0  0  0  0  0
    9.1190   12.9380   23.6310 C   0  0  0  0  0  0  0  0  0  0  0  0
    9.4660   14.1960   23.1680 O   0  0  0  0  0  0  0  0  0  0  0  0
   10.7890   14.3440   22.8640 C   0  0  0  0  0  0  0  0  0  0  0  0
   11.7810   13.9090   23.5750 N   0  0  0  0  0  0  0  0  0  0  0  0
   13.0000   14.2320   23.0800 C   0  0  0  0  0  0  0  0  0  0  0  0
   13.1950   15.1070   22.0310 C   0  0  0  0  0  0  0  0  0  0  0  0
   12.1410   15.7020   21.4060 N   0  0  0  0  0  0  0  0  0  0  0  0
   12.1630   17.1070   21.2260 C   0  0  0  0  0  0  0  0  0  0  0  0
   10.9020   15.1380   21.5610 C   0  0  0  0  0  0  0  0  0  0  0  0
    9.9620   15.2590   20.7920 O   0  0  0  0  0  0  0  0  0  0  0  0
    9.7790   11.8720   23.0110 C   0  0  0  0  0  0  0  0  0  0  0  0
   10.8810    8.8560   23.3520 H   0  0  0  0  0  0  0  0  0  0  0  0
   10.8570    9.8120   21.8690 H   0  0  0  0  0  0  0  0  0  0  0  0
    9.5140    8.7380   22.2150 H   0  0  0  0  0  0  0  0  0  0  0  0
    8.3200    9.1600   24.6960 H   0  0  0  0  0  0  0  0  0  0  0  0
    7.1040   11.2850   25.8520 H   0  0  0  0  0  0  0  0  0  0  0  0
   13.8480   13.7580   23.5670 H   0  0  0  0  0  0  0  0  0  0  0  0
   14.1730   15.3500   21.6650 H   0  0  0  0  0  0  0  0  0  0  0  0
   12.1200   17.5850   22.2030 H   0  0  0  0  0  0  0  0  0  0  0  0
   13.0750   17.3820   20.6990 H   0  0  0  0  0  0  0  0  0  0  0  0
   11.3000   17.4280   20.6620 H   0  0  0  0  0  0  0  0  0  0  0  0
   10.5080   12.0860   22.2340 H   0  0  0  0  0  0  0  0  0  0  0  0
  1  2  1  0
  2  3  2  0
  3  4  1  0
  4  5  2  0
  5  6  1  0
  5  7  1  0
  7  8  1  0
  8  9  1  0
  9 10  2  0
 10 11  1  0
 11 12  2  0
 12 13  1  0
 13 14  1  0
 13 15  1  0
 15 16  2  0
  7 17  2  0
 17  2  1  0
 15  9  1  0
  1 18  1  0
  1 19  1  0
  1 20  1  0
  3 21  1  0
  4 22  1  0
 11 23  1  0
 12 24  1  0
 14 25  1  0
 14 26  1  0
 14 27  1  0
 17 28  1  0
A    1
 C1 
A    2
 C2 
A    3
 C3 
A    4
 C4 
A    5
 C5 
A    6
 I1 
A    7
 C6 
A    8
 O1 
A    9
 C7 
A   10
 N1 
A   11
 C8 
A   12
 C9 
A   13
 N2 
A   14
 C10
A   15
 C11
A   16
 O2 
A   17
 C12
A   18
 H1 
A   19
 H2 
A   20
 H3 
A   21
 H4 
A   22
 H5 
A   23
 H6 
A   24
 H7 
A   25
 H8 
A   26
 H9 
A   27
 H10
A   28
 H11
M  END
>  <ref_pdb>  (54) 
x0310_0A

>  <ref_mols>  (54) 
x0416_0A,x0528_0A

>  <original SMILES>  (54) 
Cc1ccc(I)c(Oc2nccn(C)c2=O)c1

>  <rationale>  (54) 
info hbond:S87; hydroph_interaction:P107+V124; 

>  <intxn_cluster>  (54) 
103

>  <intxn_cluster_rank>  (54) 
247

>  <N_interactions>  (54) 
3

>  <∆∆G>  (54) 
-11.779533

>  <$/mg>  (54) 
163.0

>  <comRMSD>  (54) 
0.65714

>  <N_rotatable_bonds>  (54) 
3

>  <hbond:SER:7>  (54) 
hbond:SER:7    0
hbond:SER:7    0
Name: 53, dtype: object

>  <halogenbond:SER:7>  (54) 
halogenbond:SER:7    0
halogenbond:SER:7    0
Name: 53, dtype: object

>  <hbond:GLY:8>  (54) 
hbond:GLY:8    0
hbond:GLY:8    0
Name: 53, dtype: object

>  <hydroph_interaction:ASN:19>  (54) 
hydroph_interaction:ASN:19    0
hydroph_interaction:ASN:19    0
Name: 53, dtype: object

>  <hbond:ASN:19>  (54) 
hbond:ASN:19    0
hbond:ASN:19    0
Name: 53, dtype: object

>  <halogenbond:ASN:19>  (54) 
halogenbond:ASN:19    0
halogenbond:ASN:19    0
Name: 53, dtype: object

>  <hbond:ARG:20>  (54) 
hbond:ARG:20    0
hbond:ARG:20    0
Name: 53, dtype: object

>  <hydroph_interaction:ARG:20>  (54) 
hydroph_interaction:ARG:20    0
hydroph_interaction:ARG:20    0
Name: 53, dtype: object

>  <saltbridge:ARG:20>  (54) 
saltbridge:ARG:20    0
saltbridge:ARG:20    0
Name: 53, dtype: object

>  <halogenbond:ARG:20>  (54) 
halogenbond:ARG:20    0
halogenbond:ARG:20    0
Name: 53, dtype: object

>  <pication:ARG:20>  (54) 
pication:ARG:20    0
pication:ARG:20    0
Name: 53, dtype: object

>  <hbond:HIS:21>  (54) 
hbond:HIS:21    0
hbond:HIS:21    0
Name: 53, dtype: object

>  <hydroph_interaction:HIS:21>  (54) 
hydroph_interaction:HIS:21    0
hydroph_interaction:HIS:21    0
Name: 53, dtype: object

>  <saltbridge:HIS:21>  (54) 
saltbridge:HIS:21    0
saltbridge:HIS:21    0
Name: 53, dtype: object

>  <pistack:HIS:21>  (54) 
pistack:HIS:21    0
pistack:HIS:21    0
Name: 53, dtype: object

>  <pication:HIS:21>  (54) 
pication:HIS:21    0
pication:HIS:21    0
Name: 53, dtype: object

>  <halogenbond:HIS:21>  (54) 
halogenbond:HIS:21    0
halogenbond:HIS:21    0
Name: 53, dtype: object

>  <hydroph_interaction:LEU:22>  (54) 
hydroph_interaction:LEU:22    0
hydroph_interaction:LEU:22    0
Name: 53, dtype: object

>  <hbond:LEU:22>  (54) 
hbond:LEU:22    0
hbond:LEU:22    0
Name: 53, dtype: object

>  <hydroph_interaction:TRP:28>  (54) 
hydroph_interaction:TRP:28    0
hydroph_interaction:TRP:28    0
Name: 53, dtype: object

>  <hbond:SER:36>  (54) 
hbond:SER:36    0
hbond:SER:36    0
Name: 53, dtype: object

>  <halogenbond:SER:36>  (54) 
halogenbond:SER:36    0
halogenbond:SER:36    0
Name: 53, dtype: object

>  <hbond:ARG:38>  (54) 
hbond:ARG:38    0
hbond:ARG:38    0
Name: 53, dtype: object

>  <halogenbond:ARG:38>  (54) 
halogenbond:ARG:38    0
halogenbond:ARG:38    0
Name: 53, dtype: object

>  <hbond:ASP:39>  (54) 
hbond:ASP:39    0
hbond:ASP:39    0
Name: 53, dtype: object

>  <saltbridge:ASP:39>  (54) 
saltbridge:ASP:39    0
saltbridge:ASP:39    0
Name: 53, dtype: object

>  <hydroph_interaction:ASP:39>  (54) 
hydroph_interaction:ASP:39    0
hydroph_interaction:ASP:39    0
Name: 53, dtype: object

>  <halogenbond:ASP:39>  (54) 
halogenbond:ASP:39    0
halogenbond:ASP:39    0
Name: 53, dtype: object

>  <hydroph_interaction:LEU:40>  (54) 
hydroph_interaction:LEU:40    0
hydroph_interaction:LEU:40    0
Name: 53, dtype: object

>  <hydroph_interaction:TYR:63>  (54) 
hydroph_interaction:TYR:63    0
hydroph_interaction:TYR:63    0
Name: 53, dtype: object

>  <pistack:TYR:63>  (54) 
pistack:TYR:63    0
pistack:TYR:63    0
Name: 53, dtype: object

>  <hbond:TYR:63>  (54) 
hbond:TYR:63    0
hbond:TYR:63    0
Name: 53, dtype: object

>  <hbond:TYR:64>  (54) 
hbond:TYR:64    0
hbond:TYR:64    0
Name: 53, dtype: object

>  <halogenbond:TYR:64>  (54) 
halogenbond:TYR:64    0
halogenbond:TYR:64    0
Name: 53, dtype: object

>  <hydroph_interaction:TYR:64>  (54) 
hydroph_interaction:TYR:64    0
hydroph_interaction:TYR:64    0
Name: 53, dtype: object

>  <hbond:CYS:65>  (54) 
hbond:CYS:65    0
hbond:CYS:65    0
Name: 53, dtype: object

>  <halogenbond:CYS:65>  (54) 
halogenbond:CYS:65    0
halogenbond:CYS:65    0
Name: 53, dtype: object

>  <hbond:SER:66>  (54) 
hbond:SER:66    0
hbond:SER:66    0
Name: 53, dtype: object

>  <hbond:SER:67>  (54) 
hbond:SER:67    0
hbond:SER:67    0
Name: 53, dtype: object

>  <halogenbond:SER:67>  (54) 
halogenbond:SER:67    0
halogenbond:SER:67    0
Name: 53, dtype: object

>  <hydroph_interaction:ARG:68>  (54) 
hydroph_interaction:ARG:68    0
hydroph_interaction:ARG:68    0
Name: 53, dtype: object

>  <hbond:ARG:68>  (54) 
hbond:ARG:68    0
hbond:ARG:68    0
Name: 53, dtype: object

>  <saltbridge:ARG:68>  (54) 
saltbridge:ARG:68    0
saltbridge:ARG:68    0
Name: 53, dtype: object

>  <pication:ARG:68>  (54) 
pication:ARG:68    0
pication:ARG:68    0
Name: 53, dtype: object

>  <hydroph_interaction:TYR:72>  (54) 
hydroph_interaction:TYR:72    0
hydroph_interaction:TYR:72    0
Name: 53, dtype: object

>  <hydroph_interaction:VAL:74>  (54) 
hydroph_interaction:VAL:74    0
hydroph_interaction:VAL:74    0
Name: 53, dtype: object

>  <hydroph_interaction:PHE:76>  (54) 
hydroph_interaction:PHE:76    0
hydroph_interaction:PHE:76    0
Name: 53, dtype: object

>  <hbond:SER:77>  (54) 
hbond:SER:77    0
hbond:SER:77    0
Name: 53, dtype: object

>  <hbond:SER:80>  (54) 
hbond:SER:80    0
hbond:SER:80    0
Name: 53, dtype: object

>  <hbond:LEU:81>  (54) 
hbond:LEU:81    0
hbond:LEU:81    0
Name: 53, dtype: object

>  <halogenbond:LEU:81>  (54) 
halogenbond:LEU:81    0
halogenbond:LEU:81    0
Name: 53, dtype: object

>  <hydroph_interaction:LEU:81>  (54) 
hydroph_interaction:LEU:81    0
hydroph_interaction:LEU:81    0
Name: 53, dtype: object

>  <hydroph_interaction:ILE:82>  (54) 
hydroph_interaction:ILE:82    0
hydroph_interaction:ILE:82    0
Name: 53, dtype: object

>  <hbond:ILE:82>  (54) 
hbond:ILE:82    0
hbond:ILE:82    0
Name: 53, dtype: object

>  <hydroph_interaction:PHE:83>  (54) 
hydroph_interaction:PHE:83    0
hydroph_interaction:PHE:83    0
Name: 53, dtype: object

>  <hbond:PHE:83>  (54) 
hbond:PHE:83    0
hbond:PHE:83    0
Name: 53, dtype: object

>  <halogenbond:PHE:83>  (54) 
halogenbond:PHE:83    0
halogenbond:PHE:83    0
Name: 53, dtype: object

>  <pistack:PHE:83>  (54) 
pistack:PHE:83    0
pistack:PHE:83    0
Name: 53, dtype: object

>  <hydroph_interaction:VAL:84>  (54) 
hydroph_interaction:VAL:84    0
hydroph_interaction:VAL:84    0
Name: 53, dtype: object

>  <hbond:VAL:84>  (54) 
hbond:VAL:84    0
hbond:VAL:84    0
Name: 53, dtype: object

>  <halogenbond:VAL:84>  (54) 
halogenbond:VAL:84    0
halogenbond:VAL:84    0
Name: 53, dtype: object

>  <hydroph_interaction:GLU:85>  (54) 
hydroph_interaction:GLU:85    0
hydroph_interaction:GLU:85    0
Name: 53, dtype: object

>  <hbond:GLU:85>  (54) 
hbond:GLU:85    0
hbond:GLU:85    0
Name: 53, dtype: object

>  <saltbridge:GLU:85>  (54) 
saltbridge:GLU:85    0
saltbridge:GLU:85    0
Name: 53, dtype: object

>  <halogenbond:GLU:85>  (54) 
halogenbond:GLU:85    0
halogenbond:GLU:85    0
Name: 53, dtype: object

>  <hbond:ALA:86>  (54) 
hbond:ALA:86    0
hbond:ALA:86    0
Name: 53, dtype: object

>  <halogenbond:ALA:86>  (54) 
halogenbond:ALA:86    0
halogenbond:ALA:86    0
Name: 53, dtype: object

>  <hydroph_interaction:ALA:86>  (54) 
hydroph_interaction:ALA:86    0
hydroph_interaction:ALA:86    0
Name: 53, dtype: object

>  <hbond:SER:87>  (54) 
hbond:SER:87    1
hbond:SER:87    1
Name: 53, dtype: object

>  <halogenbond:SER:87>  (54) 
halogenbond:SER:87    0
halogenbond:SER:87    0
Name: 53, dtype: object

>  <hbond:GLU:88>  (54) 
hbond:GLU:88    0
hbond:GLU:88    0
Name: 53, dtype: object

>  <hydroph_interaction:GLU:88>  (54) 
hydroph_interaction:GLU:88    0
hydroph_interaction:GLU:88    0
Name: 53, dtype: object

>  <halogenbond:GLU:88>  (54) 
halogenbond:GLU:88    0
halogenbond:GLU:88    0
Name: 53, dtype: object

>  <saltbridge:GLU:88>  (54) 
saltbridge:GLU:88    0
saltbridge:GLU:88    0
Name: 53, dtype: object

>  <hydroph_interaction:TYR:89>  (54) 
hydroph_interaction:TYR:89    0
hydroph_interaction:TYR:89    0
Name: 53, dtype: object

>  <pistack:TYR:89>  (54) 
pistack:TYR:89    0
pistack:TYR:89    0
Name: 53, dtype: object

>  <hbond:TYR:89>  (54) 
hbond:TYR:89    0
hbond:TYR:89    0
Name: 53, dtype: object

>  <halogenbond:TYR:89>  (54) 
halogenbond:TYR:89    0
halogenbond:TYR:89    0
Name: 53, dtype: object

>  <hbond:TYR:90>  (54) 
hbond:TYR:90    0
hbond:TYR:90    0
Name: 53, dtype: object

>  <hydroph_interaction:TYR:90>  (54) 
hydroph_interaction:TYR:90    0
hydroph_interaction:TYR:90    0
Name: 53, dtype: object

>  <pistack:TYR:90>  (54) 
pistack:TYR:90    0
pistack:TYR:90    0
Name: 53, dtype: object

>  <halogenbond:TYR:90>  (54) 
halogenbond:TYR:90    0
halogenbond:TYR:90    0
Name: 53, dtype: object

>  <pication:TYR:90>  (54) 
pication:TYR:90    0
pication:TYR:90    0
Name: 53, dtype: object

>  <hydroph_interaction:PRO:91>  (54) 
hydroph_interaction:PRO:91    0
hydroph_interaction:PRO:91    0
Name: 53, dtype: object

>  <halogenbond:PRO:91>  (54) 
halogenbond:PRO:91    0
halogenbond:PRO:91    0
Name: 53, dtype: object

>  <hbond:PRO:91>  (54) 
hbond:PRO:91    0
hbond:PRO:91    0
Name: 53, dtype: object

>  <hydroph_interaction:ALA:92>  (54) 
hydroph_interaction:ALA:92    0
hydroph_interaction:ALA:92    0
Name: 53, dtype: object

>  <hbond:ARG:93>  (54) 
hbond:ARG:93    0
hbond:ARG:93    0
Name: 53, dtype: object

>  <pication:ARG:93>  (54) 
pication:ARG:93    0
pication:ARG:93    0
Name: 53, dtype: object

>  <saltbridge:ARG:93>  (54) 
saltbridge:ARG:93    0
saltbridge:ARG:93    0
Name: 53, dtype: object

>  <hydroph_interaction:ARG:93>  (54) 
hydroph_interaction:ARG:93    0
hydroph_interaction:ARG:93    0
Name: 53, dtype: object

>  <halogenbond:ARG:93>  (54) 
halogenbond:ARG:93    0
halogenbond:ARG:93    0
Name: 53, dtype: object

>  <hydroph_interaction:TYR:94>  (54) 
hydroph_interaction:TYR:94    0
hydroph_interaction:TYR:94    0
Name: 53, dtype: object

>  <hbond:TYR:94>  (54) 
hbond:TYR:94    0
hbond:TYR:94    0
Name: 53, dtype: object

>  <halogenbond:GLN:95>  (54) 
halogenbond:GLN:95    0
halogenbond:GLN:95    0
Name: 53, dtype: object

>  <hbond:GLN:95>  (54) 
hbond:GLN:95    0
hbond:GLN:95    0
Name: 53, dtype: object

>  <hydroph_interaction:GLN:95>  (54) 
hydroph_interaction:GLN:95    0
hydroph_interaction:GLN:95    0
Name: 53, dtype: object

>  <hbond:SER:96>  (54) 
hbond:SER:96    0
hbond:SER:96    0
Name: 53, dtype: object

>  <hydroph_interaction:LEU:98>  (54) 
hydroph_interaction:LEU:98    0
hydroph_interaction:LEU:98    0
Name: 53, dtype: object

>  <hbond:LEU:98>  (54) 
hbond:LEU:98    0
hbond:LEU:98    0
Name: 53, dtype: object

>  <hbond:MET:99>  (54) 
hbond:MET:99    0
hbond:MET:99    0
Name: 53, dtype: object

>  <hydroph_interaction:MET:99>  (54) 
hydroph_interaction:MET:99    0
hydroph_interaction:MET:99    0
Name: 53, dtype: object

>  <halogenbond:MET:99>  (54) 
halogenbond:MET:99    0
halogenbond:MET:99    0
Name: 53, dtype: object

>  <hydroph_interaction:LEU:100>  (54) 
hydroph_interaction:LEU:100    0
hydroph_interaction:LEU:100    0
Name: 53, dtype: object

>  <hbond:LEU:100>  (54) 
hbond:LEU:100    0
hbond:LEU:100    0
Name: 53, dtype: object

>  <hbond:ALA:101>  (54) 
hbond:ALA:101    0
hbond:ALA:101    0
Name: 53, dtype: object

>  <hydroph_interaction:ALA:101>  (54) 
hydroph_interaction:ALA:101    0
hydroph_interaction:ALA:101    0
Name: 53, dtype: object

>  <hydroph_interaction:VAL:102>  (54) 
hydroph_interaction:VAL:102    0
hydroph_interaction:VAL:102    0
Name: 53, dtype: object

>  <hbond:VAL:102>  (54) 
hbond:VAL:102    0
hbond:VAL:102    0
Name: 53, dtype: object

>  <hbond:GLY:103>  (54) 
hbond:GLY:103    0
hbond:GLY:103    0
Name: 53, dtype: object

>  <halogenbond:GLY:103>  (54) 
halogenbond:GLY:103    0
halogenbond:GLY:103    0
Name: 53, dtype: object

>  <hydroph_interaction:HIS:104>  (54) 
hydroph_interaction:HIS:104    0
hydroph_interaction:HIS:104    0
Name: 53, dtype: object

>  <hbond:HIS:104>  (54) 
hbond:HIS:104    0
hbond:HIS:104    0
Name: 53, dtype: object

>  <saltbridge:HIS:104>  (54) 
saltbridge:HIS:104    0
saltbridge:HIS:104    0
Name: 53, dtype: object

>  <pication:HIS:104>  (54) 
pication:HIS:104    0
pication:HIS:104    0
Name: 53, dtype: object

>  <pistack:HIS:104>  (54) 
pistack:HIS:104    0
pistack:HIS:104    0
Name: 53, dtype: object

>  <halogenbond:HIS:104>  (54) 
halogenbond:HIS:104    0
halogenbond:HIS:104    0
Name: 53, dtype: object

>  <hbond:SER:105>  (54) 
hbond:SER:105    0
hbond:SER:105    0
Name: 53, dtype: object

>  <halogenbond:SER:105>  (54) 
halogenbond:SER:105    0
halogenbond:SER:105    0
Name: 53, dtype: object

>  <hbond:GLU:106>  (54) 
hbond:GLU:106    0
hbond:GLU:106    0
Name: 53, dtype: object

>  <hydroph_interaction:GLU:106>  (54) 
hydroph_interaction:GLU:106    0
hydroph_interaction:GLU:106    0
Name: 53, dtype: object

>  <saltbridge:GLU:106>  (54) 
saltbridge:GLU:106    0
saltbridge:GLU:106    0
Name: 53, dtype: object

>  <halogenbond:GLU:106>  (54) 
halogenbond:GLU:106    0
halogenbond:GLU:106    0
Name: 53, dtype: object

>  <hydroph_interaction:PRO:107>  (54) 
hydroph_interaction:PRO:107    1
hydroph_interaction:PRO:107    1
Name: 53, dtype: object

>  <hbond:PRO:107>  (54) 
hbond:PRO:107    0
hbond:PRO:107    0
Name: 53, dtype: object

>  <halogenbond:PRO:107>  (54) 
halogenbond:PRO:107    0
halogenbond:PRO:107    0
Name: 53, dtype: object

>  <hbond:GLY:108>  (54) 
hbond:GLY:108    0
hbond:GLY:108    0
Name: 53, dtype: object

>  <halogenbond:GLY:108>  (54) 
halogenbond:GLY:108    0
halogenbond:GLY:108    0
Name: 53, dtype: object

>  <hbond:ASP:109>  (54) 
hbond:ASP:109    0
hbond:ASP:109    0
Name: 53, dtype: object

>  <hydroph_interaction:ASP:109>  (54) 
hydroph_interaction:ASP:109    0
hydroph_interaction:ASP:109    0
Name: 53, dtype: object

>  <saltbridge:ASP:109>  (54) 
saltbridge:ASP:109    0
saltbridge:ASP:109    0
Name: 53, dtype: object

>  <hbond:CYS:110>  (54) 
hbond:CYS:110    0
hbond:CYS:110    0
Name: 53, dtype: object

>  <halogenbond:CYS:110>  (54) 
halogenbond:CYS:110    0
halogenbond:CYS:110    0
Name: 53, dtype: object

>  <hbond:GLY:111>  (54) 
hbond:GLY:111    0
hbond:GLY:111    0
Name: 53, dtype: object

>  <hbond:GLY:112>  (54) 
hbond:GLY:112    0
hbond:GLY:112    0
Name: 53, dtype: object

>  <hbond:ILE:113>  (54) 
hbond:ILE:113    0
hbond:ILE:113    0
Name: 53, dtype: object

>  <hydroph_interaction:LEU:114>  (54) 
hydroph_interaction:LEU:114    0
hydroph_interaction:LEU:114    0
Name: 53, dtype: object

>  <hbond:LEU:114>  (54) 
hbond:LEU:114    0
hbond:LEU:114    0
Name: 53, dtype: object

>  <hydroph_interaction:ILE:123>  (54) 
hydroph_interaction:ILE:123    0
hydroph_interaction:ILE:123    0
Name: 53, dtype: object

>  <hbond:ILE:123>  (54) 
hbond:ILE:123    0
hbond:ILE:123    0
Name: 53, dtype: object

>  <hydroph_interaction:VAL:124>  (54) 
hydroph_interaction:VAL:124    1
hydroph_interaction:VAL:124    1
Name: 53, dtype: object

>  <hbond:VAL:124>  (54) 
hbond:VAL:124    0
hbond:VAL:124    0
Name: 53, dtype: object

>  <halogenbond:VAL:124>  (54) 
halogenbond:VAL:124    0
halogenbond:VAL:124    0
Name: 53, dtype: object

>  <hbond:SER:125>  (54) 
hbond:SER:125    0
hbond:SER:125    0
Name: 53, dtype: object

>  <halogenbond:SER:125>  (54) 
halogenbond:SER:125    0
halogenbond:SER:125    0
Name: 53, dtype: object

>  <hydroph_interaction:THR:126>  (54) 
hydroph_interaction:THR:126    0
hydroph_interaction:THR:126    0
Name: 53, dtype: object

>  <hbond:THR:126>  (54) 
hbond:THR:126    0
hbond:THR:126    0
Name: 53, dtype: object

>  <halogenbond:THR:126>  (54) 
halogenbond:THR:126    0
halogenbond:THR:126    0
Name: 53, dtype: object

>  <hbond:GLY:127>  (54) 
hbond:GLY:127    0
hbond:GLY:127    0
Name: 53, dtype: object

>  <halogenbond:GLY:127>  (54) 
halogenbond:GLY:127    0
halogenbond:GLY:127    0
Name: 53, dtype: object

>  <hydroph_interaction:GLY:127>  (54) 
hydroph_interaction:GLY:127    0
hydroph_interaction:GLY:127    0
Name: 53, dtype: object

>  <hbond:GLY:128>  (54) 
hbond:GLY:128    0
hbond:GLY:128    0
Name: 53, dtype: object

>  <halogenbond:GLY:128>  (54) 
halogenbond:GLY:128    0
halogenbond:GLY:128    0
Name: 53, dtype: object

>  <hydroph_interaction:GLY:128>  (54) 
hydroph_interaction:GLY:128    0
hydroph_interaction:GLY:128    0
Name: 53, dtype: object

>  <hbond:ASN:129>  (54) 
hbond:ASN:129    0
hbond:ASN:129    0
Name: 53, dtype: object

>  <hydroph_interaction:ASN:129>  (54) 
hydroph_interaction:ASN:129    0
hydroph_interaction:ASN:129    0
Name: 53, dtype: object

>  <halogenbond:ASN:129>  (54) 
halogenbond:ASN:129    0
halogenbond:ASN:129    0
Name: 53, dtype: object

>  <hbond:GLY:130>  (54) 
hbond:GLY:130    0
hbond:GLY:130    0
Name: 53, dtype: object

>  <hydroph_interaction:LEU:131>  (54) 
hydroph_interaction:LEU:131    0
hydroph_interaction:LEU:131    0
Name: 53, dtype: object

>  <hbond:LEU:131>  (54) 
hbond:LEU:131    0
hbond:LEU:131    0
Name: 53, dtype: object

>  <halogenbond:LEU:131>  (54) 
halogenbond:LEU:131    0
halogenbond:LEU:131    0
Name: 53, dtype: object

>  <hydroph_interaction:VAL:132>  (54) 
hydroph_interaction:VAL:132    0
hydroph_interaction:VAL:132    0
Name: 53, dtype: object

>  <hbond:VAL:132>  (54) 
hbond:VAL:132    0
hbond:VAL:132    0
Name: 53, dtype: object

>  <hbond:GLY:133>  (54) 
hbond:GLY:133    0
hbond:GLY:133    0
Name: 53, dtype: object

>  <halogenbond:GLY:133>  (54) 
halogenbond:GLY:133    0
halogenbond:GLY:133    0
Name: 53, dtype: object

>  <hydroph_interaction:PHE:134>  (54) 
hydroph_interaction:PHE:134    0
hydroph_interaction:PHE:134    0
Name: 53, dtype: object

>  <hbond:PHE:134>  (54) 
hbond:PHE:134    0
hbond:PHE:134    0
Name: 53, dtype: object

>  <pistack:PHE:134>  (54) 
pistack:PHE:134    0
pistack:PHE:134    0
Name: 53, dtype: object

>  <pication:PHE:134>  (54) 
pication:PHE:134    0
pication:PHE:134    0
Name: 53, dtype: object

>  <hydroph_interaction:ALA:135>  (54) 
hydroph_interaction:ALA:135    0
hydroph_interaction:ALA:135    0
Name: 53, dtype: object

>  <hbond:ALA:135>  (54) 
hbond:ALA:135    0
hbond:ALA:135    0
Name: 53, dtype: object

$$$$
PV_003037055636
     RDKit          3D

 21 22  0  0  0  0  0  0  0  0999 V2000
    7.2120   14.6380   26.4010 O   0  0  0  0  0  0  0  0  0  0  0  0
    7.5160   13.7780   25.5880 C   0  0  0  0  0  0  0  0  0  0  0  0
    7.0850   12.3220   25.6740 C   0  0  0  0  0  0  0  0  0  0  0  0
    8.0500   11.5830   24.7770 C   0  0  0  0  0  0  0  0  0  0  0  0
    8.7970   12.6560   24.0250 C   0  0  0  0  0  0  0  0  0  0  0  0
    8.3130   13.9240   24.4380 N   0  0  0  0  0  0  0  0  0  0  0  0
    9.7810   12.3270   23.0970 C   0  0  0  0  0  0  0  0  0  0  0  0
   10.4890   13.2900   22.3830 C   0  0  0  0  0  0  0  0  0  0  0  0
   11.4910   14.0590   22.9340 C   0  0  0  0  0  0  0  0  0  0  0  0
   12.1460   14.9680   22.1810 F   0  0  0  0  0  0  0  0  0  0  0  0
   11.8140   13.9030   24.2280 F   0  0  0  0  0  0  0  0  0  0  0  0
   10.0200   10.9490   22.9180 C   0  0  0  0  0  0  0  0  0  0  0  0
    9.3000    9.9410   23.6430 C   0  0  0  0  0  0  0  0  0  0  0  0
    8.3140   10.2630   24.5720 C   0  0  0  0  0  0  0  0  0  0  0  0
    6.0630   12.2290   25.3030 H   0  0  0  0  0  0  0  0  0  0  0  0
    7.1670   11.9790   26.7070 H   0  0  0  0  0  0  0  0  0  0  0  0
    8.2570   14.7590   23.8560 H   0  0  0  0  0  0  0  0  0  0  0  0
   10.2400   13.4400   21.3430 H   0  0  0  0  0  0  0  0  0  0  0  0
   10.7690   10.6140   22.2120 H   0  0  0  0  0  0  0  0  0  0  0  0
    9.5400    8.9060   23.4530 H   0  0  0  0  0  0  0  0  0  0  0  0
    7.7810    9.4980   25.1070 H   0  0  0  0  0  0  0  0  0  0  0  0
  1  2  2  0
  2  3  1  0
  3  4  1  0
  4  5  2  0
  5  6  1  0
  5  7  1  0
  7  8  1  0
  8  9  2  3
  9 10  1  0
  9 11  1  0
  7 12  2  0
 12 13  1  0
 13 14  2  0
  6  2  1  0
 14  4  1  0
  3 15  1  0
  3 16  1  0
  6 17  1  0
  8 18  1  0
 12 19  1  0
 13 20  1  0
 14 21  1  0
A    1
 O1 
A    2
 C1 
A    3
 C2 
A    4
 C3 
A    5
 C4 
A    6
 N1 
A    7
 C5 
A    8
 C6 
A    9
 C7 
A   10
 F1 
A   11
 F2 
A   12
 C8 
A   13
 C9 
A   14
 C10
A   15
 H1 
A   16
 H2 
A   17
 H3 
A   18
 H4 
A   19
 H5 
A   20
 H6 
A   21
 H7 
M  END
>  <ref_pdb>  (55) 
x0310_0A

>  <ref_mols>  (55) 
x0554_0A,x0416_0A,x0446_0A

>  <original SMILES>  (55) 
O=C1Cc2cccc(C=C(F)F)c2N1

>  <rationale>  (55) 
info hbond:S87; hydroph_interaction:P107; 

>  <intxn_cluster>  (55) 
208

>  <intxn_cluster_rank>  (55) 
249

>  <N_interactions>  (55) 
2

>  <∆∆G>  (55) 
-5.987225

>  <$/mg>  (55) 
163.0

>  <comRMSD>  (55) 
0.701197

>  <N_rotatable_bonds>  (55) 
1

>  <hbond:SER:7>  (55) 
hbond:SER:7    0
hbond:SER:7    0
Name: 54, dtype: object

>  <halogenbond:SER:7>  (55) 
halogenbond:SER:7    0
halogenbond:SER:7    0
Name: 54, dtype: object

>  <hbond:GLY:8>  (55) 
hbond:GLY:8    0
hbond:GLY:8    0
Name: 54, dtype: object

>  <hydroph_interaction:ASN:19>  (55) 
hydroph_interaction:ASN:19    0
hydroph_interaction:ASN:19    0
Name: 54, dtype: object

>  <hbond:ASN:19>  (55) 
hbond:ASN:19    0
hbond:ASN:19    0
Name: 54, dtype: object

>  <halogenbond:ASN:19>  (55) 
halogenbond:ASN:19    0
halogenbond:ASN:19    0
Name: 54, dtype: object

>  <hbond:ARG:20>  (55) 
hbond:ARG:20    0
hbond:ARG:20    0
Name: 54, dtype: object

>  <hydroph_interaction:ARG:20>  (55) 
hydroph_interaction:ARG:20    0
hydroph_interaction:ARG:20    0
Name: 54, dtype: object

>  <saltbridge:ARG:20>  (55) 
saltbridge:ARG:20    0
saltbridge:ARG:20    0
Name: 54, dtype: object

>  <halogenbond:ARG:20>  (55) 
halogenbond:ARG:20    0
halogenbond:ARG:20    0
Name: 54, dtype: object

>  <pication:ARG:20>  (55) 
pication:ARG:20    0
pication:ARG:20    0
Name: 54, dtype: object

>  <hbond:HIS:21>  (55) 
hbond:HIS:21    0
hbond:HIS:21    0
Name: 54, dtype: object

>  <hydroph_interaction:HIS:21>  (55) 
hydroph_interaction:HIS:21    0
hydroph_interaction:HIS:21    0
Name: 54, dtype: object

>  <saltbridge:HIS:21>  (55) 
saltbridge:HIS:21    0
saltbridge:HIS:21    0
Name: 54, dtype: object

>  <pistack:HIS:21>  (55) 
pistack:HIS:21    0
pistack:HIS:21    0
Name: 54, dtype: object

>  <pication:HIS:21>  (55) 
pication:HIS:21    0
pication:HIS:21    0
Name: 54, dtype: object

>  <halogenbond:HIS:21>  (55) 
halogenbond:HIS:21    0
halogenbond:HIS:21    0
Name: 54, dtype: object

>  <hydroph_interaction:LEU:22>  (55) 
hydroph_interaction:LEU:22    0
hydroph_interaction:LEU:22    0
Name: 54, dtype: object

>  <hbond:LEU:22>  (55) 
hbond:LEU:22    0
hbond:LEU:22    0
Name: 54, dtype: object

>  <hydroph_interaction:TRP:28>  (55) 
hydroph_interaction:TRP:28    0
hydroph_interaction:TRP:28    0
Name: 54, dtype: object

>  <hbond:SER:36>  (55) 
hbond:SER:36    0
hbond:SER:36    0
Name: 54, dtype: object

>  <halogenbond:SER:36>  (55) 
halogenbond:SER:36    0
halogenbond:SER:36    0
Name: 54, dtype: object

>  <hbond:ARG:38>  (55) 
hbond:ARG:38    0
hbond:ARG:38    0
Name: 54, dtype: object

>  <halogenbond:ARG:38>  (55) 
halogenbond:ARG:38    0
halogenbond:ARG:38    0
Name: 54, dtype: object

>  <hbond:ASP:39>  (55) 
hbond:ASP:39    0
hbond:ASP:39    0
Name: 54, dtype: object

>  <saltbridge:ASP:39>  (55) 
saltbridge:ASP:39    0
saltbridge:ASP:39    0
Name: 54, dtype: object

>  <hydroph_interaction:ASP:39>  (55) 
hydroph_interaction:ASP:39    0
hydroph_interaction:ASP:39    0
Name: 54, dtype: object

>  <halogenbond:ASP:39>  (55) 
halogenbond:ASP:39    0
halogenbond:ASP:39    0
Name: 54, dtype: object

>  <hydroph_interaction:LEU:40>  (55) 
hydroph_interaction:LEU:40    0
hydroph_interaction:LEU:40    0
Name: 54, dtype: object

>  <hydroph_interaction:TYR:63>  (55) 
hydroph_interaction:TYR:63    0
hydroph_interaction:TYR:63    0
Name: 54, dtype: object

>  <pistack:TYR:63>  (55) 
pistack:TYR:63    0
pistack:TYR:63    0
Name: 54, dtype: object

>  <hbond:TYR:63>  (55) 
hbond:TYR:63    0
hbond:TYR:63    0
Name: 54, dtype: object

>  <hbond:TYR:64>  (55) 
hbond:TYR:64    0
hbond:TYR:64    0
Name: 54, dtype: object

>  <halogenbond:TYR:64>  (55) 
halogenbond:TYR:64    0
halogenbond:TYR:64    0
Name: 54, dtype: object

>  <hydroph_interaction:TYR:64>  (55) 
hydroph_interaction:TYR:64    0
hydroph_interaction:TYR:64    0
Name: 54, dtype: object

>  <hbond:CYS:65>  (55) 
hbond:CYS:65    0
hbond:CYS:65    0
Name: 54, dtype: object

>  <halogenbond:CYS:65>  (55) 
halogenbond:CYS:65    0
halogenbond:CYS:65    0
Name: 54, dtype: object

>  <hbond:SER:66>  (55) 
hbond:SER:66    0
hbond:SER:66    0
Name: 54, dtype: object

>  <hbond:SER:67>  (55) 
hbond:SER:67    0
hbond:SER:67    0
Name: 54, dtype: object

>  <halogenbond:SER:67>  (55) 
halogenbond:SER:67    0
halogenbond:SER:67    0
Name: 54, dtype: object

>  <hydroph_interaction:ARG:68>  (55) 
hydroph_interaction:ARG:68    0
hydroph_interaction:ARG:68    0
Name: 54, dtype: object

>  <hbond:ARG:68>  (55) 
hbond:ARG:68    0
hbond:ARG:68    0
Name: 54, dtype: object

>  <saltbridge:ARG:68>  (55) 
saltbridge:ARG:68    0
saltbridge:ARG:68    0
Name: 54, dtype: object

>  <pication:ARG:68>  (55) 
pication:ARG:68    0
pication:ARG:68    0
Name: 54, dtype: object

>  <hydroph_interaction:TYR:72>  (55) 
hydroph_interaction:TYR:72    0
hydroph_interaction:TYR:72    0
Name: 54, dtype: object

>  <hydroph_interaction:VAL:74>  (55) 
hydroph_interaction:VAL:74    0
hydroph_interaction:VAL:74    0
Name: 54, dtype: object

>  <hydroph_interaction:PHE:76>  (55) 
hydroph_interaction:PHE:76    0
hydroph_interaction:PHE:76    0
Name: 54, dtype: object

>  <hbond:SER:77>  (55) 
hbond:SER:77    0
hbond:SER:77    0
Name: 54, dtype: object

>  <hbond:SER:80>  (55) 
hbond:SER:80    0
hbond:SER:80    0
Name: 54, dtype: object

>  <hbond:LEU:81>  (55) 
hbond:LEU:81    0
hbond:LEU:81    0
Name: 54, dtype: object

>  <halogenbond:LEU:81>  (55) 
halogenbond:LEU:81    0
halogenbond:LEU:81    0
Name: 54, dtype: object

>  <hydroph_interaction:LEU:81>  (55) 
hydroph_interaction:LEU:81    0
hydroph_interaction:LEU:81    0
Name: 54, dtype: object

>  <hydroph_interaction:ILE:82>  (55) 
hydroph_interaction:ILE:82    0
hydroph_interaction:ILE:82    0
Name: 54, dtype: object

>  <hbond:ILE:82>  (55) 
hbond:ILE:82    0
hbond:ILE:82    0
Name: 54, dtype: object

>  <hydroph_interaction:PHE:83>  (55) 
hydroph_interaction:PHE:83    0
hydroph_interaction:PHE:83    0
Name: 54, dtype: object

>  <hbond:PHE:83>  (55) 
hbond:PHE:83    0
hbond:PHE:83    0
Name: 54, dtype: object

>  <halogenbond:PHE:83>  (55) 
halogenbond:PHE:83    0
halogenbond:PHE:83    0
Name: 54, dtype: object

>  <pistack:PHE:83>  (55) 
pistack:PHE:83    0
pistack:PHE:83    0
Name: 54, dtype: object

>  <hydroph_interaction:VAL:84>  (55) 
hydroph_interaction:VAL:84    0
hydroph_interaction:VAL:84    0
Name: 54, dtype: object

>  <hbond:VAL:84>  (55) 
hbond:VAL:84    0
hbond:VAL:84    0
Name: 54, dtype: object

>  <halogenbond:VAL:84>  (55) 
halogenbond:VAL:84    0
halogenbond:VAL:84    0
Name: 54, dtype: object

>  <hydroph_interaction:GLU:85>  (55) 
hydroph_interaction:GLU:85    0
hydroph_interaction:GLU:85    0
Name: 54, dtype: object

>  <hbond:GLU:85>  (55) 
hbond:GLU:85    0
hbond:GLU:85    0
Name: 54, dtype: object

>  <saltbridge:GLU:85>  (55) 
saltbridge:GLU:85    0
saltbridge:GLU:85    0
Name: 54, dtype: object

>  <halogenbond:GLU:85>  (55) 
halogenbond:GLU:85    0
halogenbond:GLU:85    0
Name: 54, dtype: object

>  <hbond:ALA:86>  (55) 
hbond:ALA:86    0
hbond:ALA:86    0
Name: 54, dtype: object

>  <halogenbond:ALA:86>  (55) 
halogenbond:ALA:86    0
halogenbond:ALA:86    0
Name: 54, dtype: object

>  <hydroph_interaction:ALA:86>  (55) 
hydroph_interaction:ALA:86    0
hydroph_interaction:ALA:86    0
Name: 54, dtype: object

>  <hbond:SER:87>  (55) 
hbond:SER:87    1
hbond:SER:87    1
Name: 54, dtype: object

>  <halogenbond:SER:87>  (55) 
halogenbond:SER:87    0
halogenbond:SER:87    0
Name: 54, dtype: object

>  <hbond:GLU:88>  (55) 
hbond:GLU:88    0
hbond:GLU:88    0
Name: 54, dtype: object

>  <hydroph_interaction:GLU:88>  (55) 
hydroph_interaction:GLU:88    0
hydroph_interaction:GLU:88    0
Name: 54, dtype: object

>  <halogenbond:GLU:88>  (55) 
halogenbond:GLU:88    0
halogenbond:GLU:88    0
Name: 54, dtype: object

>  <saltbridge:GLU:88>  (55) 
saltbridge:GLU:88    0
saltbridge:GLU:88    0
Name: 54, dtype: object

>  <hydroph_interaction:TYR:89>  (55) 
hydroph_interaction:TYR:89    0
hydroph_interaction:TYR:89    0
Name: 54, dtype: object

>  <pistack:TYR:89>  (55) 
pistack:TYR:89    0
pistack:TYR:89    0
Name: 54, dtype: object

>  <hbond:TYR:89>  (55) 
hbond:TYR:89    0
hbond:TYR:89    0
Name: 54, dtype: object

>  <halogenbond:TYR:89>  (55) 
halogenbond:TYR:89    0
halogenbond:TYR:89    0
Name: 54, dtype: object

>  <hbond:TYR:90>  (55) 
hbond:TYR:90    0
hbond:TYR:90    0
Name: 54, dtype: object

>  <hydroph_interaction:TYR:90>  (55) 
hydroph_interaction:TYR:90    0
hydroph_interaction:TYR:90    0
Name: 54, dtype: object

>  <pistack:TYR:90>  (55) 
pistack:TYR:90    0
pistack:TYR:90    0
Name: 54, dtype: object

>  <halogenbond:TYR:90>  (55) 
halogenbond:TYR:90    0
halogenbond:TYR:90    0
Name: 54, dtype: object

>  <pication:TYR:90>  (55) 
pication:TYR:90    0
pication:TYR:90    0
Name: 54, dtype: object

>  <hydroph_interaction:PRO:91>  (55) 
hydroph_interaction:PRO:91    0
hydroph_interaction:PRO:91    0
Name: 54, dtype: object

>  <halogenbond:PRO:91>  (55) 
halogenbond:PRO:91    0
halogenbond:PRO:91    0
Name: 54, dtype: object

>  <hbond:PRO:91>  (55) 
hbond:PRO:91    0
hbond:PRO:91    0
Name: 54, dtype: object

>  <hydroph_interaction:ALA:92>  (55) 
hydroph_interaction:ALA:92    0
hydroph_interaction:ALA:92    0
Name: 54, dtype: object

>  <hbond:ARG:93>  (55) 
hbond:ARG:93    0
hbond:ARG:93    0
Name: 54, dtype: object

>  <pication:ARG:93>  (55) 
pication:ARG:93    0
pication:ARG:93    0
Name: 54, dtype: object

>  <saltbridge:ARG:93>  (55) 
saltbridge:ARG:93    0
saltbridge:ARG:93    0
Name: 54, dtype: object

>  <hydroph_interaction:ARG:93>  (55) 
hydroph_interaction:ARG:93    0
hydroph_interaction:ARG:93    0
Name: 54, dtype: object

>  <halogenbond:ARG:93>  (55) 
halogenbond:ARG:93    0
halogenbond:ARG:93    0
Name: 54, dtype: object

>  <hydroph_interaction:TYR:94>  (55) 
hydroph_interaction:TYR:94    0
hydroph_interaction:TYR:94    0
Name: 54, dtype: object

>  <hbond:TYR:94>  (55) 
hbond:TYR:94    0
hbond:TYR:94    0
Name: 54, dtype: object

>  <halogenbond:GLN:95>  (55) 
halogenbond:GLN:95    0
halogenbond:GLN:95    0
Name: 54, dtype: object

>  <hbond:GLN:95>  (55) 
hbond:GLN:95    0
hbond:GLN:95    0
Name: 54, dtype: object

>  <hydroph_interaction:GLN:95>  (55) 
hydroph_interaction:GLN:95    0
hydroph_interaction:GLN:95    0
Name: 54, dtype: object

>  <hbond:SER:96>  (55) 
hbond:SER:96    0
hbond:SER:96    0
Name: 54, dtype: object

>  <hydroph_interaction:LEU:98>  (55) 
hydroph_interaction:LEU:98    0
hydroph_interaction:LEU:98    0
Name: 54, dtype: object

>  <hbond:LEU:98>  (55) 
hbond:LEU:98    0
hbond:LEU:98    0
Name: 54, dtype: object

>  <hbond:MET:99>  (55) 
hbond:MET:99    0
hbond:MET:99    0
Name: 54, dtype: object

>  <hydroph_interaction:MET:99>  (55) 
hydroph_interaction:MET:99    0
hydroph_interaction:MET:99    0
Name: 54, dtype: object

>  <halogenbond:MET:99>  (55) 
halogenbond:MET:99    0
halogenbond:MET:99    0
Name: 54, dtype: object

>  <hydroph_interaction:LEU:100>  (55) 
hydroph_interaction:LEU:100    0
hydroph_interaction:LEU:100    0
Name: 54, dtype: object

>  <hbond:LEU:100>  (55) 
hbond:LEU:100    0
hbond:LEU:100    0
Name: 54, dtype: object

>  <hbond:ALA:101>  (55) 
hbond:ALA:101    0
hbond:ALA:101    0
Name: 54, dtype: object

>  <hydroph_interaction:ALA:101>  (55) 
hydroph_interaction:ALA:101    0
hydroph_interaction:ALA:101    0
Name: 54, dtype: object

>  <hydroph_interaction:VAL:102>  (55) 
hydroph_interaction:VAL:102    0
hydroph_interaction:VAL:102    0
Name: 54, dtype: object

>  <hbond:VAL:102>  (55) 
hbond:VAL:102    0
hbond:VAL:102    0
Name: 54, dtype: object

>  <hbond:GLY:103>  (55) 
hbond:GLY:103    0
hbond:GLY:103    0
Name: 54, dtype: object

>  <halogenbond:GLY:103>  (55) 
halogenbond:GLY:103    0
halogenbond:GLY:103    0
Name: 54, dtype: object

>  <hydroph_interaction:HIS:104>  (55) 
hydroph_interaction:HIS:104    0
hydroph_interaction:HIS:104    0
Name: 54, dtype: object

>  <hbond:HIS:104>  (55) 
hbond:HIS:104    0
hbond:HIS:104    0
Name: 54, dtype: object

>  <saltbridge:HIS:104>  (55) 
saltbridge:HIS:104    0
saltbridge:HIS:104    0
Name: 54, dtype: object

>  <pication:HIS:104>  (55) 
pication:HIS:104    0
pication:HIS:104    0
Name: 54, dtype: object

>  <pistack:HIS:104>  (55) 
pistack:HIS:104    0
pistack:HIS:104    0
Name: 54, dtype: object

>  <halogenbond:HIS:104>  (55) 
halogenbond:HIS:104    0
halogenbond:HIS:104    0
Name: 54, dtype: object

>  <hbond:SER:105>  (55) 
hbond:SER:105    0
hbond:SER:105    0
Name: 54, dtype: object

>  <halogenbond:SER:105>  (55) 
halogenbond:SER:105    0
halogenbond:SER:105    0
Name: 54, dtype: object

>  <hbond:GLU:106>  (55) 
hbond:GLU:106    0
hbond:GLU:106    0
Name: 54, dtype: object

>  <hydroph_interaction:GLU:106>  (55) 
hydroph_interaction:GLU:106    0
hydroph_interaction:GLU:106    0
Name: 54, dtype: object

>  <saltbridge:GLU:106>  (55) 
saltbridge:GLU:106    0
saltbridge:GLU:106    0
Name: 54, dtype: object

>  <halogenbond:GLU:106>  (55) 
halogenbond:GLU:106    0
halogenbond:GLU:106    0
Name: 54, dtype: object

>  <hydroph_interaction:PRO:107>  (55) 
hydroph_interaction:PRO:107    1
hydroph_interaction:PRO:107    1
Name: 54, dtype: object

>  <hbond:PRO:107>  (55) 
hbond:PRO:107    0
hbond:PRO:107    0
Name: 54, dtype: object

>  <halogenbond:PRO:107>  (55) 
halogenbond:PRO:107    0
halogenbond:PRO:107    0
Name: 54, dtype: object

>  <hbond:GLY:108>  (55) 
hbond:GLY:108    0
hbond:GLY:108    0
Name: 54, dtype: object

>  <halogenbond:GLY:108>  (55) 
halogenbond:GLY:108    0
halogenbond:GLY:108    0
Name: 54, dtype: object

>  <hbond:ASP:109>  (55) 
hbond:ASP:109    0
hbond:ASP:109    0
Name: 54, dtype: object

>  <hydroph_interaction:ASP:109>  (55) 
hydroph_interaction:ASP:109    0
hydroph_interaction:ASP:109    0
Name: 54, dtype: object

>  <saltbridge:ASP:109>  (55) 
saltbridge:ASP:109    0
saltbridge:ASP:109    0
Name: 54, dtype: object

>  <hbond:CYS:110>  (55) 
hbond:CYS:110    0
hbond:CYS:110    0
Name: 54, dtype: object

>  <halogenbond:CYS:110>  (55) 
halogenbond:CYS:110    0
halogenbond:CYS:110    0
Name: 54, dtype: object

>  <hbond:GLY:111>  (55) 
hbond:GLY:111    0
hbond:GLY:111    0
Name: 54, dtype: object

>  <hbond:GLY:112>  (55) 
hbond:GLY:112    0
hbond:GLY:112    0
Name: 54, dtype: object

>  <hbond:ILE:113>  (55) 
hbond:ILE:113    0
hbond:ILE:113    0
Name: 54, dtype: object

>  <hydroph_interaction:LEU:114>  (55) 
hydroph_interaction:LEU:114    0
hydroph_interaction:LEU:114    0
Name: 54, dtype: object

>  <hbond:LEU:114>  (55) 
hbond:LEU:114    0
hbond:LEU:114    0
Name: 54, dtype: object

>  <hydroph_interaction:ILE:123>  (55) 
hydroph_interaction:ILE:123    0
hydroph_interaction:ILE:123    0
Name: 54, dtype: object

>  <hbond:ILE:123>  (55) 
hbond:ILE:123    0
hbond:ILE:123    0
Name: 54, dtype: object

>  <hydroph_interaction:VAL:124>  (55) 
hydroph_interaction:VAL:124    0
hydroph_interaction:VAL:124    0
Name: 54, dtype: object

>  <hbond:VAL:124>  (55) 
hbond:VAL:124    0
hbond:VAL:124    0
Name: 54, dtype: object

>  <halogenbond:VAL:124>  (55) 
halogenbond:VAL:124    0
halogenbond:VAL:124    0
Name: 54, dtype: object

>  <hbond:SER:125>  (55) 
hbond:SER:125    0
hbond:SER:125    0
Name: 54, dtype: object

>  <halogenbond:SER:125>  (55) 
halogenbond:SER:125    0
halogenbond:SER:125    0
Name: 54, dtype: object

>  <hydroph_interaction:THR:126>  (55) 
hydroph_interaction:THR:126    0
hydroph_interaction:THR:126    0
Name: 54, dtype: object

>  <hbond:THR:126>  (55) 
hbond:THR:126    0
hbond:THR:126    0
Name: 54, dtype: object

>  <halogenbond:THR:126>  (55) 
halogenbond:THR:126    0
halogenbond:THR:126    0
Name: 54, dtype: object

>  <hbond:GLY:127>  (55) 
hbond:GLY:127    0
hbond:GLY:127    0
Name: 54, dtype: object

>  <halogenbond:GLY:127>  (55) 
halogenbond:GLY:127    0
halogenbond:GLY:127    0
Name: 54, dtype: object

>  <hydroph_interaction:GLY:127>  (55) 
hydroph_interaction:GLY:127    0
hydroph_interaction:GLY:127    0
Name: 54, dtype: object

>  <hbond:GLY:128>  (55) 
hbond:GLY:128    0
hbond:GLY:128    0
Name: 54, dtype: object

>  <halogenbond:GLY:128>  (55) 
halogenbond:GLY:128    0
halogenbond:GLY:128    0
Name: 54, dtype: object

>  <hydroph_interaction:GLY:128>  (55) 
hydroph_interaction:GLY:128    0
hydroph_interaction:GLY:128    0
Name: 54, dtype: object

>  <hbond:ASN:129>  (55) 
hbond:ASN:129    0
hbond:ASN:129    0
Name: 54, dtype: object

>  <hydroph_interaction:ASN:129>  (55) 
hydroph_interaction:ASN:129    0
hydroph_interaction:ASN:129    0
Name: 54, dtype: object

>  <halogenbond:ASN:129>  (55) 
halogenbond:ASN:129    0
halogenbond:ASN:129    0
Name: 54, dtype: object

>  <hbond:GLY:130>  (55) 
hbond:GLY:130    0
hbond:GLY:130    0
Name: 54, dtype: object

>  <hydroph_interaction:LEU:131>  (55) 
hydroph_interaction:LEU:131    0
hydroph_interaction:LEU:131    0
Name: 54, dtype: object

>  <hbond:LEU:131>  (55) 
hbond:LEU:131    0
hbond:LEU:131    0
Name: 54, dtype: object

>  <halogenbond:LEU:131>  (55) 
halogenbond:LEU:131    0
halogenbond:LEU:131    0
Name: 54, dtype: object

>  <hydroph_interaction:VAL:132>  (55) 
hydroph_interaction:VAL:132    0
hydroph_interaction:VAL:132    0
Name: 54, dtype: object

>  <hbond:VAL:132>  (55) 
hbond:VAL:132    0
hbond:VAL:132    0
Name: 54, dtype: object

>  <hbond:GLY:133>  (55) 
hbond:GLY:133    0
hbond:GLY:133    0
Name: 54, dtype: object

>  <halogenbond:GLY:133>  (55) 
halogenbond:GLY:133    0
halogenbond:GLY:133    0
Name: 54, dtype: object

>  <hydroph_interaction:PHE:134>  (55) 
hydroph_interaction:PHE:134    0
hydroph_interaction:PHE:134    0
Name: 54, dtype: object

>  <hbond:PHE:134>  (55) 
hbond:PHE:134    0
hbond:PHE:134    0
Name: 54, dtype: object

>  <pistack:PHE:134>  (55) 
pistack:PHE:134    0
pistack:PHE:134    0
Name: 54, dtype: object

>  <pication:PHE:134>  (55) 
pication:PHE:134    0
pication:PHE:134    0
Name: 54, dtype: object

>  <hydroph_interaction:ALA:135>  (55) 
hydroph_interaction:ALA:135    0
hydroph_interaction:ALA:135    0
Name: 54, dtype: object

>  <hbond:ALA:135>  (55) 
hbond:ALA:135    0
hbond:ALA:135    0
Name: 54, dtype: object

$$$$
Z1279157573
     RDKit          3D

 31 32  0  0  0  0  0  0  0  0999 V2000
   10.3620    9.0830   22.5640 C   0  0  0  0  0  0  0  0  0  0  0  0
    9.6570   10.1740   23.2800 C   0  0  0  0  0  0  0  0  0  0  0  0
    9.9450   11.5160   23.0450 C   0  0  0  0  0  0  0  0  0  0  0  0
    9.2490   12.5130   23.7350 C   0  0  0  0  0  0  0  0  0  0  0  0
    8.2670   12.1600   24.6590 C   0  0  0  0  0  0  0  0  0  0  0  0
    7.5030   13.0600   25.4000 N   0  0  0  0  0  0  0  0  0  0  0  0
    7.5270   14.4270   25.3660 C   0  0  0  0  0  0  0  0  0  0  0  0
    7.5460   15.1300   24.3640 O   0  0  0  0  0  0  0  0  0  0  0  0
    7.5330   14.9890   26.7800 C   0  0  0  0  0  0  0  0  0  0  0  0
    6.2790   15.7320   27.1780 C   0  0  0  0  0  0  0  0  0  0  0  0
    6.6040   16.3630   28.5210 C   0  0  0  0  0  0  0  0  0  0  0  0
    7.9550   17.0610   28.3810 C   0  0  0  0  0  0  0  0  0  0  0  0
    8.8610   16.1950   27.0720 S   0  0  0  0  0  0  0  0  0  0  0  0
    7.9950   10.8140   24.8870 C   0  0  0  0  0  0  0  0  0  0  0  0
    7.0220   10.4800   25.8090 O   0  0  0  0  0  0  0  0  0  0  0  0
    8.6870    9.8400   24.1980 C   0  0  0  0  0  0  0  0  0  0  0  0
   11.1160    8.6080   23.1980 H   0  0  0  0  0  0  0  0  0  0  0  0
    9.6550    8.3110   22.2550 H   0  0  0  0  0  0  0  0  0  0  0  0
   10.8440    9.4820   21.6720 H   0  0  0  0  0  0  0  0  0  0  0  0
   10.7080   11.8040   22.3260 H   0  0  0  0  0  0  0  0  0  0  0  0
    9.4950   13.5490   23.5280 H   0  0  0  0  0  0  0  0  0  0  0  0
    6.6700   12.6350   25.8030 H   0  0  0  0  0  0  0  0  0  0  0  0
    7.6950   14.1470   27.4670 H   0  0  0  0  0  0  0  0  0  0  0  0
    6.0190   16.4940   26.4320 H   0  0  0  0  0  0  0  0  0  0  0  0
    5.4150   15.0610   27.2710 H   0  0  0  0  0  0  0  0  0  0  0  0
    5.8260   17.0730   28.8230 H   0  0  0  0  0  0  0  0  0  0  0  0
    6.6530   15.5910   29.3010 H   0  0  0  0  0  0  0  0  0  0  0  0
    7.8400   18.1200   28.1350 H   0  0  0  0  0  0  0  0  0  0  0  0
    8.5320   16.9850   29.3090 H   0  0  0  0  0  0  0  0  0  0  0  0
    6.9410    9.4970   25.8830 H   0  0  0  0  0  0  0  0  0  0  0  0
    8.4800    8.8020   24.3640 H   0  0  0  0  0  0  0  0  0  0  0  0
  1  2  1  0
  2  3  2  0
  3  4  1  0
  4  5  2  0
  5  6  1  0
  6  7  1  0
  7  8  2  0
  7  9  1  0
  9 10  1  0
 10 11  1  0
 11 12  1  0
 12 13  1  0
  5 14  1  0
 14 15  1  0
 14 16  2  0
 16  2  1  0
 13  9  1  0
  1 17  1  0
  1 18  1  0
  1 19  1  0
  3 20  1  0
  4 21  1  0
  6 22  1  0
  9 23  1  0
 10 24  1  0
 10 25  1  0
 11 26  1  0
 11 27  1  0
 12 28  1  0
 12 29  1  0
 15 30  1  0
 16 31  1  0
A    1
 C1 
A    2
 C2 
A    3
 C3 
A    4
 C4 
A    5
 C5 
A    6
 N1 
A    7
 C6 
A    8
 O1 
A    9
 C7 
A   10
 C8 
A   11
 C9 
A   12
 C10
A   13
 S1 
A   14
 C11
A   15
 O2 
A   16
 C12
A   17
 H1 
A   18
 H2 
A   19
 H3 
A   20
 H4 
A   21
 H5 
A   22
 H6 
A   23
 H7 
A   24
 H8 
A   25
 H9 
A   26
 H10
A   27
 H11
A   28
 H12
A   29
 H13
A   30
 H14
A   31
 H15
M  END
>  <ref_pdb>  (56) 
x0310_0A

>  <ref_mols>  (56) 
x0554_0A,x0812_0A,x0416_0A

>  <original SMILES>  (56) 
Cc1ccc(NC(=O)C2CCCS2)c(O)c1

>  <rationale>  (56) 
info hbond:S105; hydroph_interaction:V124; 

>  <intxn_cluster>  (56) 
103

>  <intxn_cluster_rank>  (56) 
251

>  <N_interactions>  (56) 
2

>  <∆∆G>  (56) 
-9.979214

>  <$/mg>  (56) 
163.0

>  <comRMSD>  (56) 
0.882753

>  <N_rotatable_bonds>  (56) 
4

>  <hbond:SER:7>  (56) 
hbond:SER:7    0
hbond:SER:7    0
Name: 55, dtype: object

>  <halogenbond:SER:7>  (56) 
halogenbond:SER:7    0
halogenbond:SER:7    0
Name: 55, dtype: object

>  <hbond:GLY:8>  (56) 
hbond:GLY:8    0
hbond:GLY:8    0
Name: 55, dtype: object

>  <hydroph_interaction:ASN:19>  (56) 
hydroph_interaction:ASN:19    0
hydroph_interaction:ASN:19    0
Name: 55, dtype: object

>  <hbond:ASN:19>  (56) 
hbond:ASN:19    0
hbond:ASN:19    0
Name: 55, dtype: object

>  <halogenbond:ASN:19>  (56) 
halogenbond:ASN:19    0
halogenbond:ASN:19    0
Name: 55, dtype: object

>  <hbond:ARG:20>  (56) 
hbond:ARG:20    0
hbond:ARG:20    0
Name: 55, dtype: object

>  <hydroph_interaction:ARG:20>  (56) 
hydroph_interaction:ARG:20    0
hydroph_interaction:ARG:20    0
Name: 55, dtype: object

>  <saltbridge:ARG:20>  (56) 
saltbridge:ARG:20    0
saltbridge:ARG:20    0
Name: 55, dtype: object

>  <halogenbond:ARG:20>  (56) 
halogenbond:ARG:20    0
halogenbond:ARG:20    0
Name: 55, dtype: object

>  <pication:ARG:20>  (56) 
pication:ARG:20    0
pication:ARG:20    0
Name: 55, dtype: object

>  <hbond:HIS:21>  (56) 
hbond:HIS:21    0
hbond:HIS:21    0
Name: 55, dtype: object

>  <hydroph_interaction:HIS:21>  (56) 
hydroph_interaction:HIS:21    0
hydroph_interaction:HIS:21    0
Name: 55, dtype: object

>  <saltbridge:HIS:21>  (56) 
saltbridge:HIS:21    0
saltbridge:HIS:21    0
Name: 55, dtype: object

>  <pistack:HIS:21>  (56) 
pistack:HIS:21    0
pistack:HIS:21    0
Name: 55, dtype: object

>  <pication:HIS:21>  (56) 
pication:HIS:21    0
pication:HIS:21    0
Name: 55, dtype: object

>  <halogenbond:HIS:21>  (56) 
halogenbond:HIS:21    0
halogenbond:HIS:21    0
Name: 55, dtype: object

>  <hydroph_interaction:LEU:22>  (56) 
hydroph_interaction:LEU:22    0
hydroph_interaction:LEU:22    0
Name: 55, dtype: object

>  <hbond:LEU:22>  (56) 
hbond:LEU:22    0
hbond:LEU:22    0
Name: 55, dtype: object

>  <hydroph_interaction:TRP:28>  (56) 
hydroph_interaction:TRP:28    0
hydroph_interaction:TRP:28    0
Name: 55, dtype: object

>  <hbond:SER:36>  (56) 
hbond:SER:36    0
hbond:SER:36    0
Name: 55, dtype: object

>  <halogenbond:SER:36>  (56) 
halogenbond:SER:36    0
halogenbond:SER:36    0
Name: 55, dtype: object

>  <hbond:ARG:38>  (56) 
hbond:ARG:38    0
hbond:ARG:38    0
Name: 55, dtype: object

>  <halogenbond:ARG:38>  (56) 
halogenbond:ARG:38    0
halogenbond:ARG:38    0
Name: 55, dtype: object

>  <hbond:ASP:39>  (56) 
hbond:ASP:39    0
hbond:ASP:39    0
Name: 55, dtype: object

>  <saltbridge:ASP:39>  (56) 
saltbridge:ASP:39    0
saltbridge:ASP:39    0
Name: 55, dtype: object

>  <hydroph_interaction:ASP:39>  (56) 
hydroph_interaction:ASP:39    0
hydroph_interaction:ASP:39    0
Name: 55, dtype: object

>  <halogenbond:ASP:39>  (56) 
halogenbond:ASP:39    0
halogenbond:ASP:39    0
Name: 55, dtype: object

>  <hydroph_interaction:LEU:40>  (56) 
hydroph_interaction:LEU:40    0
hydroph_interaction:LEU:40    0
Name: 55, dtype: object

>  <hydroph_interaction:TYR:63>  (56) 
hydroph_interaction:TYR:63    0
hydroph_interaction:TYR:63    0
Name: 55, dtype: object

>  <pistack:TYR:63>  (56) 
pistack:TYR:63    0
pistack:TYR:63    0
Name: 55, dtype: object

>  <hbond:TYR:63>  (56) 
hbond:TYR:63    0
hbond:TYR:63    0
Name: 55, dtype: object

>  <hbond:TYR:64>  (56) 
hbond:TYR:64    0
hbond:TYR:64    0
Name: 55, dtype: object

>  <halogenbond:TYR:64>  (56) 
halogenbond:TYR:64    0
halogenbond:TYR:64    0
Name: 55, dtype: object

>  <hydroph_interaction:TYR:64>  (56) 
hydroph_interaction:TYR:64    0
hydroph_interaction:TYR:64    0
Name: 55, dtype: object

>  <hbond:CYS:65>  (56) 
hbond:CYS:65    0
hbond:CYS:65    0
Name: 55, dtype: object

>  <halogenbond:CYS:65>  (56) 
halogenbond:CYS:65    0
halogenbond:CYS:65    0
Name: 55, dtype: object

>  <hbond:SER:66>  (56) 
hbond:SER:66    0
hbond:SER:66    0
Name: 55, dtype: object

>  <hbond:SER:67>  (56) 
hbond:SER:67    0
hbond:SER:67    0
Name: 55, dtype: object

>  <halogenbond:SER:67>  (56) 
halogenbond:SER:67    0
halogenbond:SER:67    0
Name: 55, dtype: object

>  <hydroph_interaction:ARG:68>  (56) 
hydroph_interaction:ARG:68    0
hydroph_interaction:ARG:68    0
Name: 55, dtype: object

>  <hbond:ARG:68>  (56) 
hbond:ARG:68    0
hbond:ARG:68    0
Name: 55, dtype: object

>  <saltbridge:ARG:68>  (56) 
saltbridge:ARG:68    0
saltbridge:ARG:68    0
Name: 55, dtype: object

>  <pication:ARG:68>  (56) 
pication:ARG:68    0
pication:ARG:68    0
Name: 55, dtype: object

>  <hydroph_interaction:TYR:72>  (56) 
hydroph_interaction:TYR:72    0
hydroph_interaction:TYR:72    0
Name: 55, dtype: object

>  <hydroph_interaction:VAL:74>  (56) 
hydroph_interaction:VAL:74    0
hydroph_interaction:VAL:74    0
Name: 55, dtype: object

>  <hydroph_interaction:PHE:76>  (56) 
hydroph_interaction:PHE:76    0
hydroph_interaction:PHE:76    0
Name: 55, dtype: object

>  <hbond:SER:77>  (56) 
hbond:SER:77    0
hbond:SER:77    0
Name: 55, dtype: object

>  <hbond:SER:80>  (56) 
hbond:SER:80    0
hbond:SER:80    0
Name: 55, dtype: object

>  <hbond:LEU:81>  (56) 
hbond:LEU:81    0
hbond:LEU:81    0
Name: 55, dtype: object

>  <halogenbond:LEU:81>  (56) 
halogenbond:LEU:81    0
halogenbond:LEU:81    0
Name: 55, dtype: object

>  <hydroph_interaction:LEU:81>  (56) 
hydroph_interaction:LEU:81    0
hydroph_interaction:LEU:81    0
Name: 55, dtype: object

>  <hydroph_interaction:ILE:82>  (56) 
hydroph_interaction:ILE:82    0
hydroph_interaction:ILE:82    0
Name: 55, dtype: object

>  <hbond:ILE:82>  (56) 
hbond:ILE:82    0
hbond:ILE:82    0
Name: 55, dtype: object

>  <hydroph_interaction:PHE:83>  (56) 
hydroph_interaction:PHE:83    0
hydroph_interaction:PHE:83    0
Name: 55, dtype: object

>  <hbond:PHE:83>  (56) 
hbond:PHE:83    0
hbond:PHE:83    0
Name: 55, dtype: object

>  <halogenbond:PHE:83>  (56) 
halogenbond:PHE:83    0
halogenbond:PHE:83    0
Name: 55, dtype: object

>  <pistack:PHE:83>  (56) 
pistack:PHE:83    0
pistack:PHE:83    0
Name: 55, dtype: object

>  <hydroph_interaction:VAL:84>  (56) 
hydroph_interaction:VAL:84    0
hydroph_interaction:VAL:84    0
Name: 55, dtype: object

>  <hbond:VAL:84>  (56) 
hbond:VAL:84    0
hbond:VAL:84    0
Name: 55, dtype: object

>  <halogenbond:VAL:84>  (56) 
halogenbond:VAL:84    0
halogenbond:VAL:84    0
Name: 55, dtype: object

>  <hydroph_interaction:GLU:85>  (56) 
hydroph_interaction:GLU:85    0
hydroph_interaction:GLU:85    0
Name: 55, dtype: object

>  <hbond:GLU:85>  (56) 
hbond:GLU:85    0
hbond:GLU:85    0
Name: 55, dtype: object

>  <saltbridge:GLU:85>  (56) 
saltbridge:GLU:85    0
saltbridge:GLU:85    0
Name: 55, dtype: object

>  <halogenbond:GLU:85>  (56) 
halogenbond:GLU:85    0
halogenbond:GLU:85    0
Name: 55, dtype: object

>  <hbond:ALA:86>  (56) 
hbond:ALA:86    0
hbond:ALA:86    0
Name: 55, dtype: object

>  <halogenbond:ALA:86>  (56) 
halogenbond:ALA:86    0
halogenbond:ALA:86    0
Name: 55, dtype: object

>  <hydroph_interaction:ALA:86>  (56) 
hydroph_interaction:ALA:86    0
hydroph_interaction:ALA:86    0
Name: 55, dtype: object

>  <hbond:SER:87>  (56) 
hbond:SER:87    0
hbond:SER:87    0
Name: 55, dtype: object

>  <halogenbond:SER:87>  (56) 
halogenbond:SER:87    0
halogenbond:SER:87    0
Name: 55, dtype: object

>  <hbond:GLU:88>  (56) 
hbond:GLU:88    0
hbond:GLU:88    0
Name: 55, dtype: object

>  <hydroph_interaction:GLU:88>  (56) 
hydroph_interaction:GLU:88    0
hydroph_interaction:GLU:88    0
Name: 55, dtype: object

>  <halogenbond:GLU:88>  (56) 
halogenbond:GLU:88    0
halogenbond:GLU:88    0
Name: 55, dtype: object

>  <saltbridge:GLU:88>  (56) 
saltbridge:GLU:88    0
saltbridge:GLU:88    0
Name: 55, dtype: object

>  <hydroph_interaction:TYR:89>  (56) 
hydroph_interaction:TYR:89    0
hydroph_interaction:TYR:89    0
Name: 55, dtype: object

>  <pistack:TYR:89>  (56) 
pistack:TYR:89    0
pistack:TYR:89    0
Name: 55, dtype: object

>  <hbond:TYR:89>  (56) 
hbond:TYR:89    0
hbond:TYR:89    0
Name: 55, dtype: object

>  <halogenbond:TYR:89>  (56) 
halogenbond:TYR:89    0
halogenbond:TYR:89    0
Name: 55, dtype: object

>  <hbond:TYR:90>  (56) 
hbond:TYR:90    0
hbond:TYR:90    0
Name: 55, dtype: object

>  <hydroph_interaction:TYR:90>  (56) 
hydroph_interaction:TYR:90    0
hydroph_interaction:TYR:90    0
Name: 55, dtype: object

>  <pistack:TYR:90>  (56) 
pistack:TYR:90    0
pistack:TYR:90    0
Name: 55, dtype: object

>  <halogenbond:TYR:90>  (56) 
halogenbond:TYR:90    0
halogenbond:TYR:90    0
Name: 55, dtype: object

>  <pication:TYR:90>  (56) 
pication:TYR:90    0
pication:TYR:90    0
Name: 55, dtype: object

>  <hydroph_interaction:PRO:91>  (56) 
hydroph_interaction:PRO:91    0
hydroph_interaction:PRO:91    0
Name: 55, dtype: object

>  <halogenbond:PRO:91>  (56) 
halogenbond:PRO:91    0
halogenbond:PRO:91    0
Name: 55, dtype: object

>  <hbond:PRO:91>  (56) 
hbond:PRO:91    0
hbond:PRO:91    0
Name: 55, dtype: object

>  <hydroph_interaction:ALA:92>  (56) 
hydroph_interaction:ALA:92    0
hydroph_interaction:ALA:92    0
Name: 55, dtype: object

>  <hbond:ARG:93>  (56) 
hbond:ARG:93    0
hbond:ARG:93    0
Name: 55, dtype: object

>  <pication:ARG:93>  (56) 
pication:ARG:93    0
pication:ARG:93    0
Name: 55, dtype: object

>  <saltbridge:ARG:93>  (56) 
saltbridge:ARG:93    0
saltbridge:ARG:93    0
Name: 55, dtype: object

>  <hydroph_interaction:ARG:93>  (56) 
hydroph_interaction:ARG:93    0
hydroph_interaction:ARG:93    0
Name: 55, dtype: object

>  <halogenbond:ARG:93>  (56) 
halogenbond:ARG:93    0
halogenbond:ARG:93    0
Name: 55, dtype: object

>  <hydroph_interaction:TYR:94>  (56) 
hydroph_interaction:TYR:94    0
hydroph_interaction:TYR:94    0
Name: 55, dtype: object

>  <hbond:TYR:94>  (56) 
hbond:TYR:94    0
hbond:TYR:94    0
Name: 55, dtype: object

>  <halogenbond:GLN:95>  (56) 
halogenbond:GLN:95    0
halogenbond:GLN:95    0
Name: 55, dtype: object

>  <hbond:GLN:95>  (56) 
hbond:GLN:95    0
hbond:GLN:95    0
Name: 55, dtype: object

>  <hydroph_interaction:GLN:95>  (56) 
hydroph_interaction:GLN:95    0
hydroph_interaction:GLN:95    0
Name: 55, dtype: object

>  <hbond:SER:96>  (56) 
hbond:SER:96    0
hbond:SER:96    0
Name: 55, dtype: object

>  <hydroph_interaction:LEU:98>  (56) 
hydroph_interaction:LEU:98    0
hydroph_interaction:LEU:98    0
Name: 55, dtype: object

>  <hbond:LEU:98>  (56) 
hbond:LEU:98    0
hbond:LEU:98    0
Name: 55, dtype: object

>  <hbond:MET:99>  (56) 
hbond:MET:99    0
hbond:MET:99    0
Name: 55, dtype: object

>  <hydroph_interaction:MET:99>  (56) 
hydroph_interaction:MET:99    0
hydroph_interaction:MET:99    0
Name: 55, dtype: object

>  <halogenbond:MET:99>  (56) 
halogenbond:MET:99    0
halogenbond:MET:99    0
Name: 55, dtype: object

>  <hydroph_interaction:LEU:100>  (56) 
hydroph_interaction:LEU:100    0
hydroph_interaction:LEU:100    0
Name: 55, dtype: object

>  <hbond:LEU:100>  (56) 
hbond:LEU:100    0
hbond:LEU:100    0
Name: 55, dtype: object

>  <hbond:ALA:101>  (56) 
hbond:ALA:101    0
hbond:ALA:101    0
Name: 55, dtype: object

>  <hydroph_interaction:ALA:101>  (56) 
hydroph_interaction:ALA:101    0
hydroph_interaction:ALA:101    0
Name: 55, dtype: object

>  <hydroph_interaction:VAL:102>  (56) 
hydroph_interaction:VAL:102    0
hydroph_interaction:VAL:102    0
Name: 55, dtype: object

>  <hbond:VAL:102>  (56) 
hbond:VAL:102    0
hbond:VAL:102    0
Name: 55, dtype: object

>  <hbond:GLY:103>  (56) 
hbond:GLY:103    0
hbond:GLY:103    0
Name: 55, dtype: object

>  <halogenbond:GLY:103>  (56) 
halogenbond:GLY:103    0
halogenbond:GLY:103    0
Name: 55, dtype: object

>  <hydroph_interaction:HIS:104>  (56) 
hydroph_interaction:HIS:104    0
hydroph_interaction:HIS:104    0
Name: 55, dtype: object

>  <hbond:HIS:104>  (56) 
hbond:HIS:104    0
hbond:HIS:104    0
Name: 55, dtype: object

>  <saltbridge:HIS:104>  (56) 
saltbridge:HIS:104    0
saltbridge:HIS:104    0
Name: 55, dtype: object

>  <pication:HIS:104>  (56) 
pication:HIS:104    0
pication:HIS:104    0
Name: 55, dtype: object

>  <pistack:HIS:104>  (56) 
pistack:HIS:104    0
pistack:HIS:104    0
Name: 55, dtype: object

>  <halogenbond:HIS:104>  (56) 
halogenbond:HIS:104    0
halogenbond:HIS:104    0
Name: 55, dtype: object

>  <hbond:SER:105>  (56) 
hbond:SER:105    1
hbond:SER:105    1
Name: 55, dtype: object

>  <halogenbond:SER:105>  (56) 
halogenbond:SER:105    0
halogenbond:SER:105    0
Name: 55, dtype: object

>  <hbond:GLU:106>  (56) 
hbond:GLU:106    0
hbond:GLU:106    0
Name: 55, dtype: object

>  <hydroph_interaction:GLU:106>  (56) 
hydroph_interaction:GLU:106    0
hydroph_interaction:GLU:106    0
Name: 55, dtype: object

>  <saltbridge:GLU:106>  (56) 
saltbridge:GLU:106    0
saltbridge:GLU:106    0
Name: 55, dtype: object

>  <halogenbond:GLU:106>  (56) 
halogenbond:GLU:106    0
halogenbond:GLU:106    0
Name: 55, dtype: object

>  <hydroph_interaction:PRO:107>  (56) 
hydroph_interaction:PRO:107    0
hydroph_interaction:PRO:107    0
Name: 55, dtype: object

>  <hbond:PRO:107>  (56) 
hbond:PRO:107    0
hbond:PRO:107    0
Name: 55, dtype: object

>  <halogenbond:PRO:107>  (56) 
halogenbond:PRO:107    0
halogenbond:PRO:107    0
Name: 55, dtype: object

>  <hbond:GLY:108>  (56) 
hbond:GLY:108    0
hbond:GLY:108    0
Name: 55, dtype: object

>  <halogenbond:GLY:108>  (56) 
halogenbond:GLY:108    0
halogenbond:GLY:108    0
Name: 55, dtype: object

>  <hbond:ASP:109>  (56) 
hbond:ASP:109    0
hbond:ASP:109    0
Name: 55, dtype: object

>  <hydroph_interaction:ASP:109>  (56) 
hydroph_interaction:ASP:109    0
hydroph_interaction:ASP:109    0
Name: 55, dtype: object

>  <saltbridge:ASP:109>  (56) 
saltbridge:ASP:109    0
saltbridge:ASP:109    0
Name: 55, dtype: object

>  <hbond:CYS:110>  (56) 
hbond:CYS:110    0
hbond:CYS:110    0
Name: 55, dtype: object

>  <halogenbond:CYS:110>  (56) 
halogenbond:CYS:110    0
halogenbond:CYS:110    0
Name: 55, dtype: object

>  <hbond:GLY:111>  (56) 
hbond:GLY:111    0
hbond:GLY:111    0
Name: 55, dtype: object

>  <hbond:GLY:112>  (56) 
hbond:GLY:112    0
hbond:GLY:112    0
Name: 55, dtype: object

>  <hbond:ILE:113>  (56) 
hbond:ILE:113    0
hbond:ILE:113    0
Name: 55, dtype: object

>  <hydroph_interaction:LEU:114>  (56) 
hydroph_interaction:LEU:114    0
hydroph_interaction:LEU:114    0
Name: 55, dtype: object

>  <hbond:LEU:114>  (56) 
hbond:LEU:114    0
hbond:LEU:114    0
Name: 55, dtype: object

>  <hydroph_interaction:ILE:123>  (56) 
hydroph_interaction:ILE:123    0
hydroph_interaction:ILE:123    0
Name: 55, dtype: object

>  <hbond:ILE:123>  (56) 
hbond:ILE:123    0
hbond:ILE:123    0
Name: 55, dtype: object

>  <hydroph_interaction:VAL:124>  (56) 
hydroph_interaction:VAL:124    1
hydroph_interaction:VAL:124    1
Name: 55, dtype: object

>  <hbond:VAL:124>  (56) 
hbond:VAL:124    0
hbond:VAL:124    0
Name: 55, dtype: object

>  <halogenbond:VAL:124>  (56) 
halogenbond:VAL:124    0
halogenbond:VAL:124    0
Name: 55, dtype: object

>  <hbond:SER:125>  (56) 
hbond:SER:125    0
hbond:SER:125    0
Name: 55, dtype: object

>  <halogenbond:SER:125>  (56) 
halogenbond:SER:125    0
halogenbond:SER:125    0
Name: 55, dtype: object

>  <hydroph_interaction:THR:126>  (56) 
hydroph_interaction:THR:126    0
hydroph_interaction:THR:126    0
Name: 55, dtype: object

>  <hbond:THR:126>  (56) 
hbond:THR:126    0
hbond:THR:126    0
Name: 55, dtype: object

>  <halogenbond:THR:126>  (56) 
halogenbond:THR:126    0
halogenbond:THR:126    0
Name: 55, dtype: object

>  <hbond:GLY:127>  (56) 
hbond:GLY:127    0
hbond:GLY:127    0
Name: 55, dtype: object

>  <halogenbond:GLY:127>  (56) 
halogenbond:GLY:127    0
halogenbond:GLY:127    0
Name: 55, dtype: object

>  <hydroph_interaction:GLY:127>  (56) 
hydroph_interaction:GLY:127    0
hydroph_interaction:GLY:127    0
Name: 55, dtype: object

>  <hbond:GLY:128>  (56) 
hbond:GLY:128    0
hbond:GLY:128    0
Name: 55, dtype: object

>  <halogenbond:GLY:128>  (56) 
halogenbond:GLY:128    0
halogenbond:GLY:128    0
Name: 55, dtype: object

>  <hydroph_interaction:GLY:128>  (56) 
hydroph_interaction:GLY:128    0
hydroph_interaction:GLY:128    0
Name: 55, dtype: object

>  <hbond:ASN:129>  (56) 
hbond:ASN:129    0
hbond:ASN:129    0
Name: 55, dtype: object

>  <hydroph_interaction:ASN:129>  (56) 
hydroph_interaction:ASN:129    0
hydroph_interaction:ASN:129    0
Name: 55, dtype: object

>  <halogenbond:ASN:129>  (56) 
halogenbond:ASN:129    0
halogenbond:ASN:129    0
Name: 55, dtype: object

>  <hbond:GLY:130>  (56) 
hbond:GLY:130    0
hbond:GLY:130    0
Name: 55, dtype: object

>  <hydroph_interaction:LEU:131>  (56) 
hydroph_interaction:LEU:131    0
hydroph_interaction:LEU:131    0
Name: 55, dtype: object

>  <hbond:LEU:131>  (56) 
hbond:LEU:131    0
hbond:LEU:131    0
Name: 55, dtype: object

>  <halogenbond:LEU:131>  (56) 
halogenbond:LEU:131    0
halogenbond:LEU:131    0
Name: 55, dtype: object

>  <hydroph_interaction:VAL:132>  (56) 
hydroph_interaction:VAL:132    0
hydroph_interaction:VAL:132    0
Name: 55, dtype: object

>  <hbond:VAL:132>  (56) 
hbond:VAL:132    0
hbond:VAL:132    0
Name: 55, dtype: object

>  <hbond:GLY:133>  (56) 
hbond:GLY:133    0
hbond:GLY:133    0
Name: 55, dtype: object

>  <halogenbond:GLY:133>  (56) 
halogenbond:GLY:133    0
halogenbond:GLY:133    0
Name: 55, dtype: object

>  <hydroph_interaction:PHE:134>  (56) 
hydroph_interaction:PHE:134    0
hydroph_interaction:PHE:134    0
Name: 55, dtype: object

>  <hbond:PHE:134>  (56) 
hbond:PHE:134    0
hbond:PHE:134    0
Name: 55, dtype: object

>  <pistack:PHE:134>  (56) 
pistack:PHE:134    0
pistack:PHE:134    0
Name: 55, dtype: object

>  <pication:PHE:134>  (56) 
pication:PHE:134    0
pication:PHE:134    0
Name: 55, dtype: object

>  <hydroph_interaction:ALA:135>  (56) 
hydroph_interaction:ALA:135    0
hydroph_interaction:ALA:135    0
Name: 55, dtype: object

>  <hbond:ALA:135>  (56) 
hbond:ALA:135    0
hbond:ALA:135    0
Name: 55, dtype: object

$$$$
Z2763287576
     RDKit          3D

 33 34  0  0  0  0  0  0  0  0999 V2000
   12.3230   14.7690   22.0410 C   0  0  0  0  0  0  0  0  0  0  0  0
   11.4930   13.9290   22.9840 C   0  0  0  0  0  0  0  0  0  0  0  0
   11.4780   14.1650   24.1880 O   0  0  0  0  0  0  0  0  0  0  0  0
   10.8030   12.9370   22.3220 N   0  0  0  0  0  0  0  0  0  0  0  0
    9.9560   12.0500   23.1150 C   0  0  0  0  0  0  0  0  0  0  0  0
   10.0390   10.5760   22.9310 C   0  0  0  0  0  0  0  0  0  0  0  0
    9.2040    9.7990   23.6990 C   0  0  0  0  0  0  0  0  0  0  0  0
    8.3090   10.3310   24.6140 C   0  0  0  0  0  0  0  0  0  0  0  0
    8.2330   11.7010   24.7880 C   0  0  0  0  0  0  0  0  0  0  0  0
    9.0470   12.5470   24.0550 C   0  0  0  0  0  0  0  0  0  0  0  0
    8.9180   13.9890   24.2900 C   0  0  0  0  0  0  0  0  0  0  0  0
    7.5310   14.3490   24.4400 N   0  0  0  0  0  0  0  0  0  0  0  0
    6.9650   14.8210   23.1910 C   0  0  0  0  0  0  0  0  0  0  0  0
    7.4880   14.1510   21.9470 C   0  0  0  0  0  0  0  0  0  0  0  0
    6.1400   15.7030   23.1350 O   0  0  0  0  0  0  0  0  0  0  0  0
    6.7290   13.6160   25.2520 C   0  0  0  0  0  0  0  0  0  0  0  0
    7.2490   12.2680   25.7820 C   0  0  0  0  0  0  0  0  0  0  0  0
   11.7770   15.6810   21.7700 H   0  0  0  0  0  0  0  0  0  0  0  0
   13.2670   15.0880   22.5050 H   0  0  0  0  0  0  0  0  0  0  0  0
   12.5410   14.2080   21.1240 H   0  0  0  0  0  0  0  0  0  0  0  0
   11.1220   12.6130   21.4140 H   0  0  0  0  0  0  0  0  0  0  0  0
   10.7170   10.1130   22.2260 H   0  0  0  0  0  0  0  0  0  0  0  0
    9.2550    8.7520   23.5800 H   0  0  0  0  0  0  0  0  0  0  0  0
    7.6650    9.6810   25.1940 H   0  0  0  0  0  0  0  0  0  0  0  0
    9.3030   14.5160   23.4140 H   0  0  0  0  0  0  0  0  0  0  0  0
    9.4770   14.2860   25.1840 H   0  0  0  0  0  0  0  0  0  0  0  0
    7.9510   14.9070   21.3080 H   0  0  0  0  0  0  0  0  0  0  0  0
    6.6400   13.7130   21.4170 H   0  0  0  0  0  0  0  0  0  0  0  0
    8.2230   13.3650   22.0720 H   0  0  0  0  0  0  0  0  0  0  0  0
    6.4810   14.3440   26.0180 H   0  0  0  0  0  0  0  0  0  0  0  0
    5.7900   13.5340   24.7200 H   0  0  0  0  0  0  0  0  0  0  0  0
    7.7430   12.3130   26.7370 H   0  0  0  0  0  0  0  0  0  0  0  0
    6.5180   11.4750   25.9050 H   0  0  0  0  0  0  0  0  0  0  0  0
  1  2  1  0
  2  3  2  0
  2  4  1  0
  4  5  1  0
  5  6  2  0
  6  7  1  0
  7  8  2  0
  8  9  1  0
  9 10  2  0
 10 11  1  0
 11 12  1  0
 12 13  1  0
 13 14  1  0
 13 15  2  0
 12 16  1  0
 16 17  1  0
 10  5  1  0
 17  9  1  0
  1 18  1  0
  1 19  1  0
  1 20  1  0
  4 21  1  0
  6 22  1  0
  7 23  1  0
  8 24  1  0
 11 25  1  0
 11 26  1  0
 14 27  1  0
 14 28  1  0
 14 29  1  0
 16 30  1  0
 16 31  1  0
 17 32  1  0
 17 33  1  0
A    1
 C1 
A    2
 C2 
A    3
 O1 
A    4
 N1 
A    5
 C3 
A    6
 C4 
A    7
 C5 
A    8
 C6 
A    9
 C7 
A   10
 C8 
A   11
 C9 
A   12
 N2 
A   13
 C10
A   14
 C11
A   15
 O2 
A   16
 C12
A   17
 C13
A   18
 H1 
A   19
 H2 
A   20
 H3 
A   21
 H4 
A   22
 H5 
A   23
 H6 
A   24
 H7 
A   25
 H8 
A   26
 H9 
A   27
 H10
A   28
 H11
A   29
 H12
A   30
 H13
A   31
 H14
A   32
 H15
A   33
 H16
M  END
>  <ref_pdb>  (57) 
x0310_0A

>  <ref_mols>  (57) 
x0554_0A,x0416_0A,x0446_0A

>  <original SMILES>  (57) 
CC(=O)Nc1cccc2c1CN(C(C)=O)CC2

>  <rationale>  (57) 
info hbond:S125; hydroph_interaction:P107+V84; 

>  <intxn_cluster>  (57) 
208

>  <intxn_cluster_rank>  (57) 
259

>  <N_interactions>  (57) 
3

>  <∆∆G>  (57) 
-10.741102

>  <$/mg>  (57) 
163.0

>  <comRMSD>  (57) 
0.844096

>  <N_rotatable_bonds>  (57) 
3

>  <hbond:SER:7>  (57) 
hbond:SER:7    0
hbond:SER:7    0
Name: 56, dtype: object

>  <halogenbond:SER:7>  (57) 
halogenbond:SER:7    0
halogenbond:SER:7    0
Name: 56, dtype: object

>  <hbond:GLY:8>  (57) 
hbond:GLY:8    0
hbond:GLY:8    0
Name: 56, dtype: object

>  <hydroph_interaction:ASN:19>  (57) 
hydroph_interaction:ASN:19    0
hydroph_interaction:ASN:19    0
Name: 56, dtype: object

>  <hbond:ASN:19>  (57) 
hbond:ASN:19    0
hbond:ASN:19    0
Name: 56, dtype: object

>  <halogenbond:ASN:19>  (57) 
halogenbond:ASN:19    0
halogenbond:ASN:19    0
Name: 56, dtype: object

>  <hbond:ARG:20>  (57) 
hbond:ARG:20    0
hbond:ARG:20    0
Name: 56, dtype: object

>  <hydroph_interaction:ARG:20>  (57) 
hydroph_interaction:ARG:20    0
hydroph_interaction:ARG:20    0
Name: 56, dtype: object

>  <saltbridge:ARG:20>  (57) 
saltbridge:ARG:20    0
saltbridge:ARG:20    0
Name: 56, dtype: object

>  <halogenbond:ARG:20>  (57) 
halogenbond:ARG:20    0
halogenbond:ARG:20    0
Name: 56, dtype: object

>  <pication:ARG:20>  (57) 
pication:ARG:20    0
pication:ARG:20    0
Name: 56, dtype: object

>  <hbond:HIS:21>  (57) 
hbond:HIS:21    0
hbond:HIS:21    0
Name: 56, dtype: object

>  <hydroph_interaction:HIS:21>  (57) 
hydroph_interaction:HIS:21    0
hydroph_interaction:HIS:21    0
Name: 56, dtype: object

>  <saltbridge:HIS:21>  (57) 
saltbridge:HIS:21    0
saltbridge:HIS:21    0
Name: 56, dtype: object

>  <pistack:HIS:21>  (57) 
pistack:HIS:21    0
pistack:HIS:21    0
Name: 56, dtype: object

>  <pication:HIS:21>  (57) 
pication:HIS:21    0
pication:HIS:21    0
Name: 56, dtype: object

>  <halogenbond:HIS:21>  (57) 
halogenbond:HIS:21    0
halogenbond:HIS:21    0
Name: 56, dtype: object

>  <hydroph_interaction:LEU:22>  (57) 
hydroph_interaction:LEU:22    0
hydroph_interaction:LEU:22    0
Name: 56, dtype: object

>  <hbond:LEU:22>  (57) 
hbond:LEU:22    0
hbond:LEU:22    0
Name: 56, dtype: object

>  <hydroph_interaction:TRP:28>  (57) 
hydroph_interaction:TRP:28    0
hydroph_interaction:TRP:28    0
Name: 56, dtype: object

>  <hbond:SER:36>  (57) 
hbond:SER:36    0
hbond:SER:36    0
Name: 56, dtype: object

>  <halogenbond:SER:36>  (57) 
halogenbond:SER:36    0
halogenbond:SER:36    0
Name: 56, dtype: object

>  <hbond:ARG:38>  (57) 
hbond:ARG:38    0
hbond:ARG:38    0
Name: 56, dtype: object

>  <halogenbond:ARG:38>  (57) 
halogenbond:ARG:38    0
halogenbond:ARG:38    0
Name: 56, dtype: object

>  <hbond:ASP:39>  (57) 
hbond:ASP:39    0
hbond:ASP:39    0
Name: 56, dtype: object

>  <saltbridge:ASP:39>  (57) 
saltbridge:ASP:39    0
saltbridge:ASP:39    0
Name: 56, dtype: object

>  <hydroph_interaction:ASP:39>  (57) 
hydroph_interaction:ASP:39    0
hydroph_interaction:ASP:39    0
Name: 56, dtype: object

>  <halogenbond:ASP:39>  (57) 
halogenbond:ASP:39    0
halogenbond:ASP:39    0
Name: 56, dtype: object

>  <hydroph_interaction:LEU:40>  (57) 
hydroph_interaction:LEU:40    0
hydroph_interaction:LEU:40    0
Name: 56, dtype: object

>  <hydroph_interaction:TYR:63>  (57) 
hydroph_interaction:TYR:63    0
hydroph_interaction:TYR:63    0
Name: 56, dtype: object

>  <pistack:TYR:63>  (57) 
pistack:TYR:63    0
pistack:TYR:63    0
Name: 56, dtype: object

>  <hbond:TYR:63>  (57) 
hbond:TYR:63    0
hbond:TYR:63    0
Name: 56, dtype: object

>  <hbond:TYR:64>  (57) 
hbond:TYR:64    0
hbond:TYR:64    0
Name: 56, dtype: object

>  <halogenbond:TYR:64>  (57) 
halogenbond:TYR:64    0
halogenbond:TYR:64    0
Name: 56, dtype: object

>  <hydroph_interaction:TYR:64>  (57) 
hydroph_interaction:TYR:64    0
hydroph_interaction:TYR:64    0
Name: 56, dtype: object

>  <hbond:CYS:65>  (57) 
hbond:CYS:65    0
hbond:CYS:65    0
Name: 56, dtype: object

>  <halogenbond:CYS:65>  (57) 
halogenbond:CYS:65    0
halogenbond:CYS:65    0
Name: 56, dtype: object

>  <hbond:SER:66>  (57) 
hbond:SER:66    0
hbond:SER:66    0
Name: 56, dtype: object

>  <hbond:SER:67>  (57) 
hbond:SER:67    0
hbond:SER:67    0
Name: 56, dtype: object

>  <halogenbond:SER:67>  (57) 
halogenbond:SER:67    0
halogenbond:SER:67    0
Name: 56, dtype: object

>  <hydroph_interaction:ARG:68>  (57) 
hydroph_interaction:ARG:68    0
hydroph_interaction:ARG:68    0
Name: 56, dtype: object

>  <hbond:ARG:68>  (57) 
hbond:ARG:68    0
hbond:ARG:68    0
Name: 56, dtype: object

>  <saltbridge:ARG:68>  (57) 
saltbridge:ARG:68    0
saltbridge:ARG:68    0
Name: 56, dtype: object

>  <pication:ARG:68>  (57) 
pication:ARG:68    0
pication:ARG:68    0
Name: 56, dtype: object

>  <hydroph_interaction:TYR:72>  (57) 
hydroph_interaction:TYR:72    0
hydroph_interaction:TYR:72    0
Name: 56, dtype: object

>  <hydroph_interaction:VAL:74>  (57) 
hydroph_interaction:VAL:74    0
hydroph_interaction:VAL:74    0
Name: 56, dtype: object

>  <hydroph_interaction:PHE:76>  (57) 
hydroph_interaction:PHE:76    0
hydroph_interaction:PHE:76    0
Name: 56, dtype: object

>  <hbond:SER:77>  (57) 
hbond:SER:77    0
hbond:SER:77    0
Name: 56, dtype: object

>  <hbond:SER:80>  (57) 
hbond:SER:80    0
hbond:SER:80    0
Name: 56, dtype: object

>  <hbond:LEU:81>  (57) 
hbond:LEU:81    0
hbond:LEU:81    0
Name: 56, dtype: object

>  <halogenbond:LEU:81>  (57) 
halogenbond:LEU:81    0
halogenbond:LEU:81    0
Name: 56, dtype: object

>  <hydroph_interaction:LEU:81>  (57) 
hydroph_interaction:LEU:81    0
hydroph_interaction:LEU:81    0
Name: 56, dtype: object

>  <hydroph_interaction:ILE:82>  (57) 
hydroph_interaction:ILE:82    0
hydroph_interaction:ILE:82    0
Name: 56, dtype: object

>  <hbond:ILE:82>  (57) 
hbond:ILE:82    0
hbond:ILE:82    0
Name: 56, dtype: object

>  <hydroph_interaction:PHE:83>  (57) 
hydroph_interaction:PHE:83    0
hydroph_interaction:PHE:83    0
Name: 56, dtype: object

>  <hbond:PHE:83>  (57) 
hbond:PHE:83    0
hbond:PHE:83    0
Name: 56, dtype: object

>  <halogenbond:PHE:83>  (57) 
halogenbond:PHE:83    0
halogenbond:PHE:83    0
Name: 56, dtype: object

>  <pistack:PHE:83>  (57) 
pistack:PHE:83    0
pistack:PHE:83    0
Name: 56, dtype: object

>  <hydroph_interaction:VAL:84>  (57) 
hydroph_interaction:VAL:84    1
hydroph_interaction:VAL:84    1
Name: 56, dtype: object

>  <hbond:VAL:84>  (57) 
hbond:VAL:84    0
hbond:VAL:84    0
Name: 56, dtype: object

>  <halogenbond:VAL:84>  (57) 
halogenbond:VAL:84    0
halogenbond:VAL:84    0
Name: 56, dtype: object

>  <hydroph_interaction:GLU:85>  (57) 
hydroph_interaction:GLU:85    0
hydroph_interaction:GLU:85    0
Name: 56, dtype: object

>  <hbond:GLU:85>  (57) 
hbond:GLU:85    0
hbond:GLU:85    0
Name: 56, dtype: object

>  <saltbridge:GLU:85>  (57) 
saltbridge:GLU:85    0
saltbridge:GLU:85    0
Name: 56, dtype: object

>  <halogenbond:GLU:85>  (57) 
halogenbond:GLU:85    0
halogenbond:GLU:85    0
Name: 56, dtype: object

>  <hbond:ALA:86>  (57) 
hbond:ALA:86    0
hbond:ALA:86    0
Name: 56, dtype: object

>  <halogenbond:ALA:86>  (57) 
halogenbond:ALA:86    0
halogenbond:ALA:86    0
Name: 56, dtype: object

>  <hydroph_interaction:ALA:86>  (57) 
hydroph_interaction:ALA:86    0
hydroph_interaction:ALA:86    0
Name: 56, dtype: object

>  <hbond:SER:87>  (57) 
hbond:SER:87    0
hbond:SER:87    0
Name: 56, dtype: object

>  <halogenbond:SER:87>  (57) 
halogenbond:SER:87    0
halogenbond:SER:87    0
Name: 56, dtype: object

>  <hbond:GLU:88>  (57) 
hbond:GLU:88    0
hbond:GLU:88    0
Name: 56, dtype: object

>  <hydroph_interaction:GLU:88>  (57) 
hydroph_interaction:GLU:88    0
hydroph_interaction:GLU:88    0
Name: 56, dtype: object

>  <halogenbond:GLU:88>  (57) 
halogenbond:GLU:88    0
halogenbond:GLU:88    0
Name: 56, dtype: object

>  <saltbridge:GLU:88>  (57) 
saltbridge:GLU:88    0
saltbridge:GLU:88    0
Name: 56, dtype: object

>  <hydroph_interaction:TYR:89>  (57) 
hydroph_interaction:TYR:89    0
hydroph_interaction:TYR:89    0
Name: 56, dtype: object

>  <pistack:TYR:89>  (57) 
pistack:TYR:89    0
pistack:TYR:89    0
Name: 56, dtype: object

>  <hbond:TYR:89>  (57) 
hbond:TYR:89    0
hbond:TYR:89    0
Name: 56, dtype: object

>  <halogenbond:TYR:89>  (57) 
halogenbond:TYR:89    0
halogenbond:TYR:89    0
Name: 56, dtype: object

>  <hbond:TYR:90>  (57) 
hbond:TYR:90    0
hbond:TYR:90    0
Name: 56, dtype: object

>  <hydroph_interaction:TYR:90>  (57) 
hydroph_interaction:TYR:90    0
hydroph_interaction:TYR:90    0
Name: 56, dtype: object

>  <pistack:TYR:90>  (57) 
pistack:TYR:90    0
pistack:TYR:90    0
Name: 56, dtype: object

>  <halogenbond:TYR:90>  (57) 
halogenbond:TYR:90    0
halogenbond:TYR:90    0
Name: 56, dtype: object

>  <pication:TYR:90>  (57) 
pication:TYR:90    0
pication:TYR:90    0
Name: 56, dtype: object

>  <hydroph_interaction:PRO:91>  (57) 
hydroph_interaction:PRO:91    0
hydroph_interaction:PRO:91    0
Name: 56, dtype: object

>  <halogenbond:PRO:91>  (57) 
halogenbond:PRO:91    0
halogenbond:PRO:91    0
Name: 56, dtype: object

>  <hbond:PRO:91>  (57) 
hbond:PRO:91    0
hbond:PRO:91    0
Name: 56, dtype: object

>  <hydroph_interaction:ALA:92>  (57) 
hydroph_interaction:ALA:92    0
hydroph_interaction:ALA:92    0
Name: 56, dtype: object

>  <hbond:ARG:93>  (57) 
hbond:ARG:93    0
hbond:ARG:93    0
Name: 56, dtype: object

>  <pication:ARG:93>  (57) 
pication:ARG:93    0
pication:ARG:93    0
Name: 56, dtype: object

>  <saltbridge:ARG:93>  (57) 
saltbridge:ARG:93    0
saltbridge:ARG:93    0
Name: 56, dtype: object

>  <hydroph_interaction:ARG:93>  (57) 
hydroph_interaction:ARG:93    0
hydroph_interaction:ARG:93    0
Name: 56, dtype: object

>  <halogenbond:ARG:93>  (57) 
halogenbond:ARG:93    0
halogenbond:ARG:93    0
Name: 56, dtype: object

>  <hydroph_interaction:TYR:94>  (57) 
hydroph_interaction:TYR:94    0
hydroph_interaction:TYR:94    0
Name: 56, dtype: object

>  <hbond:TYR:94>  (57) 
hbond:TYR:94    0
hbond:TYR:94    0
Name: 56, dtype: object

>  <halogenbond:GLN:95>  (57) 
halogenbond:GLN:95    0
halogenbond:GLN:95    0
Name: 56, dtype: object

>  <hbond:GLN:95>  (57) 
hbond:GLN:95    0
hbond:GLN:95    0
Name: 56, dtype: object

>  <hydroph_interaction:GLN:95>  (57) 
hydroph_interaction:GLN:95    0
hydroph_interaction:GLN:95    0
Name: 56, dtype: object

>  <hbond:SER:96>  (57) 
hbond:SER:96    0
hbond:SER:96    0
Name: 56, dtype: object

>  <hydroph_interaction:LEU:98>  (57) 
hydroph_interaction:LEU:98    0
hydroph_interaction:LEU:98    0
Name: 56, dtype: object

>  <hbond:LEU:98>  (57) 
hbond:LEU:98    0
hbond:LEU:98    0
Name: 56, dtype: object

>  <hbond:MET:99>  (57) 
hbond:MET:99    0
hbond:MET:99    0
Name: 56, dtype: object

>  <hydroph_interaction:MET:99>  (57) 
hydroph_interaction:MET:99    0
hydroph_interaction:MET:99    0
Name: 56, dtype: object

>  <halogenbond:MET:99>  (57) 
halogenbond:MET:99    0
halogenbond:MET:99    0
Name: 56, dtype: object

>  <hydroph_interaction:LEU:100>  (57) 
hydroph_interaction:LEU:100    0
hydroph_interaction:LEU:100    0
Name: 56, dtype: object

>  <hbond:LEU:100>  (57) 
hbond:LEU:100    0
hbond:LEU:100    0
Name: 56, dtype: object

>  <hbond:ALA:101>  (57) 
hbond:ALA:101    0
hbond:ALA:101    0
Name: 56, dtype: object

>  <hydroph_interaction:ALA:101>  (57) 
hydroph_interaction:ALA:101    0
hydroph_interaction:ALA:101    0
Name: 56, dtype: object

>  <hydroph_interaction:VAL:102>  (57) 
hydroph_interaction:VAL:102    0
hydroph_interaction:VAL:102    0
Name: 56, dtype: object

>  <hbond:VAL:102>  (57) 
hbond:VAL:102    0
hbond:VAL:102    0
Name: 56, dtype: object

>  <hbond:GLY:103>  (57) 
hbond:GLY:103    0
hbond:GLY:103    0
Name: 56, dtype: object

>  <halogenbond:GLY:103>  (57) 
halogenbond:GLY:103    0
halogenbond:GLY:103    0
Name: 56, dtype: object

>  <hydroph_interaction:HIS:104>  (57) 
hydroph_interaction:HIS:104    0
hydroph_interaction:HIS:104    0
Name: 56, dtype: object

>  <hbond:HIS:104>  (57) 
hbond:HIS:104    0
hbond:HIS:104    0
Name: 56, dtype: object

>  <saltbridge:HIS:104>  (57) 
saltbridge:HIS:104    0
saltbridge:HIS:104    0
Name: 56, dtype: object

>  <pication:HIS:104>  (57) 
pication:HIS:104    0
pication:HIS:104    0
Name: 56, dtype: object

>  <pistack:HIS:104>  (57) 
pistack:HIS:104    0
pistack:HIS:104    0
Name: 56, dtype: object

>  <halogenbond:HIS:104>  (57) 
halogenbond:HIS:104    0
halogenbond:HIS:104    0
Name: 56, dtype: object

>  <hbond:SER:105>  (57) 
hbond:SER:105    0
hbond:SER:105    0
Name: 56, dtype: object

>  <halogenbond:SER:105>  (57) 
halogenbond:SER:105    0
halogenbond:SER:105    0
Name: 56, dtype: object

>  <hbond:GLU:106>  (57) 
hbond:GLU:106    0
hbond:GLU:106    0
Name: 56, dtype: object

>  <hydroph_interaction:GLU:106>  (57) 
hydroph_interaction:GLU:106    0
hydroph_interaction:GLU:106    0
Name: 56, dtype: object

>  <saltbridge:GLU:106>  (57) 
saltbridge:GLU:106    0
saltbridge:GLU:106    0
Name: 56, dtype: object

>  <halogenbond:GLU:106>  (57) 
halogenbond:GLU:106    0
halogenbond:GLU:106    0
Name: 56, dtype: object

>  <hydroph_interaction:PRO:107>  (57) 
hydroph_interaction:PRO:107    1
hydroph_interaction:PRO:107    1
Name: 56, dtype: object

>  <hbond:PRO:107>  (57) 
hbond:PRO:107    0
hbond:PRO:107    0
Name: 56, dtype: object

>  <halogenbond:PRO:107>  (57) 
halogenbond:PRO:107    0
halogenbond:PRO:107    0
Name: 56, dtype: object

>  <hbond:GLY:108>  (57) 
hbond:GLY:108    0
hbond:GLY:108    0
Name: 56, dtype: object

>  <halogenbond:GLY:108>  (57) 
halogenbond:GLY:108    0
halogenbond:GLY:108    0
Name: 56, dtype: object

>  <hbond:ASP:109>  (57) 
hbond:ASP:109    0
hbond:ASP:109    0
Name: 56, dtype: object

>  <hydroph_interaction:ASP:109>  (57) 
hydroph_interaction:ASP:109    0
hydroph_interaction:ASP:109    0
Name: 56, dtype: object

>  <saltbridge:ASP:109>  (57) 
saltbridge:ASP:109    0
saltbridge:ASP:109    0
Name: 56, dtype: object

>  <hbond:CYS:110>  (57) 
hbond:CYS:110    0
hbond:CYS:110    0
Name: 56, dtype: object

>  <halogenbond:CYS:110>  (57) 
halogenbond:CYS:110    0
halogenbond:CYS:110    0
Name: 56, dtype: object

>  <hbond:GLY:111>  (57) 
hbond:GLY:111    0
hbond:GLY:111    0
Name: 56, dtype: object

>  <hbond:GLY:112>  (57) 
hbond:GLY:112    0
hbond:GLY:112    0
Name: 56, dtype: object

>  <hbond:ILE:113>  (57) 
hbond:ILE:113    0
hbond:ILE:113    0
Name: 56, dtype: object

>  <hydroph_interaction:LEU:114>  (57) 
hydroph_interaction:LEU:114    0
hydroph_interaction:LEU:114    0
Name: 56, dtype: object

>  <hbond:LEU:114>  (57) 
hbond:LEU:114    0
hbond:LEU:114    0
Name: 56, dtype: object

>  <hydroph_interaction:ILE:123>  (57) 
hydroph_interaction:ILE:123    0
hydroph_interaction:ILE:123    0
Name: 56, dtype: object

>  <hbond:ILE:123>  (57) 
hbond:ILE:123    0
hbond:ILE:123    0
Name: 56, dtype: object

>  <hydroph_interaction:VAL:124>  (57) 
hydroph_interaction:VAL:124    0
hydroph_interaction:VAL:124    0
Name: 56, dtype: object

>  <hbond:VAL:124>  (57) 
hbond:VAL:124    0
hbond:VAL:124    0
Name: 56, dtype: object

>  <halogenbond:VAL:124>  (57) 
halogenbond:VAL:124    0
halogenbond:VAL:124    0
Name: 56, dtype: object

>  <hbond:SER:125>  (57) 
hbond:SER:125    1
hbond:SER:125    1
Name: 56, dtype: object

>  <halogenbond:SER:125>  (57) 
halogenbond:SER:125    0
halogenbond:SER:125    0
Name: 56, dtype: object

>  <hydroph_interaction:THR:126>  (57) 
hydroph_interaction:THR:126    0
hydroph_interaction:THR:126    0
Name: 56, dtype: object

>  <hbond:THR:126>  (57) 
hbond:THR:126    0
hbond:THR:126    0
Name: 56, dtype: object

>  <halogenbond:THR:126>  (57) 
halogenbond:THR:126    0
halogenbond:THR:126    0
Name: 56, dtype: object

>  <hbond:GLY:127>  (57) 
hbond:GLY:127    0
hbond:GLY:127    0
Name: 56, dtype: object

>  <halogenbond:GLY:127>  (57) 
halogenbond:GLY:127    0
halogenbond:GLY:127    0
Name: 56, dtype: object

>  <hydroph_interaction:GLY:127>  (57) 
hydroph_interaction:GLY:127    0
hydroph_interaction:GLY:127    0
Name: 56, dtype: object

>  <hbond:GLY:128>  (57) 
hbond:GLY:128    0
hbond:GLY:128    0
Name: 56, dtype: object

>  <halogenbond:GLY:128>  (57) 
halogenbond:GLY:128    0
halogenbond:GLY:128    0
Name: 56, dtype: object

>  <hydroph_interaction:GLY:128>  (57) 
hydroph_interaction:GLY:128    0
hydroph_interaction:GLY:128    0
Name: 56, dtype: object

>  <hbond:ASN:129>  (57) 
hbond:ASN:129    0
hbond:ASN:129    0
Name: 56, dtype: object

>  <hydroph_interaction:ASN:129>  (57) 
hydroph_interaction:ASN:129    0
hydroph_interaction:ASN:129    0
Name: 56, dtype: object

>  <halogenbond:ASN:129>  (57) 
halogenbond:ASN:129    0
halogenbond:ASN:129    0
Name: 56, dtype: object

>  <hbond:GLY:130>  (57) 
hbond:GLY:130    0
hbond:GLY:130    0
Name: 56, dtype: object

>  <hydroph_interaction:LEU:131>  (57) 
hydroph_interaction:LEU:131    0
hydroph_interaction:LEU:131    0
Name: 56, dtype: object

>  <hbond:LEU:131>  (57) 
hbond:LEU:131    0
hbond:LEU:131    0
Name: 56, dtype: object

>  <halogenbond:LEU:131>  (57) 
halogenbond:LEU:131    0
halogenbond:LEU:131    0
Name: 56, dtype: object

>  <hydroph_interaction:VAL:132>  (57) 
hydroph_interaction:VAL:132    0
hydroph_interaction:VAL:132    0
Name: 56, dtype: object

>  <hbond:VAL:132>  (57) 
hbond:VAL:132    0
hbond:VAL:132    0
Name: 56, dtype: object

>  <hbond:GLY:133>  (57) 
hbond:GLY:133    0
hbond:GLY:133    0
Name: 56, dtype: object

>  <halogenbond:GLY:133>  (57) 
halogenbond:GLY:133    0
halogenbond:GLY:133    0
Name: 56, dtype: object

>  <hydroph_interaction:PHE:134>  (57) 
hydroph_interaction:PHE:134    0
hydroph_interaction:PHE:134    0
Name: 56, dtype: object

>  <hbond:PHE:134>  (57) 
hbond:PHE:134    0
hbond:PHE:134    0
Name: 56, dtype: object

>  <pistack:PHE:134>  (57) 
pistack:PHE:134    0
pistack:PHE:134    0
Name: 56, dtype: object

>  <pication:PHE:134>  (57) 
pication:PHE:134    0
pication:PHE:134    0
Name: 56, dtype: object

>  <hydroph_interaction:ALA:135>  (57) 
hydroph_interaction:ALA:135    0
hydroph_interaction:ALA:135    0
Name: 56, dtype: object

>  <hbond:ALA:135>  (57) 
hbond:ALA:135    0
hbond:ALA:135    0
Name: 56, dtype: object

$$$$
PV_002729815058
     RDKit          3D

 23 24  0  0  0  0  0  0  0  0999 V2000
   12.0590   15.2030   21.9070 C   0  0  0  0  0  0  0  0  0  0  0  0
   11.4480   14.1650   22.8160 C   0  0  0  0  0  0  0  0  0  0  0  0
   12.0270   14.1610   24.1840 C   0  0  0  0  0  0  0  0  0  0  0  0
   10.4820   13.3490   22.3760 C   0  0  0  0  0  0  0  0  0  0  0  0
    9.7940   12.2790   23.0880 C   0  0  0  0  0  0  0  0  0  0  0  0
   10.1360   11.0020   22.7980 C   0  0  0  0  0  0  0  0  0  0  0  0
    9.5030    9.8970   23.4550 C   0  0  0  0  0  0  0  0  0  0  0  0
    8.4670   10.2070   24.4510 C   0  0  0  0  0  0  0  0  0  0  0  0
    8.1640   11.5030   24.7000 C   0  0  0  0  0  0  0  0  0  0  0  0
    8.7870   12.5960   24.0570 C   0  0  0  0  0  0  0  0  0  0  0  0
    8.4300   13.8150   24.3610 N   0  0  0  0  0  0  0  0  0  0  0  0
    7.4760   13.7810   25.2900 N   0  0  0  0  0  0  0  0  0  0  0  0
    7.0380   12.2330   25.7670 S   0  0  0  0  0  0  0  0  0  0  0  0
   12.3910   16.0930   22.4520 H   0  0  0  0  0  0  0  0  0  0  0  0
   12.9300   14.7890   21.3890 H   0  0  0  0  0  0  0  0  0  0  0  0
   11.3320   15.5270   21.1550 H   0  0  0  0  0  0  0  0  0  0  0  0
   12.7530   13.3430   24.2750 H   0  0  0  0  0  0  0  0  0  0  0  0
   12.5510   15.1090   24.3770 H   0  0  0  0  0  0  0  0  0  0  0  0
   11.2760   14.0510   24.9680 H   0  0  0  0  0  0  0  0  0  0  0  0
   10.1510   13.4740   21.3490 H   0  0  0  0  0  0  0  0  0  0  0  0
   10.8910   10.7770   22.0650 H   0  0  0  0  0  0  0  0  0  0  0  0
    9.8430    8.9160   23.1610 H   0  0  0  0  0  0  0  0  0  0  0  0
    8.0060    9.3480   24.9270 H   0  0  0  0  0  0  0  0  0  0  0  0
  1  2  1  0
  2  3  1  0
  2  4  2  3
  4  5  1  0
  5  6  2  0
  6  7  1  0
  7  8  2  0
  8  9  1  0
  9 10  2  0
 10 11  1  0
 11 12  2  0
 12 13  1  0
 10  5  1  0
 13  9  1  0
  1 14  1  0
  1 15  1  0
  1 16  1  0
  3 17  1  0
  3 18  1  0
  3 19  1  0
  4 20  1  0
  6 21  1  0
  7 22  1  0
  8 23  1  0
A    1
 C1 
A    2
 C2 
A    3
 C3 
A    4
 C4 
A    5
 C5 
A    6
 C6 
A    7
 C7 
A    8
 C8 
A    9
 C9 
A   10
 C10
A   11
 N1 
A   12
 N2 
A   13
 S1 
A   14
 H1 
A   15
 H2 
A   16
 H3 
A   17
 H4 
A   18
 H5 
A   19
 H6 
A   20
 H7 
A   21
 H8 
A   22
 H9 
A   23
 H10
M  END
>  <ref_pdb>  (58) 
x0310_0A

>  <ref_mols>  (58) 
x0554_0A,x0739_0A

>  <original SMILES>  (58) 
CC(C)=Cc1cccc2snnc12

>  <rationale>  (58) 
info hydroph_interaction:P107; 

>  <intxn_cluster>  (58) 
208

>  <intxn_cluster_rank>  (58) 
261

>  <N_interactions>  (58) 
1

>  <∆∆G>  (58) 
-9.373146

>  <$/mg>  (58) 
163.0

>  <comRMSD>  (58) 
0.740994

>  <N_rotatable_bonds>  (58) 
3

>  <hbond:SER:7>  (58) 
hbond:SER:7    0
hbond:SER:7    0
Name: 57, dtype: object

>  <halogenbond:SER:7>  (58) 
halogenbond:SER:7    0
halogenbond:SER:7    0
Name: 57, dtype: object

>  <hbond:GLY:8>  (58) 
hbond:GLY:8    0
hbond:GLY:8    0
Name: 57, dtype: object

>  <hydroph_interaction:ASN:19>  (58) 
hydroph_interaction:ASN:19    0
hydroph_interaction:ASN:19    0
Name: 57, dtype: object

>  <hbond:ASN:19>  (58) 
hbond:ASN:19    0
hbond:ASN:19    0
Name: 57, dtype: object

>  <halogenbond:ASN:19>  (58) 
halogenbond:ASN:19    0
halogenbond:ASN:19    0
Name: 57, dtype: object

>  <hbond:ARG:20>  (58) 
hbond:ARG:20    0
hbond:ARG:20    0
Name: 57, dtype: object

>  <hydroph_interaction:ARG:20>  (58) 
hydroph_interaction:ARG:20    0
hydroph_interaction:ARG:20    0
Name: 57, dtype: object

>  <saltbridge:ARG:20>  (58) 
saltbridge:ARG:20    0
saltbridge:ARG:20    0
Name: 57, dtype: object

>  <halogenbond:ARG:20>  (58) 
halogenbond:ARG:20    0
halogenbond:ARG:20    0
Name: 57, dtype: object

>  <pication:ARG:20>  (58) 
pication:ARG:20    0
pication:ARG:20    0
Name: 57, dtype: object

>  <hbond:HIS:21>  (58) 
hbond:HIS:21    0
hbond:HIS:21    0
Name: 57, dtype: object

>  <hydroph_interaction:HIS:21>  (58) 
hydroph_interaction:HIS:21    0
hydroph_interaction:HIS:21    0
Name: 57, dtype: object

>  <saltbridge:HIS:21>  (58) 
saltbridge:HIS:21    0
saltbridge:HIS:21    0
Name: 57, dtype: object

>  <pistack:HIS:21>  (58) 
pistack:HIS:21    0
pistack:HIS:21    0
Name: 57, dtype: object

>  <pication:HIS:21>  (58) 
pication:HIS:21    0
pication:HIS:21    0
Name: 57, dtype: object

>  <halogenbond:HIS:21>  (58) 
halogenbond:HIS:21    0
halogenbond:HIS:21    0
Name: 57, dtype: object

>  <hydroph_interaction:LEU:22>  (58) 
hydroph_interaction:LEU:22    0
hydroph_interaction:LEU:22    0
Name: 57, dtype: object

>  <hbond:LEU:22>  (58) 
hbond:LEU:22    0
hbond:LEU:22    0
Name: 57, dtype: object

>  <hydroph_interaction:TRP:28>  (58) 
hydroph_interaction:TRP:28    0
hydroph_interaction:TRP:28    0
Name: 57, dtype: object

>  <hbond:SER:36>  (58) 
hbond:SER:36    0
hbond:SER:36    0
Name: 57, dtype: object

>  <halogenbond:SER:36>  (58) 
halogenbond:SER:36    0
halogenbond:SER:36    0
Name: 57, dtype: object

>  <hbond:ARG:38>  (58) 
hbond:ARG:38    0
hbond:ARG:38    0
Name: 57, dtype: object

>  <halogenbond:ARG:38>  (58) 
halogenbond:ARG:38    0
halogenbond:ARG:38    0
Name: 57, dtype: object

>  <hbond:ASP:39>  (58) 
hbond:ASP:39    0
hbond:ASP:39    0
Name: 57, dtype: object

>  <saltbridge:ASP:39>  (58) 
saltbridge:ASP:39    0
saltbridge:ASP:39    0
Name: 57, dtype: object

>  <hydroph_interaction:ASP:39>  (58) 
hydroph_interaction:ASP:39    0
hydroph_interaction:ASP:39    0
Name: 57, dtype: object

>  <halogenbond:ASP:39>  (58) 
halogenbond:ASP:39    0
halogenbond:ASP:39    0
Name: 57, dtype: object

>  <hydroph_interaction:LEU:40>  (58) 
hydroph_interaction:LEU:40    0
hydroph_interaction:LEU:40    0
Name: 57, dtype: object

>  <hydroph_interaction:TYR:63>  (58) 
hydroph_interaction:TYR:63    0
hydroph_interaction:TYR:63    0
Name: 57, dtype: object

>  <pistack:TYR:63>  (58) 
pistack:TYR:63    0
pistack:TYR:63    0
Name: 57, dtype: object

>  <hbond:TYR:63>  (58) 
hbond:TYR:63    0
hbond:TYR:63    0
Name: 57, dtype: object

>  <hbond:TYR:64>  (58) 
hbond:TYR:64    0
hbond:TYR:64    0
Name: 57, dtype: object

>  <halogenbond:TYR:64>  (58) 
halogenbond:TYR:64    0
halogenbond:TYR:64    0
Name: 57, dtype: object

>  <hydroph_interaction:TYR:64>  (58) 
hydroph_interaction:TYR:64    0
hydroph_interaction:TYR:64    0
Name: 57, dtype: object

>  <hbond:CYS:65>  (58) 
hbond:CYS:65    0
hbond:CYS:65    0
Name: 57, dtype: object

>  <halogenbond:CYS:65>  (58) 
halogenbond:CYS:65    0
halogenbond:CYS:65    0
Name: 57, dtype: object

>  <hbond:SER:66>  (58) 
hbond:SER:66    0
hbond:SER:66    0
Name: 57, dtype: object

>  <hbond:SER:67>  (58) 
hbond:SER:67    0
hbond:SER:67    0
Name: 57, dtype: object

>  <halogenbond:SER:67>  (58) 
halogenbond:SER:67    0
halogenbond:SER:67    0
Name: 57, dtype: object

>  <hydroph_interaction:ARG:68>  (58) 
hydroph_interaction:ARG:68    0
hydroph_interaction:ARG:68    0
Name: 57, dtype: object

>  <hbond:ARG:68>  (58) 
hbond:ARG:68    0
hbond:ARG:68    0
Name: 57, dtype: object

>  <saltbridge:ARG:68>  (58) 
saltbridge:ARG:68    0
saltbridge:ARG:68    0
Name: 57, dtype: object

>  <pication:ARG:68>  (58) 
pication:ARG:68    0
pication:ARG:68    0
Name: 57, dtype: object

>  <hydroph_interaction:TYR:72>  (58) 
hydroph_interaction:TYR:72    0
hydroph_interaction:TYR:72    0
Name: 57, dtype: object

>  <hydroph_interaction:VAL:74>  (58) 
hydroph_interaction:VAL:74    0
hydroph_interaction:VAL:74    0
Name: 57, dtype: object

>  <hydroph_interaction:PHE:76>  (58) 
hydroph_interaction:PHE:76    0
hydroph_interaction:PHE:76    0
Name: 57, dtype: object

>  <hbond:SER:77>  (58) 
hbond:SER:77    0
hbond:SER:77    0
Name: 57, dtype: object

>  <hbond:SER:80>  (58) 
hbond:SER:80    0
hbond:SER:80    0
Name: 57, dtype: object

>  <hbond:LEU:81>  (58) 
hbond:LEU:81    0
hbond:LEU:81    0
Name: 57, dtype: object

>  <halogenbond:LEU:81>  (58) 
halogenbond:LEU:81    0
halogenbond:LEU:81    0
Name: 57, dtype: object

>  <hydroph_interaction:LEU:81>  (58) 
hydroph_interaction:LEU:81    0
hydroph_interaction:LEU:81    0
Name: 57, dtype: object

>  <hydroph_interaction:ILE:82>  (58) 
hydroph_interaction:ILE:82    0
hydroph_interaction:ILE:82    0
Name: 57, dtype: object

>  <hbond:ILE:82>  (58) 
hbond:ILE:82    0
hbond:ILE:82    0
Name: 57, dtype: object

>  <hydroph_interaction:PHE:83>  (58) 
hydroph_interaction:PHE:83    0
hydroph_interaction:PHE:83    0
Name: 57, dtype: object

>  <hbond:PHE:83>  (58) 
hbond:PHE:83    0
hbond:PHE:83    0
Name: 57, dtype: object

>  <halogenbond:PHE:83>  (58) 
halogenbond:PHE:83    0
halogenbond:PHE:83    0
Name: 57, dtype: object

>  <pistack:PHE:83>  (58) 
pistack:PHE:83    0
pistack:PHE:83    0
Name: 57, dtype: object

>  <hydroph_interaction:VAL:84>  (58) 
hydroph_interaction:VAL:84    0
hydroph_interaction:VAL:84    0
Name: 57, dtype: object

>  <hbond:VAL:84>  (58) 
hbond:VAL:84    0
hbond:VAL:84    0
Name: 57, dtype: object

>  <halogenbond:VAL:84>  (58) 
halogenbond:VAL:84    0
halogenbond:VAL:84    0
Name: 57, dtype: object

>  <hydroph_interaction:GLU:85>  (58) 
hydroph_interaction:GLU:85    0
hydroph_interaction:GLU:85    0
Name: 57, dtype: object

>  <hbond:GLU:85>  (58) 
hbond:GLU:85    0
hbond:GLU:85    0
Name: 57, dtype: object

>  <saltbridge:GLU:85>  (58) 
saltbridge:GLU:85    0
saltbridge:GLU:85    0
Name: 57, dtype: object

>  <halogenbond:GLU:85>  (58) 
halogenbond:GLU:85    0
halogenbond:GLU:85    0
Name: 57, dtype: object

>  <hbond:ALA:86>  (58) 
hbond:ALA:86    0
hbond:ALA:86    0
Name: 57, dtype: object

>  <halogenbond:ALA:86>  (58) 
halogenbond:ALA:86    0
halogenbond:ALA:86    0
Name: 57, dtype: object

>  <hydroph_interaction:ALA:86>  (58) 
hydroph_interaction:ALA:86    0
hydroph_interaction:ALA:86    0
Name: 57, dtype: object

>  <hbond:SER:87>  (58) 
hbond:SER:87    0
hbond:SER:87    0
Name: 57, dtype: object

>  <halogenbond:SER:87>  (58) 
halogenbond:SER:87    0
halogenbond:SER:87    0
Name: 57, dtype: object

>  <hbond:GLU:88>  (58) 
hbond:GLU:88    0
hbond:GLU:88    0
Name: 57, dtype: object

>  <hydroph_interaction:GLU:88>  (58) 
hydroph_interaction:GLU:88    0
hydroph_interaction:GLU:88    0
Name: 57, dtype: object

>  <halogenbond:GLU:88>  (58) 
halogenbond:GLU:88    0
halogenbond:GLU:88    0
Name: 57, dtype: object

>  <saltbridge:GLU:88>  (58) 
saltbridge:GLU:88    0
saltbridge:GLU:88    0
Name: 57, dtype: object

>  <hydroph_interaction:TYR:89>  (58) 
hydroph_interaction:TYR:89    0
hydroph_interaction:TYR:89    0
Name: 57, dtype: object

>  <pistack:TYR:89>  (58) 
pistack:TYR:89    0
pistack:TYR:89    0
Name: 57, dtype: object

>  <hbond:TYR:89>  (58) 
hbond:TYR:89    0
hbond:TYR:89    0
Name: 57, dtype: object

>  <halogenbond:TYR:89>  (58) 
halogenbond:TYR:89    0
halogenbond:TYR:89    0
Name: 57, dtype: object

>  <hbond:TYR:90>  (58) 
hbond:TYR:90    0
hbond:TYR:90    0
Name: 57, dtype: object

>  <hydroph_interaction:TYR:90>  (58) 
hydroph_interaction:TYR:90    0
hydroph_interaction:TYR:90    0
Name: 57, dtype: object

>  <pistack:TYR:90>  (58) 
pistack:TYR:90    0
pistack:TYR:90    0
Name: 57, dtype: object

>  <halogenbond:TYR:90>  (58) 
halogenbond:TYR:90    0
halogenbond:TYR:90    0
Name: 57, dtype: object

>  <pication:TYR:90>  (58) 
pication:TYR:90    0
pication:TYR:90    0
Name: 57, dtype: object

>  <hydroph_interaction:PRO:91>  (58) 
hydroph_interaction:PRO:91    0
hydroph_interaction:PRO:91    0
Name: 57, dtype: object

>  <halogenbond:PRO:91>  (58) 
halogenbond:PRO:91    0
halogenbond:PRO:91    0
Name: 57, dtype: object

>  <hbond:PRO:91>  (58) 
hbond:PRO:91    0
hbond:PRO:91    0
Name: 57, dtype: object

>  <hydroph_interaction:ALA:92>  (58) 
hydroph_interaction:ALA:92    0
hydroph_interaction:ALA:92    0
Name: 57, dtype: object

>  <hbond:ARG:93>  (58) 
hbond:ARG:93    0
hbond:ARG:93    0
Name: 57, dtype: object

>  <pication:ARG:93>  (58) 
pication:ARG:93    0
pication:ARG:93    0
Name: 57, dtype: object

>  <saltbridge:ARG:93>  (58) 
saltbridge:ARG:93    0
saltbridge:ARG:93    0
Name: 57, dtype: object

>  <hydroph_interaction:ARG:93>  (58) 
hydroph_interaction:ARG:93    0
hydroph_interaction:ARG:93    0
Name: 57, dtype: object

>  <halogenbond:ARG:93>  (58) 
halogenbond:ARG:93    0
halogenbond:ARG:93    0
Name: 57, dtype: object

>  <hydroph_interaction:TYR:94>  (58) 
hydroph_interaction:TYR:94    0
hydroph_interaction:TYR:94    0
Name: 57, dtype: object

>  <hbond:TYR:94>  (58) 
hbond:TYR:94    0
hbond:TYR:94    0
Name: 57, dtype: object

>  <halogenbond:GLN:95>  (58) 
halogenbond:GLN:95    0
halogenbond:GLN:95    0
Name: 57, dtype: object

>  <hbond:GLN:95>  (58) 
hbond:GLN:95    0
hbond:GLN:95    0
Name: 57, dtype: object

>  <hydroph_interaction:GLN:95>  (58) 
hydroph_interaction:GLN:95    0
hydroph_interaction:GLN:95    0
Name: 57, dtype: object

>  <hbond:SER:96>  (58) 
hbond:SER:96    0
hbond:SER:96    0
Name: 57, dtype: object

>  <hydroph_interaction:LEU:98>  (58) 
hydroph_interaction:LEU:98    0
hydroph_interaction:LEU:98    0
Name: 57, dtype: object

>  <hbond:LEU:98>  (58) 
hbond:LEU:98    0
hbond:LEU:98    0
Name: 57, dtype: object

>  <hbond:MET:99>  (58) 
hbond:MET:99    0
hbond:MET:99    0
Name: 57, dtype: object

>  <hydroph_interaction:MET:99>  (58) 
hydroph_interaction:MET:99    0
hydroph_interaction:MET:99    0
Name: 57, dtype: object

>  <halogenbond:MET:99>  (58) 
halogenbond:MET:99    0
halogenbond:MET:99    0
Name: 57, dtype: object

>  <hydroph_interaction:LEU:100>  (58) 
hydroph_interaction:LEU:100    0
hydroph_interaction:LEU:100    0
Name: 57, dtype: object

>  <hbond:LEU:100>  (58) 
hbond:LEU:100    0
hbond:LEU:100    0
Name: 57, dtype: object

>  <hbond:ALA:101>  (58) 
hbond:ALA:101    0
hbond:ALA:101    0
Name: 57, dtype: object

>  <hydroph_interaction:ALA:101>  (58) 
hydroph_interaction:ALA:101    0
hydroph_interaction:ALA:101    0
Name: 57, dtype: object

>  <hydroph_interaction:VAL:102>  (58) 
hydroph_interaction:VAL:102    0
hydroph_interaction:VAL:102    0
Name: 57, dtype: object

>  <hbond:VAL:102>  (58) 
hbond:VAL:102    0
hbond:VAL:102    0
Name: 57, dtype: object

>  <hbond:GLY:103>  (58) 
hbond:GLY:103    0
hbond:GLY:103    0
Name: 57, dtype: object

>  <halogenbond:GLY:103>  (58) 
halogenbond:GLY:103    0
halogenbond:GLY:103    0
Name: 57, dtype: object

>  <hydroph_interaction:HIS:104>  (58) 
hydroph_interaction:HIS:104    0
hydroph_interaction:HIS:104    0
Name: 57, dtype: object

>  <hbond:HIS:104>  (58) 
hbond:HIS:104    0
hbond:HIS:104    0
Name: 57, dtype: object

>  <saltbridge:HIS:104>  (58) 
saltbridge:HIS:104    0
saltbridge:HIS:104    0
Name: 57, dtype: object

>  <pication:HIS:104>  (58) 
pication:HIS:104    0
pication:HIS:104    0
Name: 57, dtype: object

>  <pistack:HIS:104>  (58) 
pistack:HIS:104    0
pistack:HIS:104    0
Name: 57, dtype: object

>  <halogenbond:HIS:104>  (58) 
halogenbond:HIS:104    0
halogenbond:HIS:104    0
Name: 57, dtype: object

>  <hbond:SER:105>  (58) 
hbond:SER:105    0
hbond:SER:105    0
Name: 57, dtype: object

>  <halogenbond:SER:105>  (58) 
halogenbond:SER:105    0
halogenbond:SER:105    0
Name: 57, dtype: object

>  <hbond:GLU:106>  (58) 
hbond:GLU:106    0
hbond:GLU:106    0
Name: 57, dtype: object

>  <hydroph_interaction:GLU:106>  (58) 
hydroph_interaction:GLU:106    0
hydroph_interaction:GLU:106    0
Name: 57, dtype: object

>  <saltbridge:GLU:106>  (58) 
saltbridge:GLU:106    0
saltbridge:GLU:106    0
Name: 57, dtype: object

>  <halogenbond:GLU:106>  (58) 
halogenbond:GLU:106    0
halogenbond:GLU:106    0
Name: 57, dtype: object

>  <hydroph_interaction:PRO:107>  (58) 
hydroph_interaction:PRO:107    1
hydroph_interaction:PRO:107    1
Name: 57, dtype: object

>  <hbond:PRO:107>  (58) 
hbond:PRO:107    0
hbond:PRO:107    0
Name: 57, dtype: object

>  <halogenbond:PRO:107>  (58) 
halogenbond:PRO:107    0
halogenbond:PRO:107    0
Name: 57, dtype: object

>  <hbond:GLY:108>  (58) 
hbond:GLY:108    0
hbond:GLY:108    0
Name: 57, dtype: object

>  <halogenbond:GLY:108>  (58) 
halogenbond:GLY:108    0
halogenbond:GLY:108    0
Name: 57, dtype: object

>  <hbond:ASP:109>  (58) 
hbond:ASP:109    0
hbond:ASP:109    0
Name: 57, dtype: object

>  <hydroph_interaction:ASP:109>  (58) 
hydroph_interaction:ASP:109    0
hydroph_interaction:ASP:109    0
Name: 57, dtype: object

>  <saltbridge:ASP:109>  (58) 
saltbridge:ASP:109    0
saltbridge:ASP:109    0
Name: 57, dtype: object

>  <hbond:CYS:110>  (58) 
hbond:CYS:110    0
hbond:CYS:110    0
Name: 57, dtype: object

>  <halogenbond:CYS:110>  (58) 
halogenbond:CYS:110    0
halogenbond:CYS:110    0
Name: 57, dtype: object

>  <hbond:GLY:111>  (58) 
hbond:GLY:111    0
hbond:GLY:111    0
Name: 57, dtype: object

>  <hbond:GLY:112>  (58) 
hbond:GLY:112    0
hbond:GLY:112    0
Name: 57, dtype: object

>  <hbond:ILE:113>  (58) 
hbond:ILE:113    0
hbond:ILE:113    0
Name: 57, dtype: object

>  <hydroph_interaction:LEU:114>  (58) 
hydroph_interaction:LEU:114    0
hydroph_interaction:LEU:114    0
Name: 57, dtype: object

>  <hbond:LEU:114>  (58) 
hbond:LEU:114    0
hbond:LEU:114    0
Name: 57, dtype: object

>  <hydroph_interaction:ILE:123>  (58) 
hydroph_interaction:ILE:123    0
hydroph_interaction:ILE:123    0
Name: 57, dtype: object

>  <hbond:ILE:123>  (58) 
hbond:ILE:123    0
hbond:ILE:123    0
Name: 57, dtype: object

>  <hydroph_interaction:VAL:124>  (58) 
hydroph_interaction:VAL:124    0
hydroph_interaction:VAL:124    0
Name: 57, dtype: object

>  <hbond:VAL:124>  (58) 
hbond:VAL:124    0
hbond:VAL:124    0
Name: 57, dtype: object

>  <halogenbond:VAL:124>  (58) 
halogenbond:VAL:124    0
halogenbond:VAL:124    0
Name: 57, dtype: object

>  <hbond:SER:125>  (58) 
hbond:SER:125    0
hbond:SER:125    0
Name: 57, dtype: object

>  <halogenbond:SER:125>  (58) 
halogenbond:SER:125    0
halogenbond:SER:125    0
Name: 57, dtype: object

>  <hydroph_interaction:THR:126>  (58) 
hydroph_interaction:THR:126    0
hydroph_interaction:THR:126    0
Name: 57, dtype: object

>  <hbond:THR:126>  (58) 
hbond:THR:126    0
hbond:THR:126    0
Name: 57, dtype: object

>  <halogenbond:THR:126>  (58) 
halogenbond:THR:126    0
halogenbond:THR:126    0
Name: 57, dtype: object

>  <hbond:GLY:127>  (58) 
hbond:GLY:127    0
hbond:GLY:127    0
Name: 57, dtype: object

>  <halogenbond:GLY:127>  (58) 
halogenbond:GLY:127    0
halogenbond:GLY:127    0
Name: 57, dtype: object

>  <hydroph_interaction:GLY:127>  (58) 
hydroph_interaction:GLY:127    0
hydroph_interaction:GLY:127    0
Name: 57, dtype: object

>  <hbond:GLY:128>  (58) 
hbond:GLY:128    0
hbond:GLY:128    0
Name: 57, dtype: object

>  <halogenbond:GLY:128>  (58) 
halogenbond:GLY:128    0
halogenbond:GLY:128    0
Name: 57, dtype: object

>  <hydroph_interaction:GLY:128>  (58) 
hydroph_interaction:GLY:128    0
hydroph_interaction:GLY:128    0
Name: 57, dtype: object

>  <hbond:ASN:129>  (58) 
hbond:ASN:129    0
hbond:ASN:129    0
Name: 57, dtype: object

>  <hydroph_interaction:ASN:129>  (58) 
hydroph_interaction:ASN:129    0
hydroph_interaction:ASN:129    0
Name: 57, dtype: object

>  <halogenbond:ASN:129>  (58) 
halogenbond:ASN:129    0
halogenbond:ASN:129    0
Name: 57, dtype: object

>  <hbond:GLY:130>  (58) 
hbond:GLY:130    0
hbond:GLY:130    0
Name: 57, dtype: object

>  <hydroph_interaction:LEU:131>  (58) 
hydroph_interaction:LEU:131    0
hydroph_interaction:LEU:131    0
Name: 57, dtype: object

>  <hbond:LEU:131>  (58) 
hbond:LEU:131    0
hbond:LEU:131    0
Name: 57, dtype: object

>  <halogenbond:LEU:131>  (58) 
halogenbond:LEU:131    0
halogenbond:LEU:131    0
Name: 57, dtype: object

>  <hydroph_interaction:VAL:132>  (58) 
hydroph_interaction:VAL:132    0
hydroph_interaction:VAL:132    0
Name: 57, dtype: object

>  <hbond:VAL:132>  (58) 
hbond:VAL:132    0
hbond:VAL:132    0
Name: 57, dtype: object

>  <hbond:GLY:133>  (58) 
hbond:GLY:133    0
hbond:GLY:133    0
Name: 57, dtype: object

>  <halogenbond:GLY:133>  (58) 
halogenbond:GLY:133    0
halogenbond:GLY:133    0
Name: 57, dtype: object

>  <hydroph_interaction:PHE:134>  (58) 
hydroph_interaction:PHE:134    0
hydroph_interaction:PHE:134    0
Name: 57, dtype: object

>  <hbond:PHE:134>  (58) 
hbond:PHE:134    0
hbond:PHE:134    0
Name: 57, dtype: object

>  <pistack:PHE:134>  (58) 
pistack:PHE:134    0
pistack:PHE:134    0
Name: 57, dtype: object

>  <pication:PHE:134>  (58) 
pication:PHE:134    0
pication:PHE:134    0
Name: 57, dtype: object

>  <hydroph_interaction:ALA:135>  (58) 
hydroph_interaction:ALA:135    0
hydroph_interaction:ALA:135    0
Name: 57, dtype: object

>  <hbond:ALA:135>  (58) 
hbond:ALA:135    0
hbond:ALA:135    0
Name: 57, dtype: object

$$$$
PV_002932104261
     RDKit          3D

 29 29  0  0  0  0  0  0  0  0999 V2000
   12.1580   15.4120   21.9220 C   0  0  0  0  0  0  0  0  0  0  0  0
   11.5310   14.3400   22.7680 C   0  0  0  0  0  0  0  0  0  0  0  0
   12.0300   14.0240   24.0950 C   0  0  0  0  0  0  0  0  0  0  0  0
   10.4850   13.6130   22.3490 C   0  0  0  0  0  0  0  0  0  0  0  0
    9.7840   12.4960   23.0650 C   0  0  0  0  0  0  0  0  0  0  0  0
   10.2080   11.2410   22.7320 C   0  0  0  0  0  0  0  0  0  0  0  0
    9.6170   10.0560   23.3410 C   0  0  0  0  0  0  0  0  0  0  0  0
   10.0560    8.8270   22.9860 C   0  0  0  0  0  0  0  0  0  0  0  0
    8.6070   10.2440   24.2810 C   0  0  0  0  0  0  0  0  0  0  0  0
    8.1810   11.5360   24.6160 C   0  0  0  0  0  0  0  0  0  0  0  0
    7.0710   11.5930   25.6520 C   0  0  0  0  0  0  0  0  0  0  0  0
    8.7640   12.6560   24.0120 C   0  0  0  0  0  0  0  0  0  0  0  0
    8.3480   13.9210   24.3310 O   0  0  0  0  0  0  0  0  0  0  0  0
   11.5190   15.6900   21.0800 H   0  0  0  0  0  0  0  0  0  0  0  0
   13.1080   15.0460   21.5190 H   0  0  0  0  0  0  0  0  0  0  0  0
   12.3420   16.2980   22.5390 H   0  0  0  0  0  0  0  0  0  0  0  0
   12.8140   13.2920   24.2300 H   0  0  0  0  0  0  0  0  0  0  0  0
   12.4040   14.9380   24.5790 H   0  0  0  0  0  0  0  0  0  0  0  0
   11.1840   13.6880   24.6960 H   0  0  0  0  0  0  0  0  0  0  0  0
   10.0310   13.7780   21.3640 H   0  0  0  0  0  0  0  0  0  0  0  0
   10.9840   11.1520   22.0100 H   0  0  0  0  0  0  0  0  0  0  0  0
    9.8760    8.1850   23.8240 H   0  0  0  0  0  0  0  0  0  0  0  0
   11.1450    8.8590   22.8860 H   0  0  0  0  0  0  0  0  0  0  0  0
    9.6780    8.3180   22.1090 H   0  0  0  0  0  0  0  0  0  0  0  0
    8.1530    9.3860   24.7480 H   0  0  0  0  0  0  0  0  0  0  0  0
    7.3770   12.1710   26.5280 H   0  0  0  0  0  0  0  0  0  0  0  0
    6.1720   12.0700   25.2540 H   0  0  0  0  0  0  0  0  0  0  0  0
    6.8000   10.5790   25.9600 H   0  0  0  0  0  0  0  0  0  0  0  0
    7.4670   13.8720   24.7320 H   0  0  0  0  0  0  0  0  0  0  0  0
  1  2  1  0
  2  3  1  0
  2  4  2  3
  4  5  1  0
  5  6  2  0
  6  7  1  0
  7  8  1  0
  7  9  2  0
  9 10  1  0
 10 11  1  0
 10 12  2  0
 12 13  1  0
 12  5  1  0
  1 14  1  0
  1 15  1  0
  1 16  1  0
  3 17  1  0
  3 18  1  0
  3 19  1  0
  4 20  1  0
  6 21  1  0
  8 22  1  0
  8 23  1  0
  8 24  1  0
  9 25  1  0
 11 26  1  0
 11 27  1  0
 11 28  1  0
 13 29  1  0
A    1
 C1 
A    2
 C2 
A    3
 C3 
A    4
 C4 
A    5
 C5 
A    6
 C6 
A    7
 C7 
A    8
 C8 
A    9
 C9 
A   10
 C10
A   11
 C11
A   12
 C12
A   13
 O1 
A   14
 H1 
A   15
 H2 
A   16
 H3 
A   17
 H4 
A   18
 H5 
A   19
 H6 
A   20
 H7 
A   21
 H8 
A   22
 H9 
A   23
 H10
A   24
 H11
A   25
 H12
A   26
 H13
A   27
 H14
A   28
 H15
A   29
 H16
M  END
>  <ref_pdb>  (59) 
x0310_0A

>  <ref_mols>  (59) 
x0554_0A,x0739_0A

>  <original SMILES>  (59) 
CC(C)=Cc1cc(C)cc(C)c1O

>  <rationale>  (59) 
info hydroph_interaction:P107+V124; 

>  <intxn_cluster>  (59) 
103

>  <intxn_cluster_rank>  (59) 
264

>  <N_interactions>  (59) 
2

>  <∆∆G>  (59) 
-12.561478

>  <$/mg>  (59) 
163.0

>  <comRMSD>  (59) 
0.86531

>  <N_rotatable_bonds>  (59) 
6

>  <hbond:SER:7>  (59) 
hbond:SER:7    0
hbond:SER:7    0
Name: 58, dtype: object

>  <halogenbond:SER:7>  (59) 
halogenbond:SER:7    0
halogenbond:SER:7    0
Name: 58, dtype: object

>  <hbond:GLY:8>  (59) 
hbond:GLY:8    0
hbond:GLY:8    0
Name: 58, dtype: object

>  <hydroph_interaction:ASN:19>  (59) 
hydroph_interaction:ASN:19    0
hydroph_interaction:ASN:19    0
Name: 58, dtype: object

>  <hbond:ASN:19>  (59) 
hbond:ASN:19    0
hbond:ASN:19    0
Name: 58, dtype: object

>  <halogenbond:ASN:19>  (59) 
halogenbond:ASN:19    0
halogenbond:ASN:19    0
Name: 58, dtype: object

>  <hbond:ARG:20>  (59) 
hbond:ARG:20    0
hbond:ARG:20    0
Name: 58, dtype: object

>  <hydroph_interaction:ARG:20>  (59) 
hydroph_interaction:ARG:20    0
hydroph_interaction:ARG:20    0
Name: 58, dtype: object

>  <saltbridge:ARG:20>  (59) 
saltbridge:ARG:20    0
saltbridge:ARG:20    0
Name: 58, dtype: object

>  <halogenbond:ARG:20>  (59) 
halogenbond:ARG:20    0
halogenbond:ARG:20    0
Name: 58, dtype: object

>  <pication:ARG:20>  (59) 
pication:ARG:20    0
pication:ARG:20    0
Name: 58, dtype: object

>  <hbond:HIS:21>  (59) 
hbond:HIS:21    0
hbond:HIS:21    0
Name: 58, dtype: object

>  <hydroph_interaction:HIS:21>  (59) 
hydroph_interaction:HIS:21    0
hydroph_interaction:HIS:21    0
Name: 58, dtype: object

>  <saltbridge:HIS:21>  (59) 
saltbridge:HIS:21    0
saltbridge:HIS:21    0
Name: 58, dtype: object

>  <pistack:HIS:21>  (59) 
pistack:HIS:21    0
pistack:HIS:21    0
Name: 58, dtype: object

>  <pication:HIS:21>  (59) 
pication:HIS:21    0
pication:HIS:21    0
Name: 58, dtype: object

>  <halogenbond:HIS:21>  (59) 
halogenbond:HIS:21    0
halogenbond:HIS:21    0
Name: 58, dtype: object

>  <hydroph_interaction:LEU:22>  (59) 
hydroph_interaction:LEU:22    0
hydroph_interaction:LEU:22    0
Name: 58, dtype: object

>  <hbond:LEU:22>  (59) 
hbond:LEU:22    0
hbond:LEU:22    0
Name: 58, dtype: object

>  <hydroph_interaction:TRP:28>  (59) 
hydroph_interaction:TRP:28    0
hydroph_interaction:TRP:28    0
Name: 58, dtype: object

>  <hbond:SER:36>  (59) 
hbond:SER:36    0
hbond:SER:36    0
Name: 58, dtype: object

>  <halogenbond:SER:36>  (59) 
halogenbond:SER:36    0
halogenbond:SER:36    0
Name: 58, dtype: object

>  <hbond:ARG:38>  (59) 
hbond:ARG:38    0
hbond:ARG:38    0
Name: 58, dtype: object

>  <halogenbond:ARG:38>  (59) 
halogenbond:ARG:38    0
halogenbond:ARG:38    0
Name: 58, dtype: object

>  <hbond:ASP:39>  (59) 
hbond:ASP:39    0
hbond:ASP:39    0
Name: 58, dtype: object

>  <saltbridge:ASP:39>  (59) 
saltbridge:ASP:39    0
saltbridge:ASP:39    0
Name: 58, dtype: object

>  <hydroph_interaction:ASP:39>  (59) 
hydroph_interaction:ASP:39    0
hydroph_interaction:ASP:39    0
Name: 58, dtype: object

>  <halogenbond:ASP:39>  (59) 
halogenbond:ASP:39    0
halogenbond:ASP:39    0
Name: 58, dtype: object

>  <hydroph_interaction:LEU:40>  (59) 
hydroph_interaction:LEU:40    0
hydroph_interaction:LEU:40    0
Name: 58, dtype: object

>  <hydroph_interaction:TYR:63>  (59) 
hydroph_interaction:TYR:63    0
hydroph_interaction:TYR:63    0
Name: 58, dtype: object

>  <pistack:TYR:63>  (59) 
pistack:TYR:63    0
pistack:TYR:63    0
Name: 58, dtype: object

>  <hbond:TYR:63>  (59) 
hbond:TYR:63    0
hbond:TYR:63    0
Name: 58, dtype: object

>  <hbond:TYR:64>  (59) 
hbond:TYR:64    0
hbond:TYR:64    0
Name: 58, dtype: object

>  <halogenbond:TYR:64>  (59) 
halogenbond:TYR:64    0
halogenbond:TYR:64    0
Name: 58, dtype: object

>  <hydroph_interaction:TYR:64>  (59) 
hydroph_interaction:TYR:64    0
hydroph_interaction:TYR:64    0
Name: 58, dtype: object

>  <hbond:CYS:65>  (59) 
hbond:CYS:65    0
hbond:CYS:65    0
Name: 58, dtype: object

>  <halogenbond:CYS:65>  (59) 
halogenbond:CYS:65    0
halogenbond:CYS:65    0
Name: 58, dtype: object

>  <hbond:SER:66>  (59) 
hbond:SER:66    0
hbond:SER:66    0
Name: 58, dtype: object

>  <hbond:SER:67>  (59) 
hbond:SER:67    0
hbond:SER:67    0
Name: 58, dtype: object

>  <halogenbond:SER:67>  (59) 
halogenbond:SER:67    0
halogenbond:SER:67    0
Name: 58, dtype: object

>  <hydroph_interaction:ARG:68>  (59) 
hydroph_interaction:ARG:68    0
hydroph_interaction:ARG:68    0
Name: 58, dtype: object

>  <hbond:ARG:68>  (59) 
hbond:ARG:68    0
hbond:ARG:68    0
Name: 58, dtype: object

>  <saltbridge:ARG:68>  (59) 
saltbridge:ARG:68    0
saltbridge:ARG:68    0
Name: 58, dtype: object

>  <pication:ARG:68>  (59) 
pication:ARG:68    0
pication:ARG:68    0
Name: 58, dtype: object

>  <hydroph_interaction:TYR:72>  (59) 
hydroph_interaction:TYR:72    0
hydroph_interaction:TYR:72    0
Name: 58, dtype: object

>  <hydroph_interaction:VAL:74>  (59) 
hydroph_interaction:VAL:74    0
hydroph_interaction:VAL:74    0
Name: 58, dtype: object

>  <hydroph_interaction:PHE:76>  (59) 
hydroph_interaction:PHE:76    0
hydroph_interaction:PHE:76    0
Name: 58, dtype: object

>  <hbond:SER:77>  (59) 
hbond:SER:77    0
hbond:SER:77    0
Name: 58, dtype: object

>  <hbond:SER:80>  (59) 
hbond:SER:80    0
hbond:SER:80    0
Name: 58, dtype: object

>  <hbond:LEU:81>  (59) 
hbond:LEU:81    0
hbond:LEU:81    0
Name: 58, dtype: object

>  <halogenbond:LEU:81>  (59) 
halogenbond:LEU:81    0
halogenbond:LEU:81    0
Name: 58, dtype: object

>  <hydroph_interaction:LEU:81>  (59) 
hydroph_interaction:LEU:81    0
hydroph_interaction:LEU:81    0
Name: 58, dtype: object

>  <hydroph_interaction:ILE:82>  (59) 
hydroph_interaction:ILE:82    0
hydroph_interaction:ILE:82    0
Name: 58, dtype: object

>  <hbond:ILE:82>  (59) 
hbond:ILE:82    0
hbond:ILE:82    0
Name: 58, dtype: object

>  <hydroph_interaction:PHE:83>  (59) 
hydroph_interaction:PHE:83    0
hydroph_interaction:PHE:83    0
Name: 58, dtype: object

>  <hbond:PHE:83>  (59) 
hbond:PHE:83    0
hbond:PHE:83    0
Name: 58, dtype: object

>  <halogenbond:PHE:83>  (59) 
halogenbond:PHE:83    0
halogenbond:PHE:83    0
Name: 58, dtype: object

>  <pistack:PHE:83>  (59) 
pistack:PHE:83    0
pistack:PHE:83    0
Name: 58, dtype: object

>  <hydroph_interaction:VAL:84>  (59) 
hydroph_interaction:VAL:84    0
hydroph_interaction:VAL:84    0
Name: 58, dtype: object

>  <hbond:VAL:84>  (59) 
hbond:VAL:84    0
hbond:VAL:84    0
Name: 58, dtype: object

>  <halogenbond:VAL:84>  (59) 
halogenbond:VAL:84    0
halogenbond:VAL:84    0
Name: 58, dtype: object

>  <hydroph_interaction:GLU:85>  (59) 
hydroph_interaction:GLU:85    0
hydroph_interaction:GLU:85    0
Name: 58, dtype: object

>  <hbond:GLU:85>  (59) 
hbond:GLU:85    0
hbond:GLU:85    0
Name: 58, dtype: object

>  <saltbridge:GLU:85>  (59) 
saltbridge:GLU:85    0
saltbridge:GLU:85    0
Name: 58, dtype: object

>  <halogenbond:GLU:85>  (59) 
halogenbond:GLU:85    0
halogenbond:GLU:85    0
Name: 58, dtype: object

>  <hbond:ALA:86>  (59) 
hbond:ALA:86    0
hbond:ALA:86    0
Name: 58, dtype: object

>  <halogenbond:ALA:86>  (59) 
halogenbond:ALA:86    0
halogenbond:ALA:86    0
Name: 58, dtype: object

>  <hydroph_interaction:ALA:86>  (59) 
hydroph_interaction:ALA:86    0
hydroph_interaction:ALA:86    0
Name: 58, dtype: object

>  <hbond:SER:87>  (59) 
hbond:SER:87    0
hbond:SER:87    0
Name: 58, dtype: object

>  <halogenbond:SER:87>  (59) 
halogenbond:SER:87    0
halogenbond:SER:87    0
Name: 58, dtype: object

>  <hbond:GLU:88>  (59) 
hbond:GLU:88    0
hbond:GLU:88    0
Name: 58, dtype: object

>  <hydroph_interaction:GLU:88>  (59) 
hydroph_interaction:GLU:88    0
hydroph_interaction:GLU:88    0
Name: 58, dtype: object

>  <halogenbond:GLU:88>  (59) 
halogenbond:GLU:88    0
halogenbond:GLU:88    0
Name: 58, dtype: object

>  <saltbridge:GLU:88>  (59) 
saltbridge:GLU:88    0
saltbridge:GLU:88    0
Name: 58, dtype: object

>  <hydroph_interaction:TYR:89>  (59) 
hydroph_interaction:TYR:89    0
hydroph_interaction:TYR:89    0
Name: 58, dtype: object

>  <pistack:TYR:89>  (59) 
pistack:TYR:89    0
pistack:TYR:89    0
Name: 58, dtype: object

>  <hbond:TYR:89>  (59) 
hbond:TYR:89    0
hbond:TYR:89    0
Name: 58, dtype: object

>  <halogenbond:TYR:89>  (59) 
halogenbond:TYR:89    0
halogenbond:TYR:89    0
Name: 58, dtype: object

>  <hbond:TYR:90>  (59) 
hbond:TYR:90    0
hbond:TYR:90    0
Name: 58, dtype: object

>  <hydroph_interaction:TYR:90>  (59) 
hydroph_interaction:TYR:90    0
hydroph_interaction:TYR:90    0
Name: 58, dtype: object

>  <pistack:TYR:90>  (59) 
pistack:TYR:90    0
pistack:TYR:90    0
Name: 58, dtype: object

>  <halogenbond:TYR:90>  (59) 
halogenbond:TYR:90    0
halogenbond:TYR:90    0
Name: 58, dtype: object

>  <pication:TYR:90>  (59) 
pication:TYR:90    0
pication:TYR:90    0
Name: 58, dtype: object

>  <hydroph_interaction:PRO:91>  (59) 
hydroph_interaction:PRO:91    0
hydroph_interaction:PRO:91    0
Name: 58, dtype: object

>  <halogenbond:PRO:91>  (59) 
halogenbond:PRO:91    0
halogenbond:PRO:91    0
Name: 58, dtype: object

>  <hbond:PRO:91>  (59) 
hbond:PRO:91    0
hbond:PRO:91    0
Name: 58, dtype: object

>  <hydroph_interaction:ALA:92>  (59) 
hydroph_interaction:ALA:92    0
hydroph_interaction:ALA:92    0
Name: 58, dtype: object

>  <hbond:ARG:93>  (59) 
hbond:ARG:93    0
hbond:ARG:93    0
Name: 58, dtype: object

>  <pication:ARG:93>  (59) 
pication:ARG:93    0
pication:ARG:93    0
Name: 58, dtype: object

>  <saltbridge:ARG:93>  (59) 
saltbridge:ARG:93    0
saltbridge:ARG:93    0
Name: 58, dtype: object

>  <hydroph_interaction:ARG:93>  (59) 
hydroph_interaction:ARG:93    0
hydroph_interaction:ARG:93    0
Name: 58, dtype: object

>  <halogenbond:ARG:93>  (59) 
halogenbond:ARG:93    0
halogenbond:ARG:93    0
Name: 58, dtype: object

>  <hydroph_interaction:TYR:94>  (59) 
hydroph_interaction:TYR:94    0
hydroph_interaction:TYR:94    0
Name: 58, dtype: object

>  <hbond:TYR:94>  (59) 
hbond:TYR:94    0
hbond:TYR:94    0
Name: 58, dtype: object

>  <halogenbond:GLN:95>  (59) 
halogenbond:GLN:95    0
halogenbond:GLN:95    0
Name: 58, dtype: object

>  <hbond:GLN:95>  (59) 
hbond:GLN:95    0
hbond:GLN:95    0
Name: 58, dtype: object

>  <hydroph_interaction:GLN:95>  (59) 
hydroph_interaction:GLN:95    0
hydroph_interaction:GLN:95    0
Name: 58, dtype: object

>  <hbond:SER:96>  (59) 
hbond:SER:96    0
hbond:SER:96    0
Name: 58, dtype: object

>  <hydroph_interaction:LEU:98>  (59) 
hydroph_interaction:LEU:98    0
hydroph_interaction:LEU:98    0
Name: 58, dtype: object

>  <hbond:LEU:98>  (59) 
hbond:LEU:98    0
hbond:LEU:98    0
Name: 58, dtype: object

>  <hbond:MET:99>  (59) 
hbond:MET:99    0
hbond:MET:99    0
Name: 58, dtype: object

>  <hydroph_interaction:MET:99>  (59) 
hydroph_interaction:MET:99    0
hydroph_interaction:MET:99    0
Name: 58, dtype: object

>  <halogenbond:MET:99>  (59) 
halogenbond:MET:99    0
halogenbond:MET:99    0
Name: 58, dtype: object

>  <hydroph_interaction:LEU:100>  (59) 
hydroph_interaction:LEU:100    0
hydroph_interaction:LEU:100    0
Name: 58, dtype: object

>  <hbond:LEU:100>  (59) 
hbond:LEU:100    0
hbond:LEU:100    0
Name: 58, dtype: object

>  <hbond:ALA:101>  (59) 
hbond:ALA:101    0
hbond:ALA:101    0
Name: 58, dtype: object

>  <hydroph_interaction:ALA:101>  (59) 
hydroph_interaction:ALA:101    0
hydroph_interaction:ALA:101    0
Name: 58, dtype: object

>  <hydroph_interaction:VAL:102>  (59) 
hydroph_interaction:VAL:102    0
hydroph_interaction:VAL:102    0
Name: 58, dtype: object

>  <hbond:VAL:102>  (59) 
hbond:VAL:102    0
hbond:VAL:102    0
Name: 58, dtype: object

>  <hbond:GLY:103>  (59) 
hbond:GLY:103    0
hbond:GLY:103    0
Name: 58, dtype: object

>  <halogenbond:GLY:103>  (59) 
halogenbond:GLY:103    0
halogenbond:GLY:103    0
Name: 58, dtype: object

>  <hydroph_interaction:HIS:104>  (59) 
hydroph_interaction:HIS:104    0
hydroph_interaction:HIS:104    0
Name: 58, dtype: object

>  <hbond:HIS:104>  (59) 
hbond:HIS:104    0
hbond:HIS:104    0
Name: 58, dtype: object

>  <saltbridge:HIS:104>  (59) 
saltbridge:HIS:104    0
saltbridge:HIS:104    0
Name: 58, dtype: object

>  <pication:HIS:104>  (59) 
pication:HIS:104    0
pication:HIS:104    0
Name: 58, dtype: object

>  <pistack:HIS:104>  (59) 
pistack:HIS:104    0
pistack:HIS:104    0
Name: 58, dtype: object

>  <halogenbond:HIS:104>  (59) 
halogenbond:HIS:104    0
halogenbond:HIS:104    0
Name: 58, dtype: object

>  <hbond:SER:105>  (59) 
hbond:SER:105    0
hbond:SER:105    0
Name: 58, dtype: object

>  <halogenbond:SER:105>  (59) 
halogenbond:SER:105    0
halogenbond:SER:105    0
Name: 58, dtype: object

>  <hbond:GLU:106>  (59) 
hbond:GLU:106    0
hbond:GLU:106    0
Name: 58, dtype: object

>  <hydroph_interaction:GLU:106>  (59) 
hydroph_interaction:GLU:106    0
hydroph_interaction:GLU:106    0
Name: 58, dtype: object

>  <saltbridge:GLU:106>  (59) 
saltbridge:GLU:106    0
saltbridge:GLU:106    0
Name: 58, dtype: object

>  <halogenbond:GLU:106>  (59) 
halogenbond:GLU:106    0
halogenbond:GLU:106    0
Name: 58, dtype: object

>  <hydroph_interaction:PRO:107>  (59) 
hydroph_interaction:PRO:107    1
hydroph_interaction:PRO:107    1
Name: 58, dtype: object

>  <hbond:PRO:107>  (59) 
hbond:PRO:107    0
hbond:PRO:107    0
Name: 58, dtype: object

>  <halogenbond:PRO:107>  (59) 
halogenbond:PRO:107    0
halogenbond:PRO:107    0
Name: 58, dtype: object

>  <hbond:GLY:108>  (59) 
hbond:GLY:108    0
hbond:GLY:108    0
Name: 58, dtype: object

>  <halogenbond:GLY:108>  (59) 
halogenbond:GLY:108    0
halogenbond:GLY:108    0
Name: 58, dtype: object

>  <hbond:ASP:109>  (59) 
hbond:ASP:109    0
hbond:ASP:109    0
Name: 58, dtype: object

>  <hydroph_interaction:ASP:109>  (59) 
hydroph_interaction:ASP:109    0
hydroph_interaction:ASP:109    0
Name: 58, dtype: object

>  <saltbridge:ASP:109>  (59) 
saltbridge:ASP:109    0
saltbridge:ASP:109    0
Name: 58, dtype: object

>  <hbond:CYS:110>  (59) 
hbond:CYS:110    0
hbond:CYS:110    0
Name: 58, dtype: object

>  <halogenbond:CYS:110>  (59) 
halogenbond:CYS:110    0
halogenbond:CYS:110    0
Name: 58, dtype: object

>  <hbond:GLY:111>  (59) 
hbond:GLY:111    0
hbond:GLY:111    0
Name: 58, dtype: object

>  <hbond:GLY:112>  (59) 
hbond:GLY:112    0
hbond:GLY:112    0
Name: 58, dtype: object

>  <hbond:ILE:113>  (59) 
hbond:ILE:113    0
hbond:ILE:113    0
Name: 58, dtype: object

>  <hydroph_interaction:LEU:114>  (59) 
hydroph_interaction:LEU:114    0
hydroph_interaction:LEU:114    0
Name: 58, dtype: object

>  <hbond:LEU:114>  (59) 
hbond:LEU:114    0
hbond:LEU:114    0
Name: 58, dtype: object

>  <hydroph_interaction:ILE:123>  (59) 
hydroph_interaction:ILE:123    0
hydroph_interaction:ILE:123    0
Name: 58, dtype: object

>  <hbond:ILE:123>  (59) 
hbond:ILE:123    0
hbond:ILE:123    0
Name: 58, dtype: object

>  <hydroph_interaction:VAL:124>  (59) 
hydroph_interaction:VAL:124    1
hydroph_interaction:VAL:124    1
Name: 58, dtype: object

>  <hbond:VAL:124>  (59) 
hbond:VAL:124    0
hbond:VAL:124    0
Name: 58, dtype: object

>  <halogenbond:VAL:124>  (59) 
halogenbond:VAL:124    0
halogenbond:VAL:124    0
Name: 58, dtype: object

>  <hbond:SER:125>  (59) 
hbond:SER:125    0
hbond:SER:125    0
Name: 58, dtype: object

>  <halogenbond:SER:125>  (59) 
halogenbond:SER:125    0
halogenbond:SER:125    0
Name: 58, dtype: object

>  <hydroph_interaction:THR:126>  (59) 
hydroph_interaction:THR:126    0
hydroph_interaction:THR:126    0
Name: 58, dtype: object

>  <hbond:THR:126>  (59) 
hbond:THR:126    0
hbond:THR:126    0
Name: 58, dtype: object

>  <halogenbond:THR:126>  (59) 
halogenbond:THR:126    0
halogenbond:THR:126    0
Name: 58, dtype: object

>  <hbond:GLY:127>  (59) 
hbond:GLY:127    0
hbond:GLY:127    0
Name: 58, dtype: object

>  <halogenbond:GLY:127>  (59) 
halogenbond:GLY:127    0
halogenbond:GLY:127    0
Name: 58, dtype: object

>  <hydroph_interaction:GLY:127>  (59) 
hydroph_interaction:GLY:127    0
hydroph_interaction:GLY:127    0
Name: 58, dtype: object

>  <hbond:GLY:128>  (59) 
hbond:GLY:128    0
hbond:GLY:128    0
Name: 58, dtype: object

>  <halogenbond:GLY:128>  (59) 
halogenbond:GLY:128    0
halogenbond:GLY:128    0
Name: 58, dtype: object

>  <hydroph_interaction:GLY:128>  (59) 
hydroph_interaction:GLY:128    0
hydroph_interaction:GLY:128    0
Name: 58, dtype: object

>  <hbond:ASN:129>  (59) 
hbond:ASN:129    0
hbond:ASN:129    0
Name: 58, dtype: object

>  <hydroph_interaction:ASN:129>  (59) 
hydroph_interaction:ASN:129    0
hydroph_interaction:ASN:129    0
Name: 58, dtype: object

>  <halogenbond:ASN:129>  (59) 
halogenbond:ASN:129    0
halogenbond:ASN:129    0
Name: 58, dtype: object

>  <hbond:GLY:130>  (59) 
hbond:GLY:130    0
hbond:GLY:130    0
Name: 58, dtype: object

>  <hydroph_interaction:LEU:131>  (59) 
hydroph_interaction:LEU:131    0
hydroph_interaction:LEU:131    0
Name: 58, dtype: object

>  <hbond:LEU:131>  (59) 
hbond:LEU:131    0
hbond:LEU:131    0
Name: 58, dtype: object

>  <halogenbond:LEU:131>  (59) 
halogenbond:LEU:131    0
halogenbond:LEU:131    0
Name: 58, dtype: object

>  <hydroph_interaction:VAL:132>  (59) 
hydroph_interaction:VAL:132    0
hydroph_interaction:VAL:132    0
Name: 58, dtype: object

>  <hbond:VAL:132>  (59) 
hbond:VAL:132    0
hbond:VAL:132    0
Name: 58, dtype: object

>  <hbond:GLY:133>  (59) 
hbond:GLY:133    0
hbond:GLY:133    0
Name: 58, dtype: object

>  <halogenbond:GLY:133>  (59) 
halogenbond:GLY:133    0
halogenbond:GLY:133    0
Name: 58, dtype: object

>  <hydroph_interaction:PHE:134>  (59) 
hydroph_interaction:PHE:134    0
hydroph_interaction:PHE:134    0
Name: 58, dtype: object

>  <hbond:PHE:134>  (59) 
hbond:PHE:134    0
hbond:PHE:134    0
Name: 58, dtype: object

>  <pistack:PHE:134>  (59) 
pistack:PHE:134    0
pistack:PHE:134    0
Name: 58, dtype: object

>  <pication:PHE:134>  (59) 
pication:PHE:134    0
pication:PHE:134    0
Name: 58, dtype: object

>  <hydroph_interaction:ALA:135>  (59) 
hydroph_interaction:ALA:135    0
hydroph_interaction:ALA:135    0
Name: 58, dtype: object

>  <hbond:ALA:135>  (59) 
hbond:ALA:135    0
hbond:ALA:135    0
Name: 58, dtype: object

$$$$
PV_003150317500
     RDKit          3D

 40 42  0  0  0  0  0  0  0  0999 V2000
   13.4020   16.2390   20.6620 C   0  0  0  0  0  0  0  0  0  0  0  0
   12.3270   15.9290   21.6090 C   0  0  0  0  0  0  0  0  0  0  0  0
   12.7350   15.3590   22.8100 C   0  0  0  0  0  0  0  0  0  0  0  0
   12.3190   14.0760   23.0010 C   0  0  0  0  0  0  0  0  0  0  0  0
   11.1430   13.9440   22.1720 N   0  0  0  0  0  0  0  0  0  0  0  0
    9.9670   14.0640   22.9980 C   0  0  0  0  0  0  0  0  0  0  0  0
    9.5530   12.8280   23.3760 C   0  0  0  0  0  0  0  0  0  0  0  0
   10.1230   11.6580   22.8690 C   0  0  0  0  0  0  0  0  0  0  0  0
    9.4900   10.6040   23.4360 N   0  0  0  0  0  0  0  0  0  0  0  0
    9.7810    9.2160   23.1780 C   0  0  0  0  0  0  0  0  0  0  0  0
    8.5050   11.1510   24.3190 C   0  0  0  0  0  0  0  0  0  0  0  0
    7.6600   10.3820   25.0740 C   0  0  0  0  0  0  0  0  0  0  0  0
    6.6890   11.1260   25.9460 C   0  0  0  0  0  0  0  0  0  0  0  0
    6.7190   12.5160   25.9240 C   0  0  0  0  0  0  0  0  0  0  0  0
    7.6250   13.2010   25.1100 C   0  0  0  0  0  0  0  0  0  0  0  0
    8.5340   12.5080   24.2940 C   0  0  0  0  0  0  0  0  0  0  0  0
   11.3250   14.8900   21.0560 C   0  0  0  0  0  0  0  0  0  0  0  0
   10.0160   15.4210   20.4710 C   0  0  0  0  0  0  0  0  0  0  0  0
   13.2720   15.6620   19.7450 H   0  0  0  0  0  0  0  0  0  0  0  0
   14.3520   15.9780   21.1020 H   0  0  0  0  0  0  0  0  0  0  0  0
   13.4390   17.3020   20.4500 H   0  0  0  0  0  0  0  0  0  0  0  0
   11.7790   16.8510   21.8080 H   0  0  0  0  0  0  0  0  0  0  0  0
   13.8320   15.3790   22.8280 H   0  0  0  0  0  0  0  0  0  0  0  0
   12.3970   15.9370   23.6710 H   0  0  0  0  0  0  0  0  0  0  0  0
   12.0730   13.9470   24.0600 H   0  0  0  0  0  0  0  0  0  0  0  0
   13.1060   13.3700   22.7260 H   0  0  0  0  0  0  0  0  0  0  0  0
   10.1940   14.6400   23.8950 H   0  0  0  0  0  0  0  0  0  0  0  0
    9.1610   14.5450   22.4430 H   0  0  0  0  0  0  0  0  0  0  0  0
   10.9170   11.5180   22.1600 H   0  0  0  0  0  0  0  0  0  0  0  0
    9.2530    8.6350   23.9270 H   0  0  0  0  0  0  0  0  0  0  0  0
   10.8570    9.0510   23.2860 H   0  0  0  0  0  0  0  0  0  0  0  0
    9.4750    8.9250   22.1730 H   0  0  0  0  0  0  0  0  0  0  0  0
    7.7000    9.3200   25.0320 H   0  0  0  0  0  0  0  0  0  0  0  0
    5.9840   10.5870   26.5750 H   0  0  0  0  0  0  0  0  0  0  0  0
    5.9950   13.0200   26.5750 H   0  0  0  0  0  0  0  0  0  0  0  0
    7.7140   14.2910   25.0300 H   0  0  0  0  0  0  0  0  0  0  0  0
   11.8500   14.3980   20.2280 H   0  0  0  0  0  0  0  0  0  0  0  0
    9.9100   15.1010   19.4320 H   0  0  0  0  0  0  0  0  0  0  0  0
   10.0010   16.5120   20.4490 H   0  0  0  0  0  0  0  0  0  0  0  0
    9.1400   15.0560   21.0100 H   0  0  0  0  0  0  0  0  0  0  0  0
  1  2  1  0
  2  3  1  0
  3  4  1  0
  4  5  1  0
  5  6  1  0
  6  7  1  0
  7  8  2  0
  8  9  1  0
  9 10  1  0
  9 11  1  0
 11 12  2  0
 12 13  1  0
 13 14  2  0
 14 15  1  0
 15 16  2  0
  5 17  1  0
 17 18  1  0
 17  2  1  0
 16  7  1  0
 16 11  1  0
  1 19  1  0
  1 20  1  0
  1 21  1  0
  2 22  1  0
  3 23  1  0
  3 24  1  0
  4 25  1  0
  4 26  1  0
  6 27  1  0
  6 28  1  0
  8 29  1  0
 10 30  1  0
 10 31  1  0
 10 32  1  0
 12 33  1  0
 13 34  1  0
 14 35  1  0
 15 36  1  0
 17 37  1  0
 18 38  1  0
 18 39  1  0
 18 40  1  0
A    1
 C1 
A    2
 C2 
A    3
 C3 
A    4
 C4 
A    5
 N1 
A    6
 C5 
A    7
 C6 
A    8
 C7 
A    9
 N2 
A   10
 C8 
A   11
 C9 
A   12
 C10
A   13
 C11
A   14
 C12
A   15
 C13
A   16
 C14
A   17
 C15
A   18
 C16
A   19
 H1 
A   20
 H2 
A   21
 H3 
A   22
 H4 
A   23
 H5 
A   24
 H6 
A   25
 H7 
A   26
 H8 
A   27
 H9 
A   28
 H10
A   29
 H11
A   30
 H12
A   31
 H13
A   32
 H14
A   33
 H15
A   34
 H16
A   35
 H17
A   36
 H18
A   37
 H19
A   38
 H20
A   39
 H21
A   40
 H22
M  END
>  <ref_pdb>  (60) 
x0310_0A

>  <ref_mols>  (60) 
x0451_0A,x0528_0A

>  <original SMILES>  (60) 
CC1CCN(Cc2cn(C)c3ccccc23)C1C

>  <rationale>  (60) 
info hydroph_interaction:Y89+Y90+H21; 

>  <intxn_cluster>  (60) 
208

>  <intxn_cluster_rank>  (60) 
265

>  <N_interactions>  (60) 
3

>  <∆∆G>  (60) 
-11.104722

>  <$/mg>  (60) 
0.0

>  <comRMSD>  (60) 
0.668173

>  <N_rotatable_bonds>  (60) 
5

>  <hbond:SER:7>  (60) 
hbond:SER:7    0
hbond:SER:7    0
Name: 59, dtype: object

>  <halogenbond:SER:7>  (60) 
halogenbond:SER:7    0
halogenbond:SER:7    0
Name: 59, dtype: object

>  <hbond:GLY:8>  (60) 
hbond:GLY:8    0
hbond:GLY:8    0
Name: 59, dtype: object

>  <hydroph_interaction:ASN:19>  (60) 
hydroph_interaction:ASN:19    0
hydroph_interaction:ASN:19    0
Name: 59, dtype: object

>  <hbond:ASN:19>  (60) 
hbond:ASN:19    0
hbond:ASN:19    0
Name: 59, dtype: object

>  <halogenbond:ASN:19>  (60) 
halogenbond:ASN:19    0
halogenbond:ASN:19    0
Name: 59, dtype: object

>  <hbond:ARG:20>  (60) 
hbond:ARG:20    0
hbond:ARG:20    0
Name: 59, dtype: object

>  <hydroph_interaction:ARG:20>  (60) 
hydroph_interaction:ARG:20    0
hydroph_interaction:ARG:20    0
Name: 59, dtype: object

>  <saltbridge:ARG:20>  (60) 
saltbridge:ARG:20    0
saltbridge:ARG:20    0
Name: 59, dtype: object

>  <halogenbond:ARG:20>  (60) 
halogenbond:ARG:20    0
halogenbond:ARG:20    0
Name: 59, dtype: object

>  <pication:ARG:20>  (60) 
pication:ARG:20    0
pication:ARG:20    0
Name: 59, dtype: object

>  <hbond:HIS:21>  (60) 
hbond:HIS:21    0
hbond:HIS:21    0
Name: 59, dtype: object

>  <hydroph_interaction:HIS:21>  (60) 
hydroph_interaction:HIS:21    1
hydroph_interaction:HIS:21    1
Name: 59, dtype: object

>  <saltbridge:HIS:21>  (60) 
saltbridge:HIS:21    0
saltbridge:HIS:21    0
Name: 59, dtype: object

>  <pistack:HIS:21>  (60) 
pistack:HIS:21    0
pistack:HIS:21    0
Name: 59, dtype: object

>  <pication:HIS:21>  (60) 
pication:HIS:21    0
pication:HIS:21    0
Name: 59, dtype: object

>  <halogenbond:HIS:21>  (60) 
halogenbond:HIS:21    0
halogenbond:HIS:21    0
Name: 59, dtype: object

>  <hydroph_interaction:LEU:22>  (60) 
hydroph_interaction:LEU:22    0
hydroph_interaction:LEU:22    0
Name: 59, dtype: object

>  <hbond:LEU:22>  (60) 
hbond:LEU:22    0
hbond:LEU:22    0
Name: 59, dtype: object

>  <hydroph_interaction:TRP:28>  (60) 
hydroph_interaction:TRP:28    0
hydroph_interaction:TRP:28    0
Name: 59, dtype: object

>  <hbond:SER:36>  (60) 
hbond:SER:36    0
hbond:SER:36    0
Name: 59, dtype: object

>  <halogenbond:SER:36>  (60) 
halogenbond:SER:36    0
halogenbond:SER:36    0
Name: 59, dtype: object

>  <hbond:ARG:38>  (60) 
hbond:ARG:38    0
hbond:ARG:38    0
Name: 59, dtype: object

>  <halogenbond:ARG:38>  (60) 
halogenbond:ARG:38    0
halogenbond:ARG:38    0
Name: 59, dtype: object

>  <hbond:ASP:39>  (60) 
hbond:ASP:39    0
hbond:ASP:39    0
Name: 59, dtype: object

>  <saltbridge:ASP:39>  (60) 
saltbridge:ASP:39    0
saltbridge:ASP:39    0
Name: 59, dtype: object

>  <hydroph_interaction:ASP:39>  (60) 
hydroph_interaction:ASP:39    0
hydroph_interaction:ASP:39    0
Name: 59, dtype: object

>  <halogenbond:ASP:39>  (60) 
halogenbond:ASP:39    0
halogenbond:ASP:39    0
Name: 59, dtype: object

>  <hydroph_interaction:LEU:40>  (60) 
hydroph_interaction:LEU:40    0
hydroph_interaction:LEU:40    0
Name: 59, dtype: object

>  <hydroph_interaction:TYR:63>  (60) 
hydroph_interaction:TYR:63    0
hydroph_interaction:TYR:63    0
Name: 59, dtype: object

>  <pistack:TYR:63>  (60) 
pistack:TYR:63    0
pistack:TYR:63    0
Name: 59, dtype: object

>  <hbond:TYR:63>  (60) 
hbond:TYR:63    0
hbond:TYR:63    0
Name: 59, dtype: object

>  <hbond:TYR:64>  (60) 
hbond:TYR:64    0
hbond:TYR:64    0
Name: 59, dtype: object

>  <halogenbond:TYR:64>  (60) 
halogenbond:TYR:64    0
halogenbond:TYR:64    0
Name: 59, dtype: object

>  <hydroph_interaction:TYR:64>  (60) 
hydroph_interaction:TYR:64    0
hydroph_interaction:TYR:64    0
Name: 59, dtype: object

>  <hbond:CYS:65>  (60) 
hbond:CYS:65    0
hbond:CYS:65    0
Name: 59, dtype: object

>  <halogenbond:CYS:65>  (60) 
halogenbond:CYS:65    0
halogenbond:CYS:65    0
Name: 59, dtype: object

>  <hbond:SER:66>  (60) 
hbond:SER:66    0
hbond:SER:66    0
Name: 59, dtype: object

>  <hbond:SER:67>  (60) 
hbond:SER:67    0
hbond:SER:67    0
Name: 59, dtype: object

>  <halogenbond:SER:67>  (60) 
halogenbond:SER:67    0
halogenbond:SER:67    0
Name: 59, dtype: object

>  <hydroph_interaction:ARG:68>  (60) 
hydroph_interaction:ARG:68    0
hydroph_interaction:ARG:68    0
Name: 59, dtype: object

>  <hbond:ARG:68>  (60) 
hbond:ARG:68    0
hbond:ARG:68    0
Name: 59, dtype: object

>  <saltbridge:ARG:68>  (60) 
saltbridge:ARG:68    0
saltbridge:ARG:68    0
Name: 59, dtype: object

>  <pication:ARG:68>  (60) 
pication:ARG:68    0
pication:ARG:68    0
Name: 59, dtype: object

>  <hydroph_interaction:TYR:72>  (60) 
hydroph_interaction:TYR:72    0
hydroph_interaction:TYR:72    0
Name: 59, dtype: object

>  <hydroph_interaction:VAL:74>  (60) 
hydroph_interaction:VAL:74    0
hydroph_interaction:VAL:74    0
Name: 59, dtype: object

>  <hydroph_interaction:PHE:76>  (60) 
hydroph_interaction:PHE:76    0
hydroph_interaction:PHE:76    0
Name: 59, dtype: object

>  <hbond:SER:77>  (60) 
hbond:SER:77    0
hbond:SER:77    0
Name: 59, dtype: object

>  <hbond:SER:80>  (60) 
hbond:SER:80    0
hbond:SER:80    0
Name: 59, dtype: object

>  <hbond:LEU:81>  (60) 
hbond:LEU:81    0
hbond:LEU:81    0
Name: 59, dtype: object

>  <halogenbond:LEU:81>  (60) 
halogenbond:LEU:81    0
halogenbond:LEU:81    0
Name: 59, dtype: object

>  <hydroph_interaction:LEU:81>  (60) 
hydroph_interaction:LEU:81    0
hydroph_interaction:LEU:81    0
Name: 59, dtype: object

>  <hydroph_interaction:ILE:82>  (60) 
hydroph_interaction:ILE:82    0
hydroph_interaction:ILE:82    0
Name: 59, dtype: object

>  <hbond:ILE:82>  (60) 
hbond:ILE:82    0
hbond:ILE:82    0
Name: 59, dtype: object

>  <hydroph_interaction:PHE:83>  (60) 
hydroph_interaction:PHE:83    0
hydroph_interaction:PHE:83    0
Name: 59, dtype: object

>  <hbond:PHE:83>  (60) 
hbond:PHE:83    0
hbond:PHE:83    0
Name: 59, dtype: object

>  <halogenbond:PHE:83>  (60) 
halogenbond:PHE:83    0
halogenbond:PHE:83    0
Name: 59, dtype: object

>  <pistack:PHE:83>  (60) 
pistack:PHE:83    0
pistack:PHE:83    0
Name: 59, dtype: object

>  <hydroph_interaction:VAL:84>  (60) 
hydroph_interaction:VAL:84    0
hydroph_interaction:VAL:84    0
Name: 59, dtype: object

>  <hbond:VAL:84>  (60) 
hbond:VAL:84    0
hbond:VAL:84    0
Name: 59, dtype: object

>  <halogenbond:VAL:84>  (60) 
halogenbond:VAL:84    0
halogenbond:VAL:84    0
Name: 59, dtype: object

>  <hydroph_interaction:GLU:85>  (60) 
hydroph_interaction:GLU:85    0
hydroph_interaction:GLU:85    0
Name: 59, dtype: object

>  <hbond:GLU:85>  (60) 
hbond:GLU:85    0
hbond:GLU:85    0
Name: 59, dtype: object

>  <saltbridge:GLU:85>  (60) 
saltbridge:GLU:85    0
saltbridge:GLU:85    0
Name: 59, dtype: object

>  <halogenbond:GLU:85>  (60) 
halogenbond:GLU:85    0
halogenbond:GLU:85    0
Name: 59, dtype: object

>  <hbond:ALA:86>  (60) 
hbond:ALA:86    0
hbond:ALA:86    0
Name: 59, dtype: object

>  <halogenbond:ALA:86>  (60) 
halogenbond:ALA:86    0
halogenbond:ALA:86    0
Name: 59, dtype: object

>  <hydroph_interaction:ALA:86>  (60) 
hydroph_interaction:ALA:86    0
hydroph_interaction:ALA:86    0
Name: 59, dtype: object

>  <hbond:SER:87>  (60) 
hbond:SER:87    0
hbond:SER:87    0
Name: 59, dtype: object

>  <halogenbond:SER:87>  (60) 
halogenbond:SER:87    0
halogenbond:SER:87    0
Name: 59, dtype: object

>  <hbond:GLU:88>  (60) 
hbond:GLU:88    0
hbond:GLU:88    0
Name: 59, dtype: object

>  <hydroph_interaction:GLU:88>  (60) 
hydroph_interaction:GLU:88    0
hydroph_interaction:GLU:88    0
Name: 59, dtype: object

>  <halogenbond:GLU:88>  (60) 
halogenbond:GLU:88    0
halogenbond:GLU:88    0
Name: 59, dtype: object

>  <saltbridge:GLU:88>  (60) 
saltbridge:GLU:88    0
saltbridge:GLU:88    0
Name: 59, dtype: object

>  <hydroph_interaction:TYR:89>  (60) 
hydroph_interaction:TYR:89    1
hydroph_interaction:TYR:89    1
Name: 59, dtype: object

>  <pistack:TYR:89>  (60) 
pistack:TYR:89    0
pistack:TYR:89    0
Name: 59, dtype: object

>  <hbond:TYR:89>  (60) 
hbond:TYR:89    0
hbond:TYR:89    0
Name: 59, dtype: object

>  <halogenbond:TYR:89>  (60) 
halogenbond:TYR:89    0
halogenbond:TYR:89    0
Name: 59, dtype: object

>  <hbond:TYR:90>  (60) 
hbond:TYR:90    0
hbond:TYR:90    0
Name: 59, dtype: object

>  <hydroph_interaction:TYR:90>  (60) 
hydroph_interaction:TYR:90    1
hydroph_interaction:TYR:90    1
Name: 59, dtype: object

>  <pistack:TYR:90>  (60) 
pistack:TYR:90    0
pistack:TYR:90    0
Name: 59, dtype: object

>  <halogenbond:TYR:90>  (60) 
halogenbond:TYR:90    0
halogenbond:TYR:90    0
Name: 59, dtype: object

>  <pication:TYR:90>  (60) 
pication:TYR:90    0
pication:TYR:90    0
Name: 59, dtype: object

>  <hydroph_interaction:PRO:91>  (60) 
hydroph_interaction:PRO:91    0
hydroph_interaction:PRO:91    0
Name: 59, dtype: object

>  <halogenbond:PRO:91>  (60) 
halogenbond:PRO:91    0
halogenbond:PRO:91    0
Name: 59, dtype: object

>  <hbond:PRO:91>  (60) 
hbond:PRO:91    0
hbond:PRO:91    0
Name: 59, dtype: object

>  <hydroph_interaction:ALA:92>  (60) 
hydroph_interaction:ALA:92    0
hydroph_interaction:ALA:92    0
Name: 59, dtype: object

>  <hbond:ARG:93>  (60) 
hbond:ARG:93    0
hbond:ARG:93    0
Name: 59, dtype: object

>  <pication:ARG:93>  (60) 
pication:ARG:93    0
pication:ARG:93    0
Name: 59, dtype: object

>  <saltbridge:ARG:93>  (60) 
saltbridge:ARG:93    0
saltbridge:ARG:93    0
Name: 59, dtype: object

>  <hydroph_interaction:ARG:93>  (60) 
hydroph_interaction:ARG:93    0
hydroph_interaction:ARG:93    0
Name: 59, dtype: object

>  <halogenbond:ARG:93>  (60) 
halogenbond:ARG:93    0
halogenbond:ARG:93    0
Name: 59, dtype: object

>  <hydroph_interaction:TYR:94>  (60) 
hydroph_interaction:TYR:94    0
hydroph_interaction:TYR:94    0
Name: 59, dtype: object

>  <hbond:TYR:94>  (60) 
hbond:TYR:94    0
hbond:TYR:94    0
Name: 59, dtype: object

>  <halogenbond:GLN:95>  (60) 
halogenbond:GLN:95    0
halogenbond:GLN:95    0
Name: 59, dtype: object

>  <hbond:GLN:95>  (60) 
hbond:GLN:95    0
hbond:GLN:95    0
Name: 59, dtype: object

>  <hydroph_interaction:GLN:95>  (60) 
hydroph_interaction:GLN:95    0
hydroph_interaction:GLN:95    0
Name: 59, dtype: object

>  <hbond:SER:96>  (60) 
hbond:SER:96    0
hbond:SER:96    0
Name: 59, dtype: object

>  <hydroph_interaction:LEU:98>  (60) 
hydroph_interaction:LEU:98    0
hydroph_interaction:LEU:98    0
Name: 59, dtype: object

>  <hbond:LEU:98>  (60) 
hbond:LEU:98    0
hbond:LEU:98    0
Name: 59, dtype: object

>  <hbond:MET:99>  (60) 
hbond:MET:99    0
hbond:MET:99    0
Name: 59, dtype: object

>  <hydroph_interaction:MET:99>  (60) 
hydroph_interaction:MET:99    0
hydroph_interaction:MET:99    0
Name: 59, dtype: object

>  <halogenbond:MET:99>  (60) 
halogenbond:MET:99    0
halogenbond:MET:99    0
Name: 59, dtype: object

>  <hydroph_interaction:LEU:100>  (60) 
hydroph_interaction:LEU:100    0
hydroph_interaction:LEU:100    0
Name: 59, dtype: object

>  <hbond:LEU:100>  (60) 
hbond:LEU:100    0
hbond:LEU:100    0
Name: 59, dtype: object

>  <hbond:ALA:101>  (60) 
hbond:ALA:101    0
hbond:ALA:101    0
Name: 59, dtype: object

>  <hydroph_interaction:ALA:101>  (60) 
hydroph_interaction:ALA:101    0
hydroph_interaction:ALA:101    0
Name: 59, dtype: object

>  <hydroph_interaction:VAL:102>  (60) 
hydroph_interaction:VAL:102    0
hydroph_interaction:VAL:102    0
Name: 59, dtype: object

>  <hbond:VAL:102>  (60) 
hbond:VAL:102    0
hbond:VAL:102    0
Name: 59, dtype: object

>  <hbond:GLY:103>  (60) 
hbond:GLY:103    0
hbond:GLY:103    0
Name: 59, dtype: object

>  <halogenbond:GLY:103>  (60) 
halogenbond:GLY:103    0
halogenbond:GLY:103    0
Name: 59, dtype: object

>  <hydroph_interaction:HIS:104>  (60) 
hydroph_interaction:HIS:104    0
hydroph_interaction:HIS:104    0
Name: 59, dtype: object

>  <hbond:HIS:104>  (60) 
hbond:HIS:104    0
hbond:HIS:104    0
Name: 59, dtype: object

>  <saltbridge:HIS:104>  (60) 
saltbridge:HIS:104    0
saltbridge:HIS:104    0
Name: 59, dtype: object

>  <pication:HIS:104>  (60) 
pication:HIS:104    0
pication:HIS:104    0
Name: 59, dtype: object

>  <pistack:HIS:104>  (60) 
pistack:HIS:104    0
pistack:HIS:104    0
Name: 59, dtype: object

>  <halogenbond:HIS:104>  (60) 
halogenbond:HIS:104    0
halogenbond:HIS:104    0
Name: 59, dtype: object

>  <hbond:SER:105>  (60) 
hbond:SER:105    0
hbond:SER:105    0
Name: 59, dtype: object

>  <halogenbond:SER:105>  (60) 
halogenbond:SER:105    0
halogenbond:SER:105    0
Name: 59, dtype: object

>  <hbond:GLU:106>  (60) 
hbond:GLU:106    0
hbond:GLU:106    0
Name: 59, dtype: object

>  <hydroph_interaction:GLU:106>  (60) 
hydroph_interaction:GLU:106    0
hydroph_interaction:GLU:106    0
Name: 59, dtype: object

>  <saltbridge:GLU:106>  (60) 
saltbridge:GLU:106    0
saltbridge:GLU:106    0
Name: 59, dtype: object

>  <halogenbond:GLU:106>  (60) 
halogenbond:GLU:106    0
halogenbond:GLU:106    0
Name: 59, dtype: object

>  <hydroph_interaction:PRO:107>  (60) 
hydroph_interaction:PRO:107    0
hydroph_interaction:PRO:107    0
Name: 59, dtype: object

>  <hbond:PRO:107>  (60) 
hbond:PRO:107    0
hbond:PRO:107    0
Name: 59, dtype: object

>  <halogenbond:PRO:107>  (60) 
halogenbond:PRO:107    0
halogenbond:PRO:107    0
Name: 59, dtype: object

>  <hbond:GLY:108>  (60) 
hbond:GLY:108    0
hbond:GLY:108    0
Name: 59, dtype: object

>  <halogenbond:GLY:108>  (60) 
halogenbond:GLY:108    0
halogenbond:GLY:108    0
Name: 59, dtype: object

>  <hbond:ASP:109>  (60) 
hbond:ASP:109    0
hbond:ASP:109    0
Name: 59, dtype: object

>  <hydroph_interaction:ASP:109>  (60) 
hydroph_interaction:ASP:109    0
hydroph_interaction:ASP:109    0
Name: 59, dtype: object

>  <saltbridge:ASP:109>  (60) 
saltbridge:ASP:109    0
saltbridge:ASP:109    0
Name: 59, dtype: object

>  <hbond:CYS:110>  (60) 
hbond:CYS:110    0
hbond:CYS:110    0
Name: 59, dtype: object

>  <halogenbond:CYS:110>  (60) 
halogenbond:CYS:110    0
halogenbond:CYS:110    0
Name: 59, dtype: object

>  <hbond:GLY:111>  (60) 
hbond:GLY:111    0
hbond:GLY:111    0
Name: 59, dtype: object

>  <hbond:GLY:112>  (60) 
hbond:GLY:112    0
hbond:GLY:112    0
Name: 59, dtype: object

>  <hbond:ILE:113>  (60) 
hbond:ILE:113    0
hbond:ILE:113    0
Name: 59, dtype: object

>  <hydroph_interaction:LEU:114>  (60) 
hydroph_interaction:LEU:114    0
hydroph_interaction:LEU:114    0
Name: 59, dtype: object

>  <hbond:LEU:114>  (60) 
hbond:LEU:114    0
hbond:LEU:114    0
Name: 59, dtype: object

>  <hydroph_interaction:ILE:123>  (60) 
hydroph_interaction:ILE:123    0
hydroph_interaction:ILE:123    0
Name: 59, dtype: object

>  <hbond:ILE:123>  (60) 
hbond:ILE:123    0
hbond:ILE:123    0
Name: 59, dtype: object

>  <hydroph_interaction:VAL:124>  (60) 
hydroph_interaction:VAL:124    0
hydroph_interaction:VAL:124    0
Name: 59, dtype: object

>  <hbond:VAL:124>  (60) 
hbond:VAL:124    0
hbond:VAL:124    0
Name: 59, dtype: object

>  <halogenbond:VAL:124>  (60) 
halogenbond:VAL:124    0
halogenbond:VAL:124    0
Name: 59, dtype: object

>  <hbond:SER:125>  (60) 
hbond:SER:125    0
hbond:SER:125    0
Name: 59, dtype: object

>  <halogenbond:SER:125>  (60) 
halogenbond:SER:125    0
halogenbond:SER:125    0
Name: 59, dtype: object

>  <hydroph_interaction:THR:126>  (60) 
hydroph_interaction:THR:126    0
hydroph_interaction:THR:126    0
Name: 59, dtype: object

>  <hbond:THR:126>  (60) 
hbond:THR:126    0
hbond:THR:126    0
Name: 59, dtype: object

>  <halogenbond:THR:126>  (60) 
halogenbond:THR:126    0
halogenbond:THR:126    0
Name: 59, dtype: object

>  <hbond:GLY:127>  (60) 
hbond:GLY:127    0
hbond:GLY:127    0
Name: 59, dtype: object

>  <halogenbond:GLY:127>  (60) 
halogenbond:GLY:127    0
halogenbond:GLY:127    0
Name: 59, dtype: object

>  <hydroph_interaction:GLY:127>  (60) 
hydroph_interaction:GLY:127    0
hydroph_interaction:GLY:127    0
Name: 59, dtype: object

>  <hbond:GLY:128>  (60) 
hbond:GLY:128    0
hbond:GLY:128    0
Name: 59, dtype: object

>  <halogenbond:GLY:128>  (60) 
halogenbond:GLY:128    0
halogenbond:GLY:128    0
Name: 59, dtype: object

>  <hydroph_interaction:GLY:128>  (60) 
hydroph_interaction:GLY:128    0
hydroph_interaction:GLY:128    0
Name: 59, dtype: object

>  <hbond:ASN:129>  (60) 
hbond:ASN:129    0
hbond:ASN:129    0
Name: 59, dtype: object

>  <hydroph_interaction:ASN:129>  (60) 
hydroph_interaction:ASN:129    0
hydroph_interaction:ASN:129    0
Name: 59, dtype: object

>  <halogenbond:ASN:129>  (60) 
halogenbond:ASN:129    0
halogenbond:ASN:129    0
Name: 59, dtype: object

>  <hbond:GLY:130>  (60) 
hbond:GLY:130    0
hbond:GLY:130    0
Name: 59, dtype: object

>  <hydroph_interaction:LEU:131>  (60) 
hydroph_interaction:LEU:131    0
hydroph_interaction:LEU:131    0
Name: 59, dtype: object

>  <hbond:LEU:131>  (60) 
hbond:LEU:131    0
hbond:LEU:131    0
Name: 59, dtype: object

>  <halogenbond:LEU:131>  (60) 
halogenbond:LEU:131    0
halogenbond:LEU:131    0
Name: 59, dtype: object

>  <hydroph_interaction:VAL:132>  (60) 
hydroph_interaction:VAL:132    0
hydroph_interaction:VAL:132    0
Name: 59, dtype: object

>  <hbond:VAL:132>  (60) 
hbond:VAL:132    0
hbond:VAL:132    0
Name: 59, dtype: object

>  <hbond:GLY:133>  (60) 
hbond:GLY:133    0
hbond:GLY:133    0
Name: 59, dtype: object

>  <halogenbond:GLY:133>  (60) 
halogenbond:GLY:133    0
halogenbond:GLY:133    0
Name: 59, dtype: object

>  <hydroph_interaction:PHE:134>  (60) 
hydroph_interaction:PHE:134    0
hydroph_interaction:PHE:134    0
Name: 59, dtype: object

>  <hbond:PHE:134>  (60) 
hbond:PHE:134    0
hbond:PHE:134    0
Name: 59, dtype: object

>  <pistack:PHE:134>  (60) 
pistack:PHE:134    0
pistack:PHE:134    0
Name: 59, dtype: object

>  <pication:PHE:134>  (60) 
pication:PHE:134    0
pication:PHE:134    0
Name: 59, dtype: object

>  <hydroph_interaction:ALA:135>  (60) 
hydroph_interaction:ALA:135    0
hydroph_interaction:ALA:135    0
Name: 59, dtype: object

>  <hbond:ALA:135>  (60) 
hbond:ALA:135    0
hbond:ALA:135    0
Name: 59, dtype: object

$$$$
PV_002890500328
     RDKit          3D

 27 28  0  0  0  0  0  0  0  0999 V2000
   12.2250   15.2320   21.9540 C   0  0  0  0  0  0  0  0  0  0  0  0
   11.5150   14.2270   22.8240 C   0  0  0  0  0  0  0  0  0  0  0  0
   11.8720   14.1570   24.1520 C   0  0  0  0  0  0  0  0  0  0  0  0
   10.5570   13.4040   22.3820 C   0  0  0  0  0  0  0  0  0  0  0  0
    9.7610   12.3300   23.1520 C   0  0  0  0  0  0  0  0  0  0  0  0
   10.1410   10.8830   22.7750 C   0  0  0  0  0  0  0  0  0  0  0  0
    9.4570    9.9200   23.4380 C   0  0  0  0  0  0  0  0  0  0  0  0
    9.7440    8.6580   23.1510 F   0  0  0  0  0  0  0  0  0  0  0  0
    8.3870   10.2660   24.4780 C   0  0  0  0  0  0  0  0  0  0  0  0
    8.0960   11.5810   24.7590 C   0  0  0  0  0  0  0  0  0  0  0  0
    8.7840   12.5910   24.1000 C   0  0  0  0  0  0  0  0  0  0  0  0
    8.3500   13.8780   24.5250 O   0  0  0  0  0  0  0  0  0  0  0  0
    7.0860   13.5880   25.1600 C   0  0  0  0  0  0  0  0  0  0  0  0
    7.1110   12.1630   25.6990 C   0  0  0  0  0  0  0  0  0  0  0  0
   11.7590   15.3170   20.9700 H   0  0  0  0  0  0  0  0  0  0  0  0
   13.2620   14.9230   21.8290 H   0  0  0  0  0  0  0  0  0  0  0  0
   12.1930   16.2140   22.4350 H   0  0  0  0  0  0  0  0  0  0  0  0
   11.0980   13.9430   24.8760 H   0  0  0  0  0  0  0  0  0  0  0  0
   12.3930   15.0320   24.5680 H   0  0  0  0  0  0  0  0  0  0  0  0
   12.5810   13.3260   24.2360 H   0  0  0  0  0  0  0  0  0  0  0  0
   10.2490   13.4490   21.3350 H   0  0  0  0  0  0  0  0  0  0  0  0
   10.8930   10.6560   22.0370 H   0  0  0  0  0  0  0  0  0  0  0  0
    7.8490    9.4740   24.9960 H   0  0  0  0  0  0  0  0  0  0  0  0
    6.9420   14.3150   25.9670 H   0  0  0  0  0  0  0  0  0  0  0  0
    6.2780   13.7270   24.4320 H   0  0  0  0  0  0  0  0  0  0  0  0
    7.4050   12.1340   26.7480 H   0  0  0  0  0  0  0  0  0  0  0  0
    6.1400   11.6750   25.5680 H   0  0  0  0  0  0  0  0  0  0  0  0
  1  2  1  0
  2  3  1  0
  2  4  2  3
  4  5  1  0
  5  6  2  0
  6  7  1  0
  7  8  1  0
  7  9  2  0
  9 10  1  0
 10 11  2  0
 11 12  1  0
 12 13  1  0
 13 14  1  0
 11  5  1  0
 14 10  1  0
  1 15  1  0
  1 16  1  0
  1 17  1  0
  3 18  1  0
  3 19  1  0
  3 20  1  0
  4 21  1  0
  6 22  1  0
  9 23  1  0
 13 24  1  0
 13 25  1  0
 14 26  1  0
 14 27  1  0
A    1
 C1 
A    2
 C2 
A    3
 C3 
A    4
 C4 
A    5
 C5 
A    6
 C6 
A    7
 C7 
A    8
 F1 
A    9
 C8 
A   10
 C9 
A   11
 C10
A   12
 O1 
A   13
 C11
A   14
 C12
A   15
 H1 
A   16
 H2 
A   17
 H3 
A   18
 H4 
A   19
 H5 
A   20
 H6 
A   21
 H7 
A   22
 H8 
A   23
 H9 
A   24
 H10
A   25
 H11
A   26
 H12
A   27
 H13
M  END
>  <ref_pdb>  (61) 
x0310_0A

>  <ref_mols>  (61) 
x0554_0A,x0739_0A

>  <original SMILES>  (61) 
CC(C)=Cc1cc(F)cc2c1OCC2

>  <rationale>  (61) 
info hydroph_interaction:P107; 

>  <intxn_cluster>  (61) 
208

>  <intxn_cluster_rank>  (61) 
277

>  <N_interactions>  (61) 
2

>  <∆∆G>  (61) 
-8.509194

>  <$/mg>  (61) 
163.0

>  <comRMSD>  (61) 
0.720685

>  <N_rotatable_bonds>  (61) 
3

>  <hbond:SER:7>  (61) 
hbond:SER:7    0
hbond:SER:7    0
Name: 60, dtype: object

>  <halogenbond:SER:7>  (61) 
halogenbond:SER:7    0
halogenbond:SER:7    0
Name: 60, dtype: object

>  <hbond:GLY:8>  (61) 
hbond:GLY:8    0
hbond:GLY:8    0
Name: 60, dtype: object

>  <hydroph_interaction:ASN:19>  (61) 
hydroph_interaction:ASN:19    0
hydroph_interaction:ASN:19    0
Name: 60, dtype: object

>  <hbond:ASN:19>  (61) 
hbond:ASN:19    0
hbond:ASN:19    0
Name: 60, dtype: object

>  <halogenbond:ASN:19>  (61) 
halogenbond:ASN:19    0
halogenbond:ASN:19    0
Name: 60, dtype: object

>  <hbond:ARG:20>  (61) 
hbond:ARG:20    0
hbond:ARG:20    0
Name: 60, dtype: object

>  <hydroph_interaction:ARG:20>  (61) 
hydroph_interaction:ARG:20    0
hydroph_interaction:ARG:20    0
Name: 60, dtype: object

>  <saltbridge:ARG:20>  (61) 
saltbridge:ARG:20    0
saltbridge:ARG:20    0
Name: 60, dtype: object

>  <halogenbond:ARG:20>  (61) 
halogenbond:ARG:20    0
halogenbond:ARG:20    0
Name: 60, dtype: object

>  <pication:ARG:20>  (61) 
pication:ARG:20    0
pication:ARG:20    0
Name: 60, dtype: object

>  <hbond:HIS:21>  (61) 
hbond:HIS:21    0
hbond:HIS:21    0
Name: 60, dtype: object

>  <hydroph_interaction:HIS:21>  (61) 
hydroph_interaction:HIS:21    0
hydroph_interaction:HIS:21    0
Name: 60, dtype: object

>  <saltbridge:HIS:21>  (61) 
saltbridge:HIS:21    0
saltbridge:HIS:21    0
Name: 60, dtype: object

>  <pistack:HIS:21>  (61) 
pistack:HIS:21    0
pistack:HIS:21    0
Name: 60, dtype: object

>  <pication:HIS:21>  (61) 
pication:HIS:21    0
pication:HIS:21    0
Name: 60, dtype: object

>  <halogenbond:HIS:21>  (61) 
halogenbond:HIS:21    0
halogenbond:HIS:21    0
Name: 60, dtype: object

>  <hydroph_interaction:LEU:22>  (61) 
hydroph_interaction:LEU:22    0
hydroph_interaction:LEU:22    0
Name: 60, dtype: object

>  <hbond:LEU:22>  (61) 
hbond:LEU:22    0
hbond:LEU:22    0
Name: 60, dtype: object

>  <hydroph_interaction:TRP:28>  (61) 
hydroph_interaction:TRP:28    0
hydroph_interaction:TRP:28    0
Name: 60, dtype: object

>  <hbond:SER:36>  (61) 
hbond:SER:36    0
hbond:SER:36    0
Name: 60, dtype: object

>  <halogenbond:SER:36>  (61) 
halogenbond:SER:36    0
halogenbond:SER:36    0
Name: 60, dtype: object

>  <hbond:ARG:38>  (61) 
hbond:ARG:38    0
hbond:ARG:38    0
Name: 60, dtype: object

>  <halogenbond:ARG:38>  (61) 
halogenbond:ARG:38    0
halogenbond:ARG:38    0
Name: 60, dtype: object

>  <hbond:ASP:39>  (61) 
hbond:ASP:39    0
hbond:ASP:39    0
Name: 60, dtype: object

>  <saltbridge:ASP:39>  (61) 
saltbridge:ASP:39    0
saltbridge:ASP:39    0
Name: 60, dtype: object

>  <hydroph_interaction:ASP:39>  (61) 
hydroph_interaction:ASP:39    0
hydroph_interaction:ASP:39    0
Name: 60, dtype: object

>  <halogenbond:ASP:39>  (61) 
halogenbond:ASP:39    0
halogenbond:ASP:39    0
Name: 60, dtype: object

>  <hydroph_interaction:LEU:40>  (61) 
hydroph_interaction:LEU:40    0
hydroph_interaction:LEU:40    0
Name: 60, dtype: object

>  <hydroph_interaction:TYR:63>  (61) 
hydroph_interaction:TYR:63    0
hydroph_interaction:TYR:63    0
Name: 60, dtype: object

>  <pistack:TYR:63>  (61) 
pistack:TYR:63    0
pistack:TYR:63    0
Name: 60, dtype: object

>  <hbond:TYR:63>  (61) 
hbond:TYR:63    0
hbond:TYR:63    0
Name: 60, dtype: object

>  <hbond:TYR:64>  (61) 
hbond:TYR:64    0
hbond:TYR:64    0
Name: 60, dtype: object

>  <halogenbond:TYR:64>  (61) 
halogenbond:TYR:64    0
halogenbond:TYR:64    0
Name: 60, dtype: object

>  <hydroph_interaction:TYR:64>  (61) 
hydroph_interaction:TYR:64    0
hydroph_interaction:TYR:64    0
Name: 60, dtype: object

>  <hbond:CYS:65>  (61) 
hbond:CYS:65    0
hbond:CYS:65    0
Name: 60, dtype: object

>  <halogenbond:CYS:65>  (61) 
halogenbond:CYS:65    0
halogenbond:CYS:65    0
Name: 60, dtype: object

>  <hbond:SER:66>  (61) 
hbond:SER:66    0
hbond:SER:66    0
Name: 60, dtype: object

>  <hbond:SER:67>  (61) 
hbond:SER:67    0
hbond:SER:67    0
Name: 60, dtype: object

>  <halogenbond:SER:67>  (61) 
halogenbond:SER:67    0
halogenbond:SER:67    0
Name: 60, dtype: object

>  <hydroph_interaction:ARG:68>  (61) 
hydroph_interaction:ARG:68    0
hydroph_interaction:ARG:68    0
Name: 60, dtype: object

>  <hbond:ARG:68>  (61) 
hbond:ARG:68    0
hbond:ARG:68    0
Name: 60, dtype: object

>  <saltbridge:ARG:68>  (61) 
saltbridge:ARG:68    0
saltbridge:ARG:68    0
Name: 60, dtype: object

>  <pication:ARG:68>  (61) 
pication:ARG:68    0
pication:ARG:68    0
Name: 60, dtype: object

>  <hydroph_interaction:TYR:72>  (61) 
hydroph_interaction:TYR:72    0
hydroph_interaction:TYR:72    0
Name: 60, dtype: object

>  <hydroph_interaction:VAL:74>  (61) 
hydroph_interaction:VAL:74    0
hydroph_interaction:VAL:74    0
Name: 60, dtype: object

>  <hydroph_interaction:PHE:76>  (61) 
hydroph_interaction:PHE:76    0
hydroph_interaction:PHE:76    0
Name: 60, dtype: object

>  <hbond:SER:77>  (61) 
hbond:SER:77    0
hbond:SER:77    0
Name: 60, dtype: object

>  <hbond:SER:80>  (61) 
hbond:SER:80    0
hbond:SER:80    0
Name: 60, dtype: object

>  <hbond:LEU:81>  (61) 
hbond:LEU:81    0
hbond:LEU:81    0
Name: 60, dtype: object

>  <halogenbond:LEU:81>  (61) 
halogenbond:LEU:81    0
halogenbond:LEU:81    0
Name: 60, dtype: object

>  <hydroph_interaction:LEU:81>  (61) 
hydroph_interaction:LEU:81    0
hydroph_interaction:LEU:81    0
Name: 60, dtype: object

>  <hydroph_interaction:ILE:82>  (61) 
hydroph_interaction:ILE:82    0
hydroph_interaction:ILE:82    0
Name: 60, dtype: object

>  <hbond:ILE:82>  (61) 
hbond:ILE:82    0
hbond:ILE:82    0
Name: 60, dtype: object

>  <hydroph_interaction:PHE:83>  (61) 
hydroph_interaction:PHE:83    0
hydroph_interaction:PHE:83    0
Name: 60, dtype: object

>  <hbond:PHE:83>  (61) 
hbond:PHE:83    0
hbond:PHE:83    0
Name: 60, dtype: object

>  <halogenbond:PHE:83>  (61) 
halogenbond:PHE:83    0
halogenbond:PHE:83    0
Name: 60, dtype: object

>  <pistack:PHE:83>  (61) 
pistack:PHE:83    0
pistack:PHE:83    0
Name: 60, dtype: object

>  <hydroph_interaction:VAL:84>  (61) 
hydroph_interaction:VAL:84    0
hydroph_interaction:VAL:84    0
Name: 60, dtype: object

>  <hbond:VAL:84>  (61) 
hbond:VAL:84    0
hbond:VAL:84    0
Name: 60, dtype: object

>  <halogenbond:VAL:84>  (61) 
halogenbond:VAL:84    0
halogenbond:VAL:84    0
Name: 60, dtype: object

>  <hydroph_interaction:GLU:85>  (61) 
hydroph_interaction:GLU:85    0
hydroph_interaction:GLU:85    0
Name: 60, dtype: object

>  <hbond:GLU:85>  (61) 
hbond:GLU:85    0
hbond:GLU:85    0
Name: 60, dtype: object

>  <saltbridge:GLU:85>  (61) 
saltbridge:GLU:85    0
saltbridge:GLU:85    0
Name: 60, dtype: object

>  <halogenbond:GLU:85>  (61) 
halogenbond:GLU:85    0
halogenbond:GLU:85    0
Name: 60, dtype: object

>  <hbond:ALA:86>  (61) 
hbond:ALA:86    0
hbond:ALA:86    0
Name: 60, dtype: object

>  <halogenbond:ALA:86>  (61) 
halogenbond:ALA:86    0
halogenbond:ALA:86    0
Name: 60, dtype: object

>  <hydroph_interaction:ALA:86>  (61) 
hydroph_interaction:ALA:86    0
hydroph_interaction:ALA:86    0
Name: 60, dtype: object

>  <hbond:SER:87>  (61) 
hbond:SER:87    0
hbond:SER:87    0
Name: 60, dtype: object

>  <halogenbond:SER:87>  (61) 
halogenbond:SER:87    0
halogenbond:SER:87    0
Name: 60, dtype: object

>  <hbond:GLU:88>  (61) 
hbond:GLU:88    0
hbond:GLU:88    0
Name: 60, dtype: object

>  <hydroph_interaction:GLU:88>  (61) 
hydroph_interaction:GLU:88    0
hydroph_interaction:GLU:88    0
Name: 60, dtype: object

>  <halogenbond:GLU:88>  (61) 
halogenbond:GLU:88    0
halogenbond:GLU:88    0
Name: 60, dtype: object

>  <saltbridge:GLU:88>  (61) 
saltbridge:GLU:88    0
saltbridge:GLU:88    0
Name: 60, dtype: object

>  <hydroph_interaction:TYR:89>  (61) 
hydroph_interaction:TYR:89    0
hydroph_interaction:TYR:89    0
Name: 60, dtype: object

>  <pistack:TYR:89>  (61) 
pistack:TYR:89    0
pistack:TYR:89    0
Name: 60, dtype: object

>  <hbond:TYR:89>  (61) 
hbond:TYR:89    0
hbond:TYR:89    0
Name: 60, dtype: object

>  <halogenbond:TYR:89>  (61) 
halogenbond:TYR:89    0
halogenbond:TYR:89    0
Name: 60, dtype: object

>  <hbond:TYR:90>  (61) 
hbond:TYR:90    0
hbond:TYR:90    0
Name: 60, dtype: object

>  <hydroph_interaction:TYR:90>  (61) 
hydroph_interaction:TYR:90    0
hydroph_interaction:TYR:90    0
Name: 60, dtype: object

>  <pistack:TYR:90>  (61) 
pistack:TYR:90    0
pistack:TYR:90    0
Name: 60, dtype: object

>  <halogenbond:TYR:90>  (61) 
halogenbond:TYR:90    0
halogenbond:TYR:90    0
Name: 60, dtype: object

>  <pication:TYR:90>  (61) 
pication:TYR:90    0
pication:TYR:90    0
Name: 60, dtype: object

>  <hydroph_interaction:PRO:91>  (61) 
hydroph_interaction:PRO:91    0
hydroph_interaction:PRO:91    0
Name: 60, dtype: object

>  <halogenbond:PRO:91>  (61) 
halogenbond:PRO:91    0
halogenbond:PRO:91    0
Name: 60, dtype: object

>  <hbond:PRO:91>  (61) 
hbond:PRO:91    0
hbond:PRO:91    0
Name: 60, dtype: object

>  <hydroph_interaction:ALA:92>  (61) 
hydroph_interaction:ALA:92    0
hydroph_interaction:ALA:92    0
Name: 60, dtype: object

>  <hbond:ARG:93>  (61) 
hbond:ARG:93    0
hbond:ARG:93    0
Name: 60, dtype: object

>  <pication:ARG:93>  (61) 
pication:ARG:93    0
pication:ARG:93    0
Name: 60, dtype: object

>  <saltbridge:ARG:93>  (61) 
saltbridge:ARG:93    0
saltbridge:ARG:93    0
Name: 60, dtype: object

>  <hydroph_interaction:ARG:93>  (61) 
hydroph_interaction:ARG:93    0
hydroph_interaction:ARG:93    0
Name: 60, dtype: object

>  <halogenbond:ARG:93>  (61) 
halogenbond:ARG:93    0
halogenbond:ARG:93    0
Name: 60, dtype: object

>  <hydroph_interaction:TYR:94>  (61) 
hydroph_interaction:TYR:94    0
hydroph_interaction:TYR:94    0
Name: 60, dtype: object

>  <hbond:TYR:94>  (61) 
hbond:TYR:94    0
hbond:TYR:94    0
Name: 60, dtype: object

>  <halogenbond:GLN:95>  (61) 
halogenbond:GLN:95    0
halogenbond:GLN:95    0
Name: 60, dtype: object

>  <hbond:GLN:95>  (61) 
hbond:GLN:95    0
hbond:GLN:95    0
Name: 60, dtype: object

>  <hydroph_interaction:GLN:95>  (61) 
hydroph_interaction:GLN:95    0
hydroph_interaction:GLN:95    0
Name: 60, dtype: object

>  <hbond:SER:96>  (61) 
hbond:SER:96    0
hbond:SER:96    0
Name: 60, dtype: object

>  <hydroph_interaction:LEU:98>  (61) 
hydroph_interaction:LEU:98    0
hydroph_interaction:LEU:98    0
Name: 60, dtype: object

>  <hbond:LEU:98>  (61) 
hbond:LEU:98    0
hbond:LEU:98    0
Name: 60, dtype: object

>  <hbond:MET:99>  (61) 
hbond:MET:99    0
hbond:MET:99    0
Name: 60, dtype: object

>  <hydroph_interaction:MET:99>  (61) 
hydroph_interaction:MET:99    0
hydroph_interaction:MET:99    0
Name: 60, dtype: object

>  <halogenbond:MET:99>  (61) 
halogenbond:MET:99    0
halogenbond:MET:99    0
Name: 60, dtype: object

>  <hydroph_interaction:LEU:100>  (61) 
hydroph_interaction:LEU:100    0
hydroph_interaction:LEU:100    0
Name: 60, dtype: object

>  <hbond:LEU:100>  (61) 
hbond:LEU:100    0
hbond:LEU:100    0
Name: 60, dtype: object

>  <hbond:ALA:101>  (61) 
hbond:ALA:101    0
hbond:ALA:101    0
Name: 60, dtype: object

>  <hydroph_interaction:ALA:101>  (61) 
hydroph_interaction:ALA:101    0
hydroph_interaction:ALA:101    0
Name: 60, dtype: object

>  <hydroph_interaction:VAL:102>  (61) 
hydroph_interaction:VAL:102    0
hydroph_interaction:VAL:102    0
Name: 60, dtype: object

>  <hbond:VAL:102>  (61) 
hbond:VAL:102    0
hbond:VAL:102    0
Name: 60, dtype: object

>  <hbond:GLY:103>  (61) 
hbond:GLY:103    0
hbond:GLY:103    0
Name: 60, dtype: object

>  <halogenbond:GLY:103>  (61) 
halogenbond:GLY:103    0
halogenbond:GLY:103    0
Name: 60, dtype: object

>  <hydroph_interaction:HIS:104>  (61) 
hydroph_interaction:HIS:104    0
hydroph_interaction:HIS:104    0
Name: 60, dtype: object

>  <hbond:HIS:104>  (61) 
hbond:HIS:104    0
hbond:HIS:104    0
Name: 60, dtype: object

>  <saltbridge:HIS:104>  (61) 
saltbridge:HIS:104    0
saltbridge:HIS:104    0
Name: 60, dtype: object

>  <pication:HIS:104>  (61) 
pication:HIS:104    0
pication:HIS:104    0
Name: 60, dtype: object

>  <pistack:HIS:104>  (61) 
pistack:HIS:104    0
pistack:HIS:104    0
Name: 60, dtype: object

>  <halogenbond:HIS:104>  (61) 
halogenbond:HIS:104    0
halogenbond:HIS:104    0
Name: 60, dtype: object

>  <hbond:SER:105>  (61) 
hbond:SER:105    0
hbond:SER:105    0
Name: 60, dtype: object

>  <halogenbond:SER:105>  (61) 
halogenbond:SER:105    0
halogenbond:SER:105    0
Name: 60, dtype: object

>  <hbond:GLU:106>  (61) 
hbond:GLU:106    0
hbond:GLU:106    0
Name: 60, dtype: object

>  <hydroph_interaction:GLU:106>  (61) 
hydroph_interaction:GLU:106    0
hydroph_interaction:GLU:106    0
Name: 60, dtype: object

>  <saltbridge:GLU:106>  (61) 
saltbridge:GLU:106    0
saltbridge:GLU:106    0
Name: 60, dtype: object

>  <halogenbond:GLU:106>  (61) 
halogenbond:GLU:106    0
halogenbond:GLU:106    0
Name: 60, dtype: object

>  <hydroph_interaction:PRO:107>  (61) 
hydroph_interaction:PRO:107    2
hydroph_interaction:PRO:107    2
Name: 60, dtype: object

>  <hbond:PRO:107>  (61) 
hbond:PRO:107    0
hbond:PRO:107    0
Name: 60, dtype: object

>  <halogenbond:PRO:107>  (61) 
halogenbond:PRO:107    0
halogenbond:PRO:107    0
Name: 60, dtype: object

>  <hbond:GLY:108>  (61) 
hbond:GLY:108    0
hbond:GLY:108    0
Name: 60, dtype: object

>  <halogenbond:GLY:108>  (61) 
halogenbond:GLY:108    0
halogenbond:GLY:108    0
Name: 60, dtype: object

>  <hbond:ASP:109>  (61) 
hbond:ASP:109    0
hbond:ASP:109    0
Name: 60, dtype: object

>  <hydroph_interaction:ASP:109>  (61) 
hydroph_interaction:ASP:109    0
hydroph_interaction:ASP:109    0
Name: 60, dtype: object

>  <saltbridge:ASP:109>  (61) 
saltbridge:ASP:109    0
saltbridge:ASP:109    0
Name: 60, dtype: object

>  <hbond:CYS:110>  (61) 
hbond:CYS:110    0
hbond:CYS:110    0
Name: 60, dtype: object

>  <halogenbond:CYS:110>  (61) 
halogenbond:CYS:110    0
halogenbond:CYS:110    0
Name: 60, dtype: object

>  <hbond:GLY:111>  (61) 
hbond:GLY:111    0
hbond:GLY:111    0
Name: 60, dtype: object

>  <hbond:GLY:112>  (61) 
hbond:GLY:112    0
hbond:GLY:112    0
Name: 60, dtype: object

>  <hbond:ILE:113>  (61) 
hbond:ILE:113    0
hbond:ILE:113    0
Name: 60, dtype: object

>  <hydroph_interaction:LEU:114>  (61) 
hydroph_interaction:LEU:114    0
hydroph_interaction:LEU:114    0
Name: 60, dtype: object

>  <hbond:LEU:114>  (61) 
hbond:LEU:114    0
hbond:LEU:114    0
Name: 60, dtype: object

>  <hydroph_interaction:ILE:123>  (61) 
hydroph_interaction:ILE:123    0
hydroph_interaction:ILE:123    0
Name: 60, dtype: object

>  <hbond:ILE:123>  (61) 
hbond:ILE:123    0
hbond:ILE:123    0
Name: 60, dtype: object

>  <hydroph_interaction:VAL:124>  (61) 
hydroph_interaction:VAL:124    0
hydroph_interaction:VAL:124    0
Name: 60, dtype: object

>  <hbond:VAL:124>  (61) 
hbond:VAL:124    0
hbond:VAL:124    0
Name: 60, dtype: object

>  <halogenbond:VAL:124>  (61) 
halogenbond:VAL:124    0
halogenbond:VAL:124    0
Name: 60, dtype: object

>  <hbond:SER:125>  (61) 
hbond:SER:125    0
hbond:SER:125    0
Name: 60, dtype: object

>  <halogenbond:SER:125>  (61) 
halogenbond:SER:125    0
halogenbond:SER:125    0
Name: 60, dtype: object

>  <hydroph_interaction:THR:126>  (61) 
hydroph_interaction:THR:126    0
hydroph_interaction:THR:126    0
Name: 60, dtype: object

>  <hbond:THR:126>  (61) 
hbond:THR:126    0
hbond:THR:126    0
Name: 60, dtype: object

>  <halogenbond:THR:126>  (61) 
halogenbond:THR:126    0
halogenbond:THR:126    0
Name: 60, dtype: object

>  <hbond:GLY:127>  (61) 
hbond:GLY:127    0
hbond:GLY:127    0
Name: 60, dtype: object

>  <halogenbond:GLY:127>  (61) 
halogenbond:GLY:127    0
halogenbond:GLY:127    0
Name: 60, dtype: object

>  <hydroph_interaction:GLY:127>  (61) 
hydroph_interaction:GLY:127    0
hydroph_interaction:GLY:127    0
Name: 60, dtype: object

>  <hbond:GLY:128>  (61) 
hbond:GLY:128    0
hbond:GLY:128    0
Name: 60, dtype: object

>  <halogenbond:GLY:128>  (61) 
halogenbond:GLY:128    0
halogenbond:GLY:128    0
Name: 60, dtype: object

>  <hydroph_interaction:GLY:128>  (61) 
hydroph_interaction:GLY:128    0
hydroph_interaction:GLY:128    0
Name: 60, dtype: object

>  <hbond:ASN:129>  (61) 
hbond:ASN:129    0
hbond:ASN:129    0
Name: 60, dtype: object

>  <hydroph_interaction:ASN:129>  (61) 
hydroph_interaction:ASN:129    0
hydroph_interaction:ASN:129    0
Name: 60, dtype: object

>  <halogenbond:ASN:129>  (61) 
halogenbond:ASN:129    0
halogenbond:ASN:129    0
Name: 60, dtype: object

>  <hbond:GLY:130>  (61) 
hbond:GLY:130    0
hbond:GLY:130    0
Name: 60, dtype: object

>  <hydroph_interaction:LEU:131>  (61) 
hydroph_interaction:LEU:131    0
hydroph_interaction:LEU:131    0
Name: 60, dtype: object

>  <hbond:LEU:131>  (61) 
hbond:LEU:131    0
hbond:LEU:131    0
Name: 60, dtype: object

>  <halogenbond:LEU:131>  (61) 
halogenbond:LEU:131    0
halogenbond:LEU:131    0
Name: 60, dtype: object

>  <hydroph_interaction:VAL:132>  (61) 
hydroph_interaction:VAL:132    0
hydroph_interaction:VAL:132    0
Name: 60, dtype: object

>  <hbond:VAL:132>  (61) 
hbond:VAL:132    0
hbond:VAL:132    0
Name: 60, dtype: object

>  <hbond:GLY:133>  (61) 
hbond:GLY:133    0
hbond:GLY:133    0
Name: 60, dtype: object

>  <halogenbond:GLY:133>  (61) 
halogenbond:GLY:133    0
halogenbond:GLY:133    0
Name: 60, dtype: object

>  <hydroph_interaction:PHE:134>  (61) 
hydroph_interaction:PHE:134    0
hydroph_interaction:PHE:134    0
Name: 60, dtype: object

>  <hbond:PHE:134>  (61) 
hbond:PHE:134    0
hbond:PHE:134    0
Name: 60, dtype: object

>  <pistack:PHE:134>  (61) 
pistack:PHE:134    0
pistack:PHE:134    0
Name: 60, dtype: object

>  <pication:PHE:134>  (61) 
pication:PHE:134    0
pication:PHE:134    0
Name: 60, dtype: object

>  <hydroph_interaction:ALA:135>  (61) 
hydroph_interaction:ALA:135    0
hydroph_interaction:ALA:135    0
Name: 60, dtype: object

>  <hbond:ALA:135>  (61) 
hbond:ALA:135    0
hbond:ALA:135    0
Name: 60, dtype: object

$$$$
PV_003649019319
     RDKit          3D

 25 26  0  0  0  0  0  0  0  0999 V2000
   12.1730   15.2930   21.9990 C   0  0  0  0  0  0  0  0  0  0  0  0
   11.4360   14.2050   22.7680 C   0  0  0  0  0  0  0  0  0  0  0  0
   11.8670   14.0770   24.0640 C   0  0  0  0  0  0  0  0  0  0  0  0
   10.4600   13.4240   22.2810 C   0  0  0  0  0  0  0  0  0  0  0  0
    9.7610   12.3550   23.0340 C   0  0  0  0  0  0  0  0  0  0  0  0
   10.1050   11.0220   22.8700 C   0  0  0  0  0  0  0  0  0  0  0  0
    9.4180    9.9710   23.6240 C   0  0  0  0  0  0  0  0  0  0  0  0
    8.3360   10.3110   24.5830 C   0  0  0  0  0  0  0  0  0  0  0  0
    8.0480   11.6650   24.6860 C   0  0  0  0  0  0  0  0  0  0  0  0
    8.7320   12.6450   23.9360 C   0  0  0  0  0  0  0  0  0  0  0  0
    8.1620   13.8360   24.2980 N   0  0  0  0  0  0  0  0  0  0  0  0
    7.1470   13.6970   25.2590 N   0  0  0  0  0  0  0  0  0  0  0  0
    7.1120   12.3820   25.4610 C   0  0  0  0  0  0  0  0  0  0  0  0
   12.3860   16.1420   22.6620 H   0  0  0  0  0  0  0  0  0  0  0  0
   13.1320   14.9270   21.6240 H   0  0  0  0  0  0  0  0  0  0  0  0
   11.5870   15.6170   21.1310 H   0  0  0  0  0  0  0  0  0  0  0  0
   11.1210   13.9260   24.8310 H   0  0  0  0  0  0  0  0  0  0  0  0
   12.4250   14.9780   24.3430 H   0  0  0  0  0  0  0  0  0  0  0  0
   12.5580   13.2280   24.1220 H   0  0  0  0  0  0  0  0  0  0  0  0
   10.1290   13.5490   21.2570 H   0  0  0  0  0  0  0  0  0  0  0  0
   10.9010   10.8360   22.1570 H   0  0  0  0  0  0  0  0  0  0  0  0
    9.7770    8.9690   23.4130 H   0  0  0  0  0  0  0  0  0  0  0  0
    7.8630    9.4940   25.1160 H   0  0  0  0  0  0  0  0  0  0  0  0
    8.3840   14.7740   23.9510 H   0  0  0  0  0  0  0  0  0  0  0  0
    6.3970   11.9860   26.1700 H   0  0  0  0  0  0  0  0  0  0  0  0
  1  2  1  0
  2  3  1  0
  2  4  2  3
  4  5  1  0
  5  6  2  0
  6  7  1  0
  7  8  2  0
  8  9  1  0
  9 10  2  0
 10 11  1  0
 11 12  1  0
 12 13  2  0
 10  5  1  0
 13  9  1  0
  1 14  1  0
  1 15  1  0
  1 16  1  0
  3 17  1  0
  3 18  1  0
  3 19  1  0
  4 20  1  0
  6 21  1  0
  7 22  1  0
  8 23  1  0
 11 24  1  0
 13 25  1  0
A    1
 C1 
A    2
 C2 
A    3
 C3 
A    4
 C4 
A    5
 C5 
A    6
 C6 
A    7
 C7 
A    8
 C8 
A    9
 C9 
A   10
 C10
A   11
 N1 
A   12
 N2 
A   13
 C11
A   14
 H1 
A   15
 H2 
A   16
 H3 
A   17
 H4 
A   18
 H5 
A   19
 H6 
A   20
 H7 
A   21
 H8 
A   22
 H9 
A   23
 H10
A   24
 H11
A   25
 H12
M  END
>  <ref_pdb>  (62) 
x0310_0A

>  <ref_mols>  (62) 
x0554_0A,x0739_0A

>  <original SMILES>  (62) 
CC(C)=Cc1cccc2cn[nH]c12

>  <rationale>  (62) 
info hydroph_interaction:P107; 

>  <intxn_cluster>  (62) 
208

>  <intxn_cluster_rank>  (62) 
283

>  <N_interactions>  (62) 
1

>  <∆∆G>  (62) 
-9.663887

>  <$/mg>  (62) 
163.0

>  <comRMSD>  (62) 
0.778873

>  <N_rotatable_bonds>  (62) 
3

>  <hbond:SER:7>  (62) 
hbond:SER:7    0
hbond:SER:7    0
Name: 61, dtype: object

>  <halogenbond:SER:7>  (62) 
halogenbond:SER:7    0
halogenbond:SER:7    0
Name: 61, dtype: object

>  <hbond:GLY:8>  (62) 
hbond:GLY:8    0
hbond:GLY:8    0
Name: 61, dtype: object

>  <hydroph_interaction:ASN:19>  (62) 
hydroph_interaction:ASN:19    0
hydroph_interaction:ASN:19    0
Name: 61, dtype: object

>  <hbond:ASN:19>  (62) 
hbond:ASN:19    0
hbond:ASN:19    0
Name: 61, dtype: object

>  <halogenbond:ASN:19>  (62) 
halogenbond:ASN:19    0
halogenbond:ASN:19    0
Name: 61, dtype: object

>  <hbond:ARG:20>  (62) 
hbond:ARG:20    0
hbond:ARG:20    0
Name: 61, dtype: object

>  <hydroph_interaction:ARG:20>  (62) 
hydroph_interaction:ARG:20    0
hydroph_interaction:ARG:20    0
Name: 61, dtype: object

>  <saltbridge:ARG:20>  (62) 
saltbridge:ARG:20    0
saltbridge:ARG:20    0
Name: 61, dtype: object

>  <halogenbond:ARG:20>  (62) 
halogenbond:ARG:20    0
halogenbond:ARG:20    0
Name: 61, dtype: object

>  <pication:ARG:20>  (62) 
pication:ARG:20    0
pication:ARG:20    0
Name: 61, dtype: object

>  <hbond:HIS:21>  (62) 
hbond:HIS:21    0
hbond:HIS:21    0
Name: 61, dtype: object

>  <hydroph_interaction:HIS:21>  (62) 
hydroph_interaction:HIS:21    0
hydroph_interaction:HIS:21    0
Name: 61, dtype: object

>  <saltbridge:HIS:21>  (62) 
saltbridge:HIS:21    0
saltbridge:HIS:21    0
Name: 61, dtype: object

>  <pistack:HIS:21>  (62) 
pistack:HIS:21    0
pistack:HIS:21    0
Name: 61, dtype: object

>  <pication:HIS:21>  (62) 
pication:HIS:21    0
pication:HIS:21    0
Name: 61, dtype: object

>  <halogenbond:HIS:21>  (62) 
halogenbond:HIS:21    0
halogenbond:HIS:21    0
Name: 61, dtype: object

>  <hydroph_interaction:LEU:22>  (62) 
hydroph_interaction:LEU:22    0
hydroph_interaction:LEU:22    0
Name: 61, dtype: object

>  <hbond:LEU:22>  (62) 
hbond:LEU:22    0
hbond:LEU:22    0
Name: 61, dtype: object

>  <hydroph_interaction:TRP:28>  (62) 
hydroph_interaction:TRP:28    0
hydroph_interaction:TRP:28    0
Name: 61, dtype: object

>  <hbond:SER:36>  (62) 
hbond:SER:36    0
hbond:SER:36    0
Name: 61, dtype: object

>  <halogenbond:SER:36>  (62) 
halogenbond:SER:36    0
halogenbond:SER:36    0
Name: 61, dtype: object

>  <hbond:ARG:38>  (62) 
hbond:ARG:38    0
hbond:ARG:38    0
Name: 61, dtype: object

>  <halogenbond:ARG:38>  (62) 
halogenbond:ARG:38    0
halogenbond:ARG:38    0
Name: 61, dtype: object

>  <hbond:ASP:39>  (62) 
hbond:ASP:39    0
hbond:ASP:39    0
Name: 61, dtype: object

>  <saltbridge:ASP:39>  (62) 
saltbridge:ASP:39    0
saltbridge:ASP:39    0
Name: 61, dtype: object

>  <hydroph_interaction:ASP:39>  (62) 
hydroph_interaction:ASP:39    0
hydroph_interaction:ASP:39    0
Name: 61, dtype: object

>  <halogenbond:ASP:39>  (62) 
halogenbond:ASP:39    0
halogenbond:ASP:39    0
Name: 61, dtype: object

>  <hydroph_interaction:LEU:40>  (62) 
hydroph_interaction:LEU:40    0
hydroph_interaction:LEU:40    0
Name: 61, dtype: object

>  <hydroph_interaction:TYR:63>  (62) 
hydroph_interaction:TYR:63    0
hydroph_interaction:TYR:63    0
Name: 61, dtype: object

>  <pistack:TYR:63>  (62) 
pistack:TYR:63    0
pistack:TYR:63    0
Name: 61, dtype: object

>  <hbond:TYR:63>  (62) 
hbond:TYR:63    0
hbond:TYR:63    0
Name: 61, dtype: object

>  <hbond:TYR:64>  (62) 
hbond:TYR:64    0
hbond:TYR:64    0
Name: 61, dtype: object

>  <halogenbond:TYR:64>  (62) 
halogenbond:TYR:64    0
halogenbond:TYR:64    0
Name: 61, dtype: object

>  <hydroph_interaction:TYR:64>  (62) 
hydroph_interaction:TYR:64    0
hydroph_interaction:TYR:64    0
Name: 61, dtype: object

>  <hbond:CYS:65>  (62) 
hbond:CYS:65    0
hbond:CYS:65    0
Name: 61, dtype: object

>  <halogenbond:CYS:65>  (62) 
halogenbond:CYS:65    0
halogenbond:CYS:65    0
Name: 61, dtype: object

>  <hbond:SER:66>  (62) 
hbond:SER:66    0
hbond:SER:66    0
Name: 61, dtype: object

>  <hbond:SER:67>  (62) 
hbond:SER:67    0
hbond:SER:67    0
Name: 61, dtype: object

>  <halogenbond:SER:67>  (62) 
halogenbond:SER:67    0
halogenbond:SER:67    0
Name: 61, dtype: object

>  <hydroph_interaction:ARG:68>  (62) 
hydroph_interaction:ARG:68    0
hydroph_interaction:ARG:68    0
Name: 61, dtype: object

>  <hbond:ARG:68>  (62) 
hbond:ARG:68    0
hbond:ARG:68    0
Name: 61, dtype: object

>  <saltbridge:ARG:68>  (62) 
saltbridge:ARG:68    0
saltbridge:ARG:68    0
Name: 61, dtype: object

>  <pication:ARG:68>  (62) 
pication:ARG:68    0
pication:ARG:68    0
Name: 61, dtype: object

>  <hydroph_interaction:TYR:72>  (62) 
hydroph_interaction:TYR:72    0
hydroph_interaction:TYR:72    0
Name: 61, dtype: object

>  <hydroph_interaction:VAL:74>  (62) 
hydroph_interaction:VAL:74    0
hydroph_interaction:VAL:74    0
Name: 61, dtype: object

>  <hydroph_interaction:PHE:76>  (62) 
hydroph_interaction:PHE:76    0
hydroph_interaction:PHE:76    0
Name: 61, dtype: object

>  <hbond:SER:77>  (62) 
hbond:SER:77    0
hbond:SER:77    0
Name: 61, dtype: object

>  <hbond:SER:80>  (62) 
hbond:SER:80    0
hbond:SER:80    0
Name: 61, dtype: object

>  <hbond:LEU:81>  (62) 
hbond:LEU:81    0
hbond:LEU:81    0
Name: 61, dtype: object

>  <halogenbond:LEU:81>  (62) 
halogenbond:LEU:81    0
halogenbond:LEU:81    0
Name: 61, dtype: object

>  <hydroph_interaction:LEU:81>  (62) 
hydroph_interaction:LEU:81    0
hydroph_interaction:LEU:81    0
Name: 61, dtype: object

>  <hydroph_interaction:ILE:82>  (62) 
hydroph_interaction:ILE:82    0
hydroph_interaction:ILE:82    0
Name: 61, dtype: object

>  <hbond:ILE:82>  (62) 
hbond:ILE:82    0
hbond:ILE:82    0
Name: 61, dtype: object

>  <hydroph_interaction:PHE:83>  (62) 
hydroph_interaction:PHE:83    0
hydroph_interaction:PHE:83    0
Name: 61, dtype: object

>  <hbond:PHE:83>  (62) 
hbond:PHE:83    0
hbond:PHE:83    0
Name: 61, dtype: object

>  <halogenbond:PHE:83>  (62) 
halogenbond:PHE:83    0
halogenbond:PHE:83    0
Name: 61, dtype: object

>  <pistack:PHE:83>  (62) 
pistack:PHE:83    0
pistack:PHE:83    0
Name: 61, dtype: object

>  <hydroph_interaction:VAL:84>  (62) 
hydroph_interaction:VAL:84    0
hydroph_interaction:VAL:84    0
Name: 61, dtype: object

>  <hbond:VAL:84>  (62) 
hbond:VAL:84    0
hbond:VAL:84    0
Name: 61, dtype: object

>  <halogenbond:VAL:84>  (62) 
halogenbond:VAL:84    0
halogenbond:VAL:84    0
Name: 61, dtype: object

>  <hydroph_interaction:GLU:85>  (62) 
hydroph_interaction:GLU:85    0
hydroph_interaction:GLU:85    0
Name: 61, dtype: object

>  <hbond:GLU:85>  (62) 
hbond:GLU:85    0
hbond:GLU:85    0
Name: 61, dtype: object

>  <saltbridge:GLU:85>  (62) 
saltbridge:GLU:85    0
saltbridge:GLU:85    0
Name: 61, dtype: object

>  <halogenbond:GLU:85>  (62) 
halogenbond:GLU:85    0
halogenbond:GLU:85    0
Name: 61, dtype: object

>  <hbond:ALA:86>  (62) 
hbond:ALA:86    0
hbond:ALA:86    0
Name: 61, dtype: object

>  <halogenbond:ALA:86>  (62) 
halogenbond:ALA:86    0
halogenbond:ALA:86    0
Name: 61, dtype: object

>  <hydroph_interaction:ALA:86>  (62) 
hydroph_interaction:ALA:86    0
hydroph_interaction:ALA:86    0
Name: 61, dtype: object

>  <hbond:SER:87>  (62) 
hbond:SER:87    0
hbond:SER:87    0
Name: 61, dtype: object

>  <halogenbond:SER:87>  (62) 
halogenbond:SER:87    0
halogenbond:SER:87    0
Name: 61, dtype: object

>  <hbond:GLU:88>  (62) 
hbond:GLU:88    0
hbond:GLU:88    0
Name: 61, dtype: object

>  <hydroph_interaction:GLU:88>  (62) 
hydroph_interaction:GLU:88    0
hydroph_interaction:GLU:88    0
Name: 61, dtype: object

>  <halogenbond:GLU:88>  (62) 
halogenbond:GLU:88    0
halogenbond:GLU:88    0
Name: 61, dtype: object

>  <saltbridge:GLU:88>  (62) 
saltbridge:GLU:88    0
saltbridge:GLU:88    0
Name: 61, dtype: object

>  <hydroph_interaction:TYR:89>  (62) 
hydroph_interaction:TYR:89    0
hydroph_interaction:TYR:89    0
Name: 61, dtype: object

>  <pistack:TYR:89>  (62) 
pistack:TYR:89    0
pistack:TYR:89    0
Name: 61, dtype: object

>  <hbond:TYR:89>  (62) 
hbond:TYR:89    0
hbond:TYR:89    0
Name: 61, dtype: object

>  <halogenbond:TYR:89>  (62) 
halogenbond:TYR:89    0
halogenbond:TYR:89    0
Name: 61, dtype: object

>  <hbond:TYR:90>  (62) 
hbond:TYR:90    0
hbond:TYR:90    0
Name: 61, dtype: object

>  <hydroph_interaction:TYR:90>  (62) 
hydroph_interaction:TYR:90    0
hydroph_interaction:TYR:90    0
Name: 61, dtype: object

>  <pistack:TYR:90>  (62) 
pistack:TYR:90    0
pistack:TYR:90    0
Name: 61, dtype: object

>  <halogenbond:TYR:90>  (62) 
halogenbond:TYR:90    0
halogenbond:TYR:90    0
Name: 61, dtype: object

>  <pication:TYR:90>  (62) 
pication:TYR:90    0
pication:TYR:90    0
Name: 61, dtype: object

>  <hydroph_interaction:PRO:91>  (62) 
hydroph_interaction:PRO:91    0
hydroph_interaction:PRO:91    0
Name: 61, dtype: object

>  <halogenbond:PRO:91>  (62) 
halogenbond:PRO:91    0
halogenbond:PRO:91    0
Name: 61, dtype: object

>  <hbond:PRO:91>  (62) 
hbond:PRO:91    0
hbond:PRO:91    0
Name: 61, dtype: object

>  <hydroph_interaction:ALA:92>  (62) 
hydroph_interaction:ALA:92    0
hydroph_interaction:ALA:92    0
Name: 61, dtype: object

>  <hbond:ARG:93>  (62) 
hbond:ARG:93    0
hbond:ARG:93    0
Name: 61, dtype: object

>  <pication:ARG:93>  (62) 
pication:ARG:93    0
pication:ARG:93    0
Name: 61, dtype: object

>  <saltbridge:ARG:93>  (62) 
saltbridge:ARG:93    0
saltbridge:ARG:93    0
Name: 61, dtype: object

>  <hydroph_interaction:ARG:93>  (62) 
hydroph_interaction:ARG:93    0
hydroph_interaction:ARG:93    0
Name: 61, dtype: object

>  <halogenbond:ARG:93>  (62) 
halogenbond:ARG:93    0
halogenbond:ARG:93    0
Name: 61, dtype: object

>  <hydroph_interaction:TYR:94>  (62) 
hydroph_interaction:TYR:94    0
hydroph_interaction:TYR:94    0
Name: 61, dtype: object

>  <hbond:TYR:94>  (62) 
hbond:TYR:94    0
hbond:TYR:94    0
Name: 61, dtype: object

>  <halogenbond:GLN:95>  (62) 
halogenbond:GLN:95    0
halogenbond:GLN:95    0
Name: 61, dtype: object

>  <hbond:GLN:95>  (62) 
hbond:GLN:95    0
hbond:GLN:95    0
Name: 61, dtype: object

>  <hydroph_interaction:GLN:95>  (62) 
hydroph_interaction:GLN:95    0
hydroph_interaction:GLN:95    0
Name: 61, dtype: object

>  <hbond:SER:96>  (62) 
hbond:SER:96    0
hbond:SER:96    0
Name: 61, dtype: object

>  <hydroph_interaction:LEU:98>  (62) 
hydroph_interaction:LEU:98    0
hydroph_interaction:LEU:98    0
Name: 61, dtype: object

>  <hbond:LEU:98>  (62) 
hbond:LEU:98    0
hbond:LEU:98    0
Name: 61, dtype: object

>  <hbond:MET:99>  (62) 
hbond:MET:99    0
hbond:MET:99    0
Name: 61, dtype: object

>  <hydroph_interaction:MET:99>  (62) 
hydroph_interaction:MET:99    0
hydroph_interaction:MET:99    0
Name: 61, dtype: object

>  <halogenbond:MET:99>  (62) 
halogenbond:MET:99    0
halogenbond:MET:99    0
Name: 61, dtype: object

>  <hydroph_interaction:LEU:100>  (62) 
hydroph_interaction:LEU:100    0
hydroph_interaction:LEU:100    0
Name: 61, dtype: object

>  <hbond:LEU:100>  (62) 
hbond:LEU:100    0
hbond:LEU:100    0
Name: 61, dtype: object

>  <hbond:ALA:101>  (62) 
hbond:ALA:101    0
hbond:ALA:101    0
Name: 61, dtype: object

>  <hydroph_interaction:ALA:101>  (62) 
hydroph_interaction:ALA:101    0
hydroph_interaction:ALA:101    0
Name: 61, dtype: object

>  <hydroph_interaction:VAL:102>  (62) 
hydroph_interaction:VAL:102    0
hydroph_interaction:VAL:102    0
Name: 61, dtype: object

>  <hbond:VAL:102>  (62) 
hbond:VAL:102    0
hbond:VAL:102    0
Name: 61, dtype: object

>  <hbond:GLY:103>  (62) 
hbond:GLY:103    0
hbond:GLY:103    0
Name: 61, dtype: object

>  <halogenbond:GLY:103>  (62) 
halogenbond:GLY:103    0
halogenbond:GLY:103    0
Name: 61, dtype: object

>  <hydroph_interaction:HIS:104>  (62) 
hydroph_interaction:HIS:104    0
hydroph_interaction:HIS:104    0
Name: 61, dtype: object

>  <hbond:HIS:104>  (62) 
hbond:HIS:104    0
hbond:HIS:104    0
Name: 61, dtype: object

>  <saltbridge:HIS:104>  (62) 
saltbridge:HIS:104    0
saltbridge:HIS:104    0
Name: 61, dtype: object

>  <pication:HIS:104>  (62) 
pication:HIS:104    0
pication:HIS:104    0
Name: 61, dtype: object

>  <pistack:HIS:104>  (62) 
pistack:HIS:104    0
pistack:HIS:104    0
Name: 61, dtype: object

>  <halogenbond:HIS:104>  (62) 
halogenbond:HIS:104    0
halogenbond:HIS:104    0
Name: 61, dtype: object

>  <hbond:SER:105>  (62) 
hbond:SER:105    0
hbond:SER:105    0
Name: 61, dtype: object

>  <halogenbond:SER:105>  (62) 
halogenbond:SER:105    0
halogenbond:SER:105    0
Name: 61, dtype: object

>  <hbond:GLU:106>  (62) 
hbond:GLU:106    0
hbond:GLU:106    0
Name: 61, dtype: object

>  <hydroph_interaction:GLU:106>  (62) 
hydroph_interaction:GLU:106    0
hydroph_interaction:GLU:106    0
Name: 61, dtype: object

>  <saltbridge:GLU:106>  (62) 
saltbridge:GLU:106    0
saltbridge:GLU:106    0
Name: 61, dtype: object

>  <halogenbond:GLU:106>  (62) 
halogenbond:GLU:106    0
halogenbond:GLU:106    0
Name: 61, dtype: object

>  <hydroph_interaction:PRO:107>  (62) 
hydroph_interaction:PRO:107    1
hydroph_interaction:PRO:107    1
Name: 61, dtype: object

>  <hbond:PRO:107>  (62) 
hbond:PRO:107    0
hbond:PRO:107    0
Name: 61, dtype: object

>  <halogenbond:PRO:107>  (62) 
halogenbond:PRO:107    0
halogenbond:PRO:107    0
Name: 61, dtype: object

>  <hbond:GLY:108>  (62) 
hbond:GLY:108    0
hbond:GLY:108    0
Name: 61, dtype: object

>  <halogenbond:GLY:108>  (62) 
halogenbond:GLY:108    0
halogenbond:GLY:108    0
Name: 61, dtype: object

>  <hbond:ASP:109>  (62) 
hbond:ASP:109    0
hbond:ASP:109    0
Name: 61, dtype: object

>  <hydroph_interaction:ASP:109>  (62) 
hydroph_interaction:ASP:109    0
hydroph_interaction:ASP:109    0
Name: 61, dtype: object

>  <saltbridge:ASP:109>  (62) 
saltbridge:ASP:109    0
saltbridge:ASP:109    0
Name: 61, dtype: object

>  <hbond:CYS:110>  (62) 
hbond:CYS:110    0
hbond:CYS:110    0
Name: 61, dtype: object

>  <halogenbond:CYS:110>  (62) 
halogenbond:CYS:110    0
halogenbond:CYS:110    0
Name: 61, dtype: object

>  <hbond:GLY:111>  (62) 
hbond:GLY:111    0
hbond:GLY:111    0
Name: 61, dtype: object

>  <hbond:GLY:112>  (62) 
hbond:GLY:112    0
hbond:GLY:112    0
Name: 61, dtype: object

>  <hbond:ILE:113>  (62) 
hbond:ILE:113    0
hbond:ILE:113    0
Name: 61, dtype: object

>  <hydroph_interaction:LEU:114>  (62) 
hydroph_interaction:LEU:114    0
hydroph_interaction:LEU:114    0
Name: 61, dtype: object

>  <hbond:LEU:114>  (62) 
hbond:LEU:114    0
hbond:LEU:114    0
Name: 61, dtype: object

>  <hydroph_interaction:ILE:123>  (62) 
hydroph_interaction:ILE:123    0
hydroph_interaction:ILE:123    0
Name: 61, dtype: object

>  <hbond:ILE:123>  (62) 
hbond:ILE:123    0
hbond:ILE:123    0
Name: 61, dtype: object

>  <hydroph_interaction:VAL:124>  (62) 
hydroph_interaction:VAL:124    0
hydroph_interaction:VAL:124    0
Name: 61, dtype: object

>  <hbond:VAL:124>  (62) 
hbond:VAL:124    0
hbond:VAL:124    0
Name: 61, dtype: object

>  <halogenbond:VAL:124>  (62) 
halogenbond:VAL:124    0
halogenbond:VAL:124    0
Name: 61, dtype: object

>  <hbond:SER:125>  (62) 
hbond:SER:125    0
hbond:SER:125    0
Name: 61, dtype: object

>  <halogenbond:SER:125>  (62) 
halogenbond:SER:125    0
halogenbond:SER:125    0
Name: 61, dtype: object

>  <hydroph_interaction:THR:126>  (62) 
hydroph_interaction:THR:126    0
hydroph_interaction:THR:126    0
Name: 61, dtype: object

>  <hbond:THR:126>  (62) 
hbond:THR:126    0
hbond:THR:126    0
Name: 61, dtype: object

>  <halogenbond:THR:126>  (62) 
halogenbond:THR:126    0
halogenbond:THR:126    0
Name: 61, dtype: object

>  <hbond:GLY:127>  (62) 
hbond:GLY:127    0
hbond:GLY:127    0
Name: 61, dtype: object

>  <halogenbond:GLY:127>  (62) 
halogenbond:GLY:127    0
halogenbond:GLY:127    0
Name: 61, dtype: object

>  <hydroph_interaction:GLY:127>  (62) 
hydroph_interaction:GLY:127    0
hydroph_interaction:GLY:127    0
Name: 61, dtype: object

>  <hbond:GLY:128>  (62) 
hbond:GLY:128    0
hbond:GLY:128    0
Name: 61, dtype: object

>  <halogenbond:GLY:128>  (62) 
halogenbond:GLY:128    0
halogenbond:GLY:128    0
Name: 61, dtype: object

>  <hydroph_interaction:GLY:128>  (62) 
hydroph_interaction:GLY:128    0
hydroph_interaction:GLY:128    0
Name: 61, dtype: object

>  <hbond:ASN:129>  (62) 
hbond:ASN:129    0
hbond:ASN:129    0
Name: 61, dtype: object

>  <hydroph_interaction:ASN:129>  (62) 
hydroph_interaction:ASN:129    0
hydroph_interaction:ASN:129    0
Name: 61, dtype: object

>  <halogenbond:ASN:129>  (62) 
halogenbond:ASN:129    0
halogenbond:ASN:129    0
Name: 61, dtype: object

>  <hbond:GLY:130>  (62) 
hbond:GLY:130    0
hbond:GLY:130    0
Name: 61, dtype: object

>  <hydroph_interaction:LEU:131>  (62) 
hydroph_interaction:LEU:131    0
hydroph_interaction:LEU:131    0
Name: 61, dtype: object

>  <hbond:LEU:131>  (62) 
hbond:LEU:131    0
hbond:LEU:131    0
Name: 61, dtype: object

>  <halogenbond:LEU:131>  (62) 
halogenbond:LEU:131    0
halogenbond:LEU:131    0
Name: 61, dtype: object

>  <hydroph_interaction:VAL:132>  (62) 
hydroph_interaction:VAL:132    0
hydroph_interaction:VAL:132    0
Name: 61, dtype: object

>  <hbond:VAL:132>  (62) 
hbond:VAL:132    0
hbond:VAL:132    0
Name: 61, dtype: object

>  <hbond:GLY:133>  (62) 
hbond:GLY:133    0
hbond:GLY:133    0
Name: 61, dtype: object

>  <halogenbond:GLY:133>  (62) 
halogenbond:GLY:133    0
halogenbond:GLY:133    0
Name: 61, dtype: object

>  <hydroph_interaction:PHE:134>  (62) 
hydroph_interaction:PHE:134    0
hydroph_interaction:PHE:134    0
Name: 61, dtype: object

>  <hbond:PHE:134>  (62) 
hbond:PHE:134    0
hbond:PHE:134    0
Name: 61, dtype: object

>  <pistack:PHE:134>  (62) 
pistack:PHE:134    0
pistack:PHE:134    0
Name: 61, dtype: object

>  <pication:PHE:134>  (62) 
pication:PHE:134    0
pication:PHE:134    0
Name: 61, dtype: object

>  <hydroph_interaction:ALA:135>  (62) 
hydroph_interaction:ALA:135    0
hydroph_interaction:ALA:135    0
Name: 61, dtype: object

>  <hbond:ALA:135>  (62) 
hbond:ALA:135    0
hbond:ALA:135    0
Name: 61, dtype: object

$$$$
Z3789191781
     RDKit          3D

 38 39  0  0  0  0  0  0  0  0999 V2000
   10.1680    9.0900   22.5890 C   0  0  0  0  0  0  0  0  0  0  0  0
    9.6190   10.2560   23.3420 C   0  0  0  0  0  0  0  0  0  0  0  0
   10.1650   11.5220   23.2000 C   0  0  0  0  0  0  0  0  0  0  0  0
    9.6610   12.6150   23.9190 C   0  0  0  0  0  0  0  0  0  0  0  0
   10.3640   13.9270   23.7030 C   0  0  0  0  0  0  0  0  0  0  0  0
    8.5530   12.4410   24.8000 C   0  0  0  0  0  0  0  0  0  0  0  0
    8.0450   13.5500   25.5320 N   0  0  0  0  0  0  0  0  0  0  0  0
    7.4000   14.6790   25.0490 C   0  0  0  0  0  0  0  0  0  0  0  0
    7.0530   14.8520   23.8860 O   0  0  0  0  0  0  0  0  0  0  0  0
    7.1500   15.7560   26.1590 C   0  0  1  0  0  0  0  0  0  0  0  0
    6.1780   15.2620   27.2100 C   0  0  0  0  0  0  0  0  0  0  0  0
    6.7010   15.7430   28.5140 C   0  0  0  0  0  0  0  0  0  0  0  0
    7.9810   16.5090   28.2840 C   0  0  1  0  0  0  0  0  0  0  0  0
    8.9640   16.2010   29.3110 N   0  0  0  0  0  0  0  0  0  0  0  0
    8.4140   16.0310   27.0230 C   0  0  0  0  0  0  0  0  0  0  0  0
    7.9980   11.1610   24.9300 C   0  0  0  0  0  0  0  0  0  0  0  0
    6.8230   10.8390   25.8150 C   0  0  0  0  0  0  0  0  0  0  0  0
    8.5500   10.0940   24.2050 C   0  0  0  0  0  0  0  0  0  0  0  0
   10.8630    8.5080   23.2020 H   0  0  0  0  0  0  0  0  0  0  0  0
   10.7220    9.4300   21.7090 H   0  0  0  0  0  0  0  0  0  0  0  0
    9.3550    8.4450   22.2550 H   0  0  0  0  0  0  0  0  0  0  0  0
   11.0040   11.6640   22.5250 H   0  0  0  0  0  0  0  0  0  0  0  0
   11.4330   13.7560   23.5320 H   0  0  0  0  0  0  0  0  0  0  0  0
   10.2310   14.5770   24.5750 H   0  0  0  0  0  0  0  0  0  0  0  0
    9.9730   14.4560   22.8290 H   0  0  0  0  0  0  0  0  0  0  0  0
    7.8300   13.3520   26.4980 H   0  0  0  0  0  0  0  0  0  0  0  0
    6.8060   16.6940   25.7210 H   0  0  0  0  0  0  0  0  0  0  0  0
    5.2730   14.6750   27.0170 H   0  0  0  0  0  0  0  0  0  0  0  0
    6.2300   15.5650   29.4890 H   0  0  0  0  0  0  0  0  0  0  0  0
    7.8260   17.5900   28.2790 H   0  0  0  0  0  0  0  0  0  0  0  0
    8.6190   16.5030   30.2190 H   0  0  0  0  0  0  0  0  0  0  0  0
    9.8140   16.7450   29.1440 H   0  0  0  0  0  0  0  0  0  0  0  0
    9.0720   16.7560   26.5410 H   0  0  0  0  0  0  0  0  0  0  0  0
    8.9530   15.0850   27.1050 H   0  0  0  0  0  0  0  0  0  0  0  0
    6.0680   11.6270   25.7530 H   0  0  0  0  0  0  0  0  0  0  0  0
    6.3230    9.9330   25.4680 H   0  0  0  0  0  0  0  0  0  0  0  0
    7.1170   10.6800   26.8470 H   0  0  0  0  0  0  0  0  0  0  0  0
    8.1210    9.1070   24.3200 H   0  0  0  0  0  0  0  0  0  0  0  0
  1  2  1  0
  2  3  2  0
  3  4  1  0
  4  5  1  0
  4  6  2  0
  6  7  1  0
  7  8  1  0
  8  9  2  0
  8 10  1  0
 10 11  1  0
 11 12  2  0
 12 13  1  0
 13 14  1  0
 13 15  1  0
  6 16  1  0
 16 17  1  0
 16 18  2  0
 18  2  1  0
 15 10  1  0
  1 19  1  0
  1 20  1  0
  1 21  1  0
  3 22  1  0
  5 23  1  0
  5 24  1  0
  5 25  1  0
  7 26  1  0
 10 27  1  6
 11 28  1  0
 12 29  1  0
 13 30  1  6
 14 31  1  0
 14 32  1  0
 15 33  1  0
 15 34  1  0
 17 35  1  0
 17 36  1  0
 17 37  1  0
 18 38  1  0
A    1
 C1 
A    2
 C2 
A    3
 C3 
A    4
 C4 
A    5
 C5 
A    6
 C6 
A    7
 N1 
A    8
 C7 
A    9
 O1 
A   10
 C8 
A   11
 C9 
A   12
 C10
A   13
 C11
A   14
 N2 
A   15
 C12
A   16
 C13
A   17
 C14
A   18
 C15
A   19
 H1 
A   20
 H2 
A   21
 H3 
A   22
 H4 
A   23
 H5 
A   24
 H6 
A   25
 H7 
A   26
 H8 
A   27
 H9 
A   28
 H10
A   29
 H11
A   30
 H12
A   31
 H13
A   32
 H14
A   33
 H15
A   34
 H16
A   35
 H17
A   36
 H18
A   37
 H19
A   38
 H20
M  END
>  <ref_pdb>  (63) 
x0310_0A

>  <ref_mols>  (63) 
x0554_0A,x0812_0A,x0416_0A

>  <original SMILES>  (63) 
Cc1cc(C)c(NC(=O)[C@H]2C=C[C@@H](N)C2)c(C)c1

>  <rationale>  (63) 
info hbond:E88; hydroph_interaction:P107+V124; 

>  <intxn_cluster>  (63) 
103

>  <intxn_cluster_rank>  (63) 
287

>  <N_interactions>  (63) 
3

>  <∆∆G>  (63) 
-10.959143

>  <$/mg>  (63) 
163.0

>  <comRMSD>  (63) 
0.834421

>  <N_rotatable_bonds>  (63) 
6

>  <hbond:SER:7>  (63) 
hbond:SER:7    0
hbond:SER:7    0
Name: 62, dtype: object

>  <halogenbond:SER:7>  (63) 
halogenbond:SER:7    0
halogenbond:SER:7    0
Name: 62, dtype: object

>  <hbond:GLY:8>  (63) 
hbond:GLY:8    0
hbond:GLY:8    0
Name: 62, dtype: object

>  <hydroph_interaction:ASN:19>  (63) 
hydroph_interaction:ASN:19    0
hydroph_interaction:ASN:19    0
Name: 62, dtype: object

>  <hbond:ASN:19>  (63) 
hbond:ASN:19    0
hbond:ASN:19    0
Name: 62, dtype: object

>  <halogenbond:ASN:19>  (63) 
halogenbond:ASN:19    0
halogenbond:ASN:19    0
Name: 62, dtype: object

>  <hbond:ARG:20>  (63) 
hbond:ARG:20    0
hbond:ARG:20    0
Name: 62, dtype: object

>  <hydroph_interaction:ARG:20>  (63) 
hydroph_interaction:ARG:20    0
hydroph_interaction:ARG:20    0
Name: 62, dtype: object

>  <saltbridge:ARG:20>  (63) 
saltbridge:ARG:20    0
saltbridge:ARG:20    0
Name: 62, dtype: object

>  <halogenbond:ARG:20>  (63) 
halogenbond:ARG:20    0
halogenbond:ARG:20    0
Name: 62, dtype: object

>  <pication:ARG:20>  (63) 
pication:ARG:20    0
pication:ARG:20    0
Name: 62, dtype: object

>  <hbond:HIS:21>  (63) 
hbond:HIS:21    0
hbond:HIS:21    0
Name: 62, dtype: object

>  <hydroph_interaction:HIS:21>  (63) 
hydroph_interaction:HIS:21    0
hydroph_interaction:HIS:21    0
Name: 62, dtype: object

>  <saltbridge:HIS:21>  (63) 
saltbridge:HIS:21    0
saltbridge:HIS:21    0
Name: 62, dtype: object

>  <pistack:HIS:21>  (63) 
pistack:HIS:21    0
pistack:HIS:21    0
Name: 62, dtype: object

>  <pication:HIS:21>  (63) 
pication:HIS:21    0
pication:HIS:21    0
Name: 62, dtype: object

>  <halogenbond:HIS:21>  (63) 
halogenbond:HIS:21    0
halogenbond:HIS:21    0
Name: 62, dtype: object

>  <hydroph_interaction:LEU:22>  (63) 
hydroph_interaction:LEU:22    0
hydroph_interaction:LEU:22    0
Name: 62, dtype: object

>  <hbond:LEU:22>  (63) 
hbond:LEU:22    0
hbond:LEU:22    0
Name: 62, dtype: object

>  <hydroph_interaction:TRP:28>  (63) 
hydroph_interaction:TRP:28    0
hydroph_interaction:TRP:28    0
Name: 62, dtype: object

>  <hbond:SER:36>  (63) 
hbond:SER:36    0
hbond:SER:36    0
Name: 62, dtype: object

>  <halogenbond:SER:36>  (63) 
halogenbond:SER:36    0
halogenbond:SER:36    0
Name: 62, dtype: object

>  <hbond:ARG:38>  (63) 
hbond:ARG:38    0
hbond:ARG:38    0
Name: 62, dtype: object

>  <halogenbond:ARG:38>  (63) 
halogenbond:ARG:38    0
halogenbond:ARG:38    0
Name: 62, dtype: object

>  <hbond:ASP:39>  (63) 
hbond:ASP:39    0
hbond:ASP:39    0
Name: 62, dtype: object

>  <saltbridge:ASP:39>  (63) 
saltbridge:ASP:39    0
saltbridge:ASP:39    0
Name: 62, dtype: object

>  <hydroph_interaction:ASP:39>  (63) 
hydroph_interaction:ASP:39    0
hydroph_interaction:ASP:39    0
Name: 62, dtype: object

>  <halogenbond:ASP:39>  (63) 
halogenbond:ASP:39    0
halogenbond:ASP:39    0
Name: 62, dtype: object

>  <hydroph_interaction:LEU:40>  (63) 
hydroph_interaction:LEU:40    0
hydroph_interaction:LEU:40    0
Name: 62, dtype: object

>  <hydroph_interaction:TYR:63>  (63) 
hydroph_interaction:TYR:63    0
hydroph_interaction:TYR:63    0
Name: 62, dtype: object

>  <pistack:TYR:63>  (63) 
pistack:TYR:63    0
pistack:TYR:63    0
Name: 62, dtype: object

>  <hbond:TYR:63>  (63) 
hbond:TYR:63    0
hbond:TYR:63    0
Name: 62, dtype: object

>  <hbond:TYR:64>  (63) 
hbond:TYR:64    0
hbond:TYR:64    0
Name: 62, dtype: object

>  <halogenbond:TYR:64>  (63) 
halogenbond:TYR:64    0
halogenbond:TYR:64    0
Name: 62, dtype: object

>  <hydroph_interaction:TYR:64>  (63) 
hydroph_interaction:TYR:64    0
hydroph_interaction:TYR:64    0
Name: 62, dtype: object

>  <hbond:CYS:65>  (63) 
hbond:CYS:65    0
hbond:CYS:65    0
Name: 62, dtype: object

>  <halogenbond:CYS:65>  (63) 
halogenbond:CYS:65    0
halogenbond:CYS:65    0
Name: 62, dtype: object

>  <hbond:SER:66>  (63) 
hbond:SER:66    0
hbond:SER:66    0
Name: 62, dtype: object

>  <hbond:SER:67>  (63) 
hbond:SER:67    0
hbond:SER:67    0
Name: 62, dtype: object

>  <halogenbond:SER:67>  (63) 
halogenbond:SER:67    0
halogenbond:SER:67    0
Name: 62, dtype: object

>  <hydroph_interaction:ARG:68>  (63) 
hydroph_interaction:ARG:68    0
hydroph_interaction:ARG:68    0
Name: 62, dtype: object

>  <hbond:ARG:68>  (63) 
hbond:ARG:68    0
hbond:ARG:68    0
Name: 62, dtype: object

>  <saltbridge:ARG:68>  (63) 
saltbridge:ARG:68    0
saltbridge:ARG:68    0
Name: 62, dtype: object

>  <pication:ARG:68>  (63) 
pication:ARG:68    0
pication:ARG:68    0
Name: 62, dtype: object

>  <hydroph_interaction:TYR:72>  (63) 
hydroph_interaction:TYR:72    0
hydroph_interaction:TYR:72    0
Name: 62, dtype: object

>  <hydroph_interaction:VAL:74>  (63) 
hydroph_interaction:VAL:74    0
hydroph_interaction:VAL:74    0
Name: 62, dtype: object

>  <hydroph_interaction:PHE:76>  (63) 
hydroph_interaction:PHE:76    0
hydroph_interaction:PHE:76    0
Name: 62, dtype: object

>  <hbond:SER:77>  (63) 
hbond:SER:77    0
hbond:SER:77    0
Name: 62, dtype: object

>  <hbond:SER:80>  (63) 
hbond:SER:80    0
hbond:SER:80    0
Name: 62, dtype: object

>  <hbond:LEU:81>  (63) 
hbond:LEU:81    0
hbond:LEU:81    0
Name: 62, dtype: object

>  <halogenbond:LEU:81>  (63) 
halogenbond:LEU:81    0
halogenbond:LEU:81    0
Name: 62, dtype: object

>  <hydroph_interaction:LEU:81>  (63) 
hydroph_interaction:LEU:81    0
hydroph_interaction:LEU:81    0
Name: 62, dtype: object

>  <hydroph_interaction:ILE:82>  (63) 
hydroph_interaction:ILE:82    0
hydroph_interaction:ILE:82    0
Name: 62, dtype: object

>  <hbond:ILE:82>  (63) 
hbond:ILE:82    0
hbond:ILE:82    0
Name: 62, dtype: object

>  <hydroph_interaction:PHE:83>  (63) 
hydroph_interaction:PHE:83    0
hydroph_interaction:PHE:83    0
Name: 62, dtype: object

>  <hbond:PHE:83>  (63) 
hbond:PHE:83    0
hbond:PHE:83    0
Name: 62, dtype: object

>  <halogenbond:PHE:83>  (63) 
halogenbond:PHE:83    0
halogenbond:PHE:83    0
Name: 62, dtype: object

>  <pistack:PHE:83>  (63) 
pistack:PHE:83    0
pistack:PHE:83    0
Name: 62, dtype: object

>  <hydroph_interaction:VAL:84>  (63) 
hydroph_interaction:VAL:84    0
hydroph_interaction:VAL:84    0
Name: 62, dtype: object

>  <hbond:VAL:84>  (63) 
hbond:VAL:84    0
hbond:VAL:84    0
Name: 62, dtype: object

>  <halogenbond:VAL:84>  (63) 
halogenbond:VAL:84    0
halogenbond:VAL:84    0
Name: 62, dtype: object

>  <hydroph_interaction:GLU:85>  (63) 
hydroph_interaction:GLU:85    0
hydroph_interaction:GLU:85    0
Name: 62, dtype: object

>  <hbond:GLU:85>  (63) 
hbond:GLU:85    0
hbond:GLU:85    0
Name: 62, dtype: object

>  <saltbridge:GLU:85>  (63) 
saltbridge:GLU:85    0
saltbridge:GLU:85    0
Name: 62, dtype: object

>  <halogenbond:GLU:85>  (63) 
halogenbond:GLU:85    0
halogenbond:GLU:85    0
Name: 62, dtype: object

>  <hbond:ALA:86>  (63) 
hbond:ALA:86    0
hbond:ALA:86    0
Name: 62, dtype: object

>  <halogenbond:ALA:86>  (63) 
halogenbond:ALA:86    0
halogenbond:ALA:86    0
Name: 62, dtype: object

>  <hydroph_interaction:ALA:86>  (63) 
hydroph_interaction:ALA:86    0
hydroph_interaction:ALA:86    0
Name: 62, dtype: object

>  <hbond:SER:87>  (63) 
hbond:SER:87    0
hbond:SER:87    0
Name: 62, dtype: object

>  <halogenbond:SER:87>  (63) 
halogenbond:SER:87    0
halogenbond:SER:87    0
Name: 62, dtype: object

>  <hbond:GLU:88>  (63) 
hbond:GLU:88    1
hbond:GLU:88    1
Name: 62, dtype: object

>  <hydroph_interaction:GLU:88>  (63) 
hydroph_interaction:GLU:88    0
hydroph_interaction:GLU:88    0
Name: 62, dtype: object

>  <halogenbond:GLU:88>  (63) 
halogenbond:GLU:88    0
halogenbond:GLU:88    0
Name: 62, dtype: object

>  <saltbridge:GLU:88>  (63) 
saltbridge:GLU:88    0
saltbridge:GLU:88    0
Name: 62, dtype: object

>  <hydroph_interaction:TYR:89>  (63) 
hydroph_interaction:TYR:89    0
hydroph_interaction:TYR:89    0
Name: 62, dtype: object

>  <pistack:TYR:89>  (63) 
pistack:TYR:89    0
pistack:TYR:89    0
Name: 62, dtype: object

>  <hbond:TYR:89>  (63) 
hbond:TYR:89    0
hbond:TYR:89    0
Name: 62, dtype: object

>  <halogenbond:TYR:89>  (63) 
halogenbond:TYR:89    0
halogenbond:TYR:89    0
Name: 62, dtype: object

>  <hbond:TYR:90>  (63) 
hbond:TYR:90    0
hbond:TYR:90    0
Name: 62, dtype: object

>  <hydroph_interaction:TYR:90>  (63) 
hydroph_interaction:TYR:90    0
hydroph_interaction:TYR:90    0
Name: 62, dtype: object

>  <pistack:TYR:90>  (63) 
pistack:TYR:90    0
pistack:TYR:90    0
Name: 62, dtype: object

>  <halogenbond:TYR:90>  (63) 
halogenbond:TYR:90    0
halogenbond:TYR:90    0
Name: 62, dtype: object

>  <pication:TYR:90>  (63) 
pication:TYR:90    0
pication:TYR:90    0
Name: 62, dtype: object

>  <hydroph_interaction:PRO:91>  (63) 
hydroph_interaction:PRO:91    0
hydroph_interaction:PRO:91    0
Name: 62, dtype: object

>  <halogenbond:PRO:91>  (63) 
halogenbond:PRO:91    0
halogenbond:PRO:91    0
Name: 62, dtype: object

>  <hbond:PRO:91>  (63) 
hbond:PRO:91    0
hbond:PRO:91    0
Name: 62, dtype: object

>  <hydroph_interaction:ALA:92>  (63) 
hydroph_interaction:ALA:92    0
hydroph_interaction:ALA:92    0
Name: 62, dtype: object

>  <hbond:ARG:93>  (63) 
hbond:ARG:93    0
hbond:ARG:93    0
Name: 62, dtype: object

>  <pication:ARG:93>  (63) 
pication:ARG:93    0
pication:ARG:93    0
Name: 62, dtype: object

>  <saltbridge:ARG:93>  (63) 
saltbridge:ARG:93    0
saltbridge:ARG:93    0
Name: 62, dtype: object

>  <hydroph_interaction:ARG:93>  (63) 
hydroph_interaction:ARG:93    0
hydroph_interaction:ARG:93    0
Name: 62, dtype: object

>  <halogenbond:ARG:93>  (63) 
halogenbond:ARG:93    0
halogenbond:ARG:93    0
Name: 62, dtype: object

>  <hydroph_interaction:TYR:94>  (63) 
hydroph_interaction:TYR:94    0
hydroph_interaction:TYR:94    0
Name: 62, dtype: object

>  <hbond:TYR:94>  (63) 
hbond:TYR:94    0
hbond:TYR:94    0
Name: 62, dtype: object

>  <halogenbond:GLN:95>  (63) 
halogenbond:GLN:95    0
halogenbond:GLN:95    0
Name: 62, dtype: object

>  <hbond:GLN:95>  (63) 
hbond:GLN:95    0
hbond:GLN:95    0
Name: 62, dtype: object

>  <hydroph_interaction:GLN:95>  (63) 
hydroph_interaction:GLN:95    0
hydroph_interaction:GLN:95    0
Name: 62, dtype: object

>  <hbond:SER:96>  (63) 
hbond:SER:96    0
hbond:SER:96    0
Name: 62, dtype: object

>  <hydroph_interaction:LEU:98>  (63) 
hydroph_interaction:LEU:98    0
hydroph_interaction:LEU:98    0
Name: 62, dtype: object

>  <hbond:LEU:98>  (63) 
hbond:LEU:98    0
hbond:LEU:98    0
Name: 62, dtype: object

>  <hbond:MET:99>  (63) 
hbond:MET:99    0
hbond:MET:99    0
Name: 62, dtype: object

>  <hydroph_interaction:MET:99>  (63) 
hydroph_interaction:MET:99    0
hydroph_interaction:MET:99    0
Name: 62, dtype: object

>  <halogenbond:MET:99>  (63) 
halogenbond:MET:99    0
halogenbond:MET:99    0
Name: 62, dtype: object

>  <hydroph_interaction:LEU:100>  (63) 
hydroph_interaction:LEU:100    0
hydroph_interaction:LEU:100    0
Name: 62, dtype: object

>  <hbond:LEU:100>  (63) 
hbond:LEU:100    0
hbond:LEU:100    0
Name: 62, dtype: object

>  <hbond:ALA:101>  (63) 
hbond:ALA:101    0
hbond:ALA:101    0
Name: 62, dtype: object

>  <hydroph_interaction:ALA:101>  (63) 
hydroph_interaction:ALA:101    0
hydroph_interaction:ALA:101    0
Name: 62, dtype: object

>  <hydroph_interaction:VAL:102>  (63) 
hydroph_interaction:VAL:102    0
hydroph_interaction:VAL:102    0
Name: 62, dtype: object

>  <hbond:VAL:102>  (63) 
hbond:VAL:102    0
hbond:VAL:102    0
Name: 62, dtype: object

>  <hbond:GLY:103>  (63) 
hbond:GLY:103    0
hbond:GLY:103    0
Name: 62, dtype: object

>  <halogenbond:GLY:103>  (63) 
halogenbond:GLY:103    0
halogenbond:GLY:103    0
Name: 62, dtype: object

>  <hydroph_interaction:HIS:104>  (63) 
hydroph_interaction:HIS:104    0
hydroph_interaction:HIS:104    0
Name: 62, dtype: object

>  <hbond:HIS:104>  (63) 
hbond:HIS:104    0
hbond:HIS:104    0
Name: 62, dtype: object

>  <saltbridge:HIS:104>  (63) 
saltbridge:HIS:104    0
saltbridge:HIS:104    0
Name: 62, dtype: object

>  <pication:HIS:104>  (63) 
pication:HIS:104    0
pication:HIS:104    0
Name: 62, dtype: object

>  <pistack:HIS:104>  (63) 
pistack:HIS:104    0
pistack:HIS:104    0
Name: 62, dtype: object

>  <halogenbond:HIS:104>  (63) 
halogenbond:HIS:104    0
halogenbond:HIS:104    0
Name: 62, dtype: object

>  <hbond:SER:105>  (63) 
hbond:SER:105    0
hbond:SER:105    0
Name: 62, dtype: object

>  <halogenbond:SER:105>  (63) 
halogenbond:SER:105    0
halogenbond:SER:105    0
Name: 62, dtype: object

>  <hbond:GLU:106>  (63) 
hbond:GLU:106    0
hbond:GLU:106    0
Name: 62, dtype: object

>  <hydroph_interaction:GLU:106>  (63) 
hydroph_interaction:GLU:106    0
hydroph_interaction:GLU:106    0
Name: 62, dtype: object

>  <saltbridge:GLU:106>  (63) 
saltbridge:GLU:106    0
saltbridge:GLU:106    0
Name: 62, dtype: object

>  <halogenbond:GLU:106>  (63) 
halogenbond:GLU:106    0
halogenbond:GLU:106    0
Name: 62, dtype: object

>  <hydroph_interaction:PRO:107>  (63) 
hydroph_interaction:PRO:107    1
hydroph_interaction:PRO:107    1
Name: 62, dtype: object

>  <hbond:PRO:107>  (63) 
hbond:PRO:107    0
hbond:PRO:107    0
Name: 62, dtype: object

>  <halogenbond:PRO:107>  (63) 
halogenbond:PRO:107    0
halogenbond:PRO:107    0
Name: 62, dtype: object

>  <hbond:GLY:108>  (63) 
hbond:GLY:108    0
hbond:GLY:108    0
Name: 62, dtype: object

>  <halogenbond:GLY:108>  (63) 
halogenbond:GLY:108    0
halogenbond:GLY:108    0
Name: 62, dtype: object

>  <hbond:ASP:109>  (63) 
hbond:ASP:109    0
hbond:ASP:109    0
Name: 62, dtype: object

>  <hydroph_interaction:ASP:109>  (63) 
hydroph_interaction:ASP:109    0
hydroph_interaction:ASP:109    0
Name: 62, dtype: object

>  <saltbridge:ASP:109>  (63) 
saltbridge:ASP:109    0
saltbridge:ASP:109    0
Name: 62, dtype: object

>  <hbond:CYS:110>  (63) 
hbond:CYS:110    0
hbond:CYS:110    0
Name: 62, dtype: object

>  <halogenbond:CYS:110>  (63) 
halogenbond:CYS:110    0
halogenbond:CYS:110    0
Name: 62, dtype: object

>  <hbond:GLY:111>  (63) 
hbond:GLY:111    0
hbond:GLY:111    0
Name: 62, dtype: object

>  <hbond:GLY:112>  (63) 
hbond:GLY:112    0
hbond:GLY:112    0
Name: 62, dtype: object

>  <hbond:ILE:113>  (63) 
hbond:ILE:113    0
hbond:ILE:113    0
Name: 62, dtype: object

>  <hydroph_interaction:LEU:114>  (63) 
hydroph_interaction:LEU:114    0
hydroph_interaction:LEU:114    0
Name: 62, dtype: object

>  <hbond:LEU:114>  (63) 
hbond:LEU:114    0
hbond:LEU:114    0
Name: 62, dtype: object

>  <hydroph_interaction:ILE:123>  (63) 
hydroph_interaction:ILE:123    0
hydroph_interaction:ILE:123    0
Name: 62, dtype: object

>  <hbond:ILE:123>  (63) 
hbond:ILE:123    0
hbond:ILE:123    0
Name: 62, dtype: object

>  <hydroph_interaction:VAL:124>  (63) 
hydroph_interaction:VAL:124    1
hydroph_interaction:VAL:124    1
Name: 62, dtype: object

>  <hbond:VAL:124>  (63) 
hbond:VAL:124    0
hbond:VAL:124    0
Name: 62, dtype: object

>  <halogenbond:VAL:124>  (63) 
halogenbond:VAL:124    0
halogenbond:VAL:124    0
Name: 62, dtype: object

>  <hbond:SER:125>  (63) 
hbond:SER:125    0
hbond:SER:125    0
Name: 62, dtype: object

>  <halogenbond:SER:125>  (63) 
halogenbond:SER:125    0
halogenbond:SER:125    0
Name: 62, dtype: object

>  <hydroph_interaction:THR:126>  (63) 
hydroph_interaction:THR:126    0
hydroph_interaction:THR:126    0
Name: 62, dtype: object

>  <hbond:THR:126>  (63) 
hbond:THR:126    0
hbond:THR:126    0
Name: 62, dtype: object

>  <halogenbond:THR:126>  (63) 
halogenbond:THR:126    0
halogenbond:THR:126    0
Name: 62, dtype: object

>  <hbond:GLY:127>  (63) 
hbond:GLY:127    0
hbond:GLY:127    0
Name: 62, dtype: object

>  <halogenbond:GLY:127>  (63) 
halogenbond:GLY:127    0
halogenbond:GLY:127    0
Name: 62, dtype: object

>  <hydroph_interaction:GLY:127>  (63) 
hydroph_interaction:GLY:127    0
hydroph_interaction:GLY:127    0
Name: 62, dtype: object

>  <hbond:GLY:128>  (63) 
hbond:GLY:128    0
hbond:GLY:128    0
Name: 62, dtype: object

>  <halogenbond:GLY:128>  (63) 
halogenbond:GLY:128    0
halogenbond:GLY:128    0
Name: 62, dtype: object

>  <hydroph_interaction:GLY:128>  (63) 
hydroph_interaction:GLY:128    0
hydroph_interaction:GLY:128    0
Name: 62, dtype: object

>  <hbond:ASN:129>  (63) 
hbond:ASN:129    0
hbond:ASN:129    0
Name: 62, dtype: object

>  <hydroph_interaction:ASN:129>  (63) 
hydroph_interaction:ASN:129    0
hydroph_interaction:ASN:129    0
Name: 62, dtype: object

>  <halogenbond:ASN:129>  (63) 
halogenbond:ASN:129    0
halogenbond:ASN:129    0
Name: 62, dtype: object

>  <hbond:GLY:130>  (63) 
hbond:GLY:130    0
hbond:GLY:130    0
Name: 62, dtype: object

>  <hydroph_interaction:LEU:131>  (63) 
hydroph_interaction:LEU:131    0
hydroph_interaction:LEU:131    0
Name: 62, dtype: object

>  <hbond:LEU:131>  (63) 
hbond:LEU:131    0
hbond:LEU:131    0
Name: 62, dtype: object

>  <halogenbond:LEU:131>  (63) 
halogenbond:LEU:131    0
halogenbond:LEU:131    0
Name: 62, dtype: object

>  <hydroph_interaction:VAL:132>  (63) 
hydroph_interaction:VAL:132    0
hydroph_interaction:VAL:132    0
Name: 62, dtype: object

>  <hbond:VAL:132>  (63) 
hbond:VAL:132    0
hbond:VAL:132    0
Name: 62, dtype: object

>  <hbond:GLY:133>  (63) 
hbond:GLY:133    0
hbond:GLY:133    0
Name: 62, dtype: object

>  <halogenbond:GLY:133>  (63) 
halogenbond:GLY:133    0
halogenbond:GLY:133    0
Name: 62, dtype: object

>  <hydroph_interaction:PHE:134>  (63) 
hydroph_interaction:PHE:134    0
hydroph_interaction:PHE:134    0
Name: 62, dtype: object

>  <hbond:PHE:134>  (63) 
hbond:PHE:134    0
hbond:PHE:134    0
Name: 62, dtype: object

>  <pistack:PHE:134>  (63) 
pistack:PHE:134    0
pistack:PHE:134    0
Name: 62, dtype: object

>  <pication:PHE:134>  (63) 
pication:PHE:134    0
pication:PHE:134    0
Name: 62, dtype: object

>  <hydroph_interaction:ALA:135>  (63) 
hydroph_interaction:ALA:135    0
hydroph_interaction:ALA:135    0
Name: 62, dtype: object

>  <hbond:ALA:135>  (63) 
hbond:ALA:135    0
hbond:ALA:135    0
Name: 62, dtype: object

$$$$
Z1500276157
     RDKit          3D

 22 23  0  0  0  0  0  0  0  0999 V2000
   12.3250   14.7200   22.0220 C   0  0  0  0  0  0  0  0  0  0  0  0
   11.3350   14.0580   22.9650 C   0  0  0  0  0  0  0  0  0  0  0  0
   11.2360   14.4140   24.1340 O   0  0  0  0  0  0  0  0  0  0  0  0
   10.6150   13.0580   22.3560 N   0  0  0  0  0  0  0  0  0  0  0  0
    9.9000   12.0650   23.0410 C   0  0  0  0  0  0  0  0  0  0  0  0
   10.1380   10.7170   22.8310 C   0  0  0  0  0  0  0  0  0  0  0  0
    9.4230    9.7790   23.5230 C   0  0  0  0  0  0  0  0  0  0  0  0
    8.4540   10.1520   24.4350 C   0  0  0  0  0  0  0  0  0  0  0  0
    8.1990   11.4840   24.6530 C   0  0  0  0  0  0  0  0  0  0  0  0
    8.9210   12.4440   23.9590 C   0  0  0  0  0  0  0  0  0  0  0  0
    8.4210   14.0330   24.4050 S   0  0  0  0  0  0  0  0  0  0  0  0
    7.2630   13.4430   25.4990 C   0  0  0  0  0  0  0  0  0  0  0  0
    7.2460   12.0730   25.5380 C   0  0  0  0  0  0  0  0  0  0  0  0
   13.2740   14.9080   22.5330 H   0  0  0  0  0  0  0  0  0  0  0  0
   11.9390   15.6790   21.6650 H   0  0  0  0  0  0  0  0  0  0  0  0
   12.5240   14.0610   21.1690 H   0  0  0  0  0  0  0  0  0  0  0  0
   10.8620   12.7550   21.4140 H   0  0  0  0  0  0  0  0  0  0  0  0
   10.8860   10.3970   22.1200 H   0  0  0  0  0  0  0  0  0  0  0  0
    9.6360    8.7540   23.3400 H   0  0  0  0  0  0  0  0  0  0  0  0
    7.8960    9.4020   24.9730 H   0  0  0  0  0  0  0  0  0  0  0  0
    6.6470   14.1260   26.0650 H   0  0  0  0  0  0  0  0  0  0  0  0
    6.5780   11.5070   26.1740 H   0  0  0  0  0  0  0  0  0  0  0  0
  1  2  1  0
  2  3  2  0
  2  4  1  0
  4  5  1  0
  5  6  2  0
  6  7  1  0
  7  8  2  0
  8  9  1  0
  9 10  2  0
 10 11  1  0
 11 12  1  0
 12 13  2  0
 10  5  1  0
 13  9  1  0
  1 14  1  0
  1 15  1  0
  1 16  1  0
  4 17  1  0
  6 18  1  0
  7 19  1  0
  8 20  1  0
 12 21  1  0
 13 22  1  0
A    1
 C1 
A    2
 C2 
A    3
 O1 
A    4
 N1 
A    5
 C3 
A    6
 C4 
A    7
 C5 
A    8
 C6 
A    9
 C7 
A   10
 C8 
A   11
 S1 
A   12
 C9 
A   13
 C10
A   14
 H1 
A   15
 H2 
A   16
 H3 
A   17
 H4 
A   18
 H5 
A   19
 H6 
A   20
 H7 
A   21
 H8 
A   22
 H9 
M  END
>  <ref_pdb>  (64) 
x0310_0A

>  <ref_mols>  (64) 
x0554_0A,x0739_0A

>  <original SMILES>  (64) 
CC(=O)Nc1cccc2ccsc12

>  <rationale>  (64) 
info hbond:S125; 

>  <intxn_cluster>  (64) 
208

>  <intxn_cluster_rank>  (64) 
334

>  <N_interactions>  (64) 
1

>  <∆∆G>  (64) 
-9.405419

>  <$/mg>  (64) 
nan

>  <comRMSD>  (64) 
0.689282

>  <N_rotatable_bonds>  (64) 
2

>  <hbond:SER:7>  (64) 
hbond:SER:7    0
hbond:SER:7    0
Name: 63, dtype: object

>  <halogenbond:SER:7>  (64) 
halogenbond:SER:7    0
halogenbond:SER:7    0
Name: 63, dtype: object

>  <hbond:GLY:8>  (64) 
hbond:GLY:8    0
hbond:GLY:8    0
Name: 63, dtype: object

>  <hydroph_interaction:ASN:19>  (64) 
hydroph_interaction:ASN:19    0
hydroph_interaction:ASN:19    0
Name: 63, dtype: object

>  <hbond:ASN:19>  (64) 
hbond:ASN:19    0
hbond:ASN:19    0
Name: 63, dtype: object

>  <halogenbond:ASN:19>  (64) 
halogenbond:ASN:19    0
halogenbond:ASN:19    0
Name: 63, dtype: object

>  <hbond:ARG:20>  (64) 
hbond:ARG:20    0
hbond:ARG:20    0
Name: 63, dtype: object

>  <hydroph_interaction:ARG:20>  (64) 
hydroph_interaction:ARG:20    0
hydroph_interaction:ARG:20    0
Name: 63, dtype: object

>  <saltbridge:ARG:20>  (64) 
saltbridge:ARG:20    0
saltbridge:ARG:20    0
Name: 63, dtype: object

>  <halogenbond:ARG:20>  (64) 
halogenbond:ARG:20    0
halogenbond:ARG:20    0
Name: 63, dtype: object

>  <pication:ARG:20>  (64) 
pication:ARG:20    0
pication:ARG:20    0
Name: 63, dtype: object

>  <hbond:HIS:21>  (64) 
hbond:HIS:21    0
hbond:HIS:21    0
Name: 63, dtype: object

>  <hydroph_interaction:HIS:21>  (64) 
hydroph_interaction:HIS:21    0
hydroph_interaction:HIS:21    0
Name: 63, dtype: object

>  <saltbridge:HIS:21>  (64) 
saltbridge:HIS:21    0
saltbridge:HIS:21    0
Name: 63, dtype: object

>  <pistack:HIS:21>  (64) 
pistack:HIS:21    0
pistack:HIS:21    0
Name: 63, dtype: object

>  <pication:HIS:21>  (64) 
pication:HIS:21    0
pication:HIS:21    0
Name: 63, dtype: object

>  <halogenbond:HIS:21>  (64) 
halogenbond:HIS:21    0
halogenbond:HIS:21    0
Name: 63, dtype: object

>  <hydroph_interaction:LEU:22>  (64) 
hydroph_interaction:LEU:22    0
hydroph_interaction:LEU:22    0
Name: 63, dtype: object

>  <hbond:LEU:22>  (64) 
hbond:LEU:22    0
hbond:LEU:22    0
Name: 63, dtype: object

>  <hydroph_interaction:TRP:28>  (64) 
hydroph_interaction:TRP:28    0
hydroph_interaction:TRP:28    0
Name: 63, dtype: object

>  <hbond:SER:36>  (64) 
hbond:SER:36    0
hbond:SER:36    0
Name: 63, dtype: object

>  <halogenbond:SER:36>  (64) 
halogenbond:SER:36    0
halogenbond:SER:36    0
Name: 63, dtype: object

>  <hbond:ARG:38>  (64) 
hbond:ARG:38    0
hbond:ARG:38    0
Name: 63, dtype: object

>  <halogenbond:ARG:38>  (64) 
halogenbond:ARG:38    0
halogenbond:ARG:38    0
Name: 63, dtype: object

>  <hbond:ASP:39>  (64) 
hbond:ASP:39    0
hbond:ASP:39    0
Name: 63, dtype: object

>  <saltbridge:ASP:39>  (64) 
saltbridge:ASP:39    0
saltbridge:ASP:39    0
Name: 63, dtype: object

>  <hydroph_interaction:ASP:39>  (64) 
hydroph_interaction:ASP:39    0
hydroph_interaction:ASP:39    0
Name: 63, dtype: object

>  <halogenbond:ASP:39>  (64) 
halogenbond:ASP:39    0
halogenbond:ASP:39    0
Name: 63, dtype: object

>  <hydroph_interaction:LEU:40>  (64) 
hydroph_interaction:LEU:40    0
hydroph_interaction:LEU:40    0
Name: 63, dtype: object

>  <hydroph_interaction:TYR:63>  (64) 
hydroph_interaction:TYR:63    0
hydroph_interaction:TYR:63    0
Name: 63, dtype: object

>  <pistack:TYR:63>  (64) 
pistack:TYR:63    0
pistack:TYR:63    0
Name: 63, dtype: object

>  <hbond:TYR:63>  (64) 
hbond:TYR:63    0
hbond:TYR:63    0
Name: 63, dtype: object

>  <hbond:TYR:64>  (64) 
hbond:TYR:64    0
hbond:TYR:64    0
Name: 63, dtype: object

>  <halogenbond:TYR:64>  (64) 
halogenbond:TYR:64    0
halogenbond:TYR:64    0
Name: 63, dtype: object

>  <hydroph_interaction:TYR:64>  (64) 
hydroph_interaction:TYR:64    0
hydroph_interaction:TYR:64    0
Name: 63, dtype: object

>  <hbond:CYS:65>  (64) 
hbond:CYS:65    0
hbond:CYS:65    0
Name: 63, dtype: object

>  <halogenbond:CYS:65>  (64) 
halogenbond:CYS:65    0
halogenbond:CYS:65    0
Name: 63, dtype: object

>  <hbond:SER:66>  (64) 
hbond:SER:66    0
hbond:SER:66    0
Name: 63, dtype: object

>  <hbond:SER:67>  (64) 
hbond:SER:67    0
hbond:SER:67    0
Name: 63, dtype: object

>  <halogenbond:SER:67>  (64) 
halogenbond:SER:67    0
halogenbond:SER:67    0
Name: 63, dtype: object

>  <hydroph_interaction:ARG:68>  (64) 
hydroph_interaction:ARG:68    0
hydroph_interaction:ARG:68    0
Name: 63, dtype: object

>  <hbond:ARG:68>  (64) 
hbond:ARG:68    0
hbond:ARG:68    0
Name: 63, dtype: object

>  <saltbridge:ARG:68>  (64) 
saltbridge:ARG:68    0
saltbridge:ARG:68    0
Name: 63, dtype: object

>  <pication:ARG:68>  (64) 
pication:ARG:68    0
pication:ARG:68    0
Name: 63, dtype: object

>  <hydroph_interaction:TYR:72>  (64) 
hydroph_interaction:TYR:72    0
hydroph_interaction:TYR:72    0
Name: 63, dtype: object

>  <hydroph_interaction:VAL:74>  (64) 
hydroph_interaction:VAL:74    0
hydroph_interaction:VAL:74    0
Name: 63, dtype: object

>  <hydroph_interaction:PHE:76>  (64) 
hydroph_interaction:PHE:76    0
hydroph_interaction:PHE:76    0
Name: 63, dtype: object

>  <hbond:SER:77>  (64) 
hbond:SER:77    0
hbond:SER:77    0
Name: 63, dtype: object

>  <hbond:SER:80>  (64) 
hbond:SER:80    0
hbond:SER:80    0
Name: 63, dtype: object

>  <hbond:LEU:81>  (64) 
hbond:LEU:81    0
hbond:LEU:81    0
Name: 63, dtype: object

>  <halogenbond:LEU:81>  (64) 
halogenbond:LEU:81    0
halogenbond:LEU:81    0
Name: 63, dtype: object

>  <hydroph_interaction:LEU:81>  (64) 
hydroph_interaction:LEU:81    0
hydroph_interaction:LEU:81    0
Name: 63, dtype: object

>  <hydroph_interaction:ILE:82>  (64) 
hydroph_interaction:ILE:82    0
hydroph_interaction:ILE:82    0
Name: 63, dtype: object

>  <hbond:ILE:82>  (64) 
hbond:ILE:82    0
hbond:ILE:82    0
Name: 63, dtype: object

>  <hydroph_interaction:PHE:83>  (64) 
hydroph_interaction:PHE:83    0
hydroph_interaction:PHE:83    0
Name: 63, dtype: object

>  <hbond:PHE:83>  (64) 
hbond:PHE:83    0
hbond:PHE:83    0
Name: 63, dtype: object

>  <halogenbond:PHE:83>  (64) 
halogenbond:PHE:83    0
halogenbond:PHE:83    0
Name: 63, dtype: object

>  <pistack:PHE:83>  (64) 
pistack:PHE:83    0
pistack:PHE:83    0
Name: 63, dtype: object

>  <hydroph_interaction:VAL:84>  (64) 
hydroph_interaction:VAL:84    0
hydroph_interaction:VAL:84    0
Name: 63, dtype: object

>  <hbond:VAL:84>  (64) 
hbond:VAL:84    0
hbond:VAL:84    0
Name: 63, dtype: object

>  <halogenbond:VAL:84>  (64) 
halogenbond:VAL:84    0
halogenbond:VAL:84    0
Name: 63, dtype: object

>  <hydroph_interaction:GLU:85>  (64) 
hydroph_interaction:GLU:85    0
hydroph_interaction:GLU:85    0
Name: 63, dtype: object

>  <hbond:GLU:85>  (64) 
hbond:GLU:85    0
hbond:GLU:85    0
Name: 63, dtype: object

>  <saltbridge:GLU:85>  (64) 
saltbridge:GLU:85    0
saltbridge:GLU:85    0
Name: 63, dtype: object

>  <halogenbond:GLU:85>  (64) 
halogenbond:GLU:85    0
halogenbond:GLU:85    0
Name: 63, dtype: object

>  <hbond:ALA:86>  (64) 
hbond:ALA:86    0
hbond:ALA:86    0
Name: 63, dtype: object

>  <halogenbond:ALA:86>  (64) 
halogenbond:ALA:86    0
halogenbond:ALA:86    0
Name: 63, dtype: object

>  <hydroph_interaction:ALA:86>  (64) 
hydroph_interaction:ALA:86    0
hydroph_interaction:ALA:86    0
Name: 63, dtype: object

>  <hbond:SER:87>  (64) 
hbond:SER:87    0
hbond:SER:87    0
Name: 63, dtype: object

>  <halogenbond:SER:87>  (64) 
halogenbond:SER:87    0
halogenbond:SER:87    0
Name: 63, dtype: object

>  <hbond:GLU:88>  (64) 
hbond:GLU:88    0
hbond:GLU:88    0
Name: 63, dtype: object

>  <hydroph_interaction:GLU:88>  (64) 
hydroph_interaction:GLU:88    0
hydroph_interaction:GLU:88    0
Name: 63, dtype: object

>  <halogenbond:GLU:88>  (64) 
halogenbond:GLU:88    0
halogenbond:GLU:88    0
Name: 63, dtype: object

>  <saltbridge:GLU:88>  (64) 
saltbridge:GLU:88    0
saltbridge:GLU:88    0
Name: 63, dtype: object

>  <hydroph_interaction:TYR:89>  (64) 
hydroph_interaction:TYR:89    0
hydroph_interaction:TYR:89    0
Name: 63, dtype: object

>  <pistack:TYR:89>  (64) 
pistack:TYR:89    0
pistack:TYR:89    0
Name: 63, dtype: object

>  <hbond:TYR:89>  (64) 
hbond:TYR:89    0
hbond:TYR:89    0
Name: 63, dtype: object

>  <halogenbond:TYR:89>  (64) 
halogenbond:TYR:89    0
halogenbond:TYR:89    0
Name: 63, dtype: object

>  <hbond:TYR:90>  (64) 
hbond:TYR:90    0
hbond:TYR:90    0
Name: 63, dtype: object

>  <hydroph_interaction:TYR:90>  (64) 
hydroph_interaction:TYR:90    0
hydroph_interaction:TYR:90    0
Name: 63, dtype: object

>  <pistack:TYR:90>  (64) 
pistack:TYR:90    0
pistack:TYR:90    0
Name: 63, dtype: object

>  <halogenbond:TYR:90>  (64) 
halogenbond:TYR:90    0
halogenbond:TYR:90    0
Name: 63, dtype: object

>  <pication:TYR:90>  (64) 
pication:TYR:90    0
pication:TYR:90    0
Name: 63, dtype: object

>  <hydroph_interaction:PRO:91>  (64) 
hydroph_interaction:PRO:91    0
hydroph_interaction:PRO:91    0
Name: 63, dtype: object

>  <halogenbond:PRO:91>  (64) 
halogenbond:PRO:91    0
halogenbond:PRO:91    0
Name: 63, dtype: object

>  <hbond:PRO:91>  (64) 
hbond:PRO:91    0
hbond:PRO:91    0
Name: 63, dtype: object

>  <hydroph_interaction:ALA:92>  (64) 
hydroph_interaction:ALA:92    0
hydroph_interaction:ALA:92    0
Name: 63, dtype: object

>  <hbond:ARG:93>  (64) 
hbond:ARG:93    0
hbond:ARG:93    0
Name: 63, dtype: object

>  <pication:ARG:93>  (64) 
pication:ARG:93    0
pication:ARG:93    0
Name: 63, dtype: object

>  <saltbridge:ARG:93>  (64) 
saltbridge:ARG:93    0
saltbridge:ARG:93    0
Name: 63, dtype: object

>  <hydroph_interaction:ARG:93>  (64) 
hydroph_interaction:ARG:93    0
hydroph_interaction:ARG:93    0
Name: 63, dtype: object

>  <halogenbond:ARG:93>  (64) 
halogenbond:ARG:93    0
halogenbond:ARG:93    0
Name: 63, dtype: object

>  <hydroph_interaction:TYR:94>  (64) 
hydroph_interaction:TYR:94    0
hydroph_interaction:TYR:94    0
Name: 63, dtype: object

>  <hbond:TYR:94>  (64) 
hbond:TYR:94    0
hbond:TYR:94    0
Name: 63, dtype: object

>  <halogenbond:GLN:95>  (64) 
halogenbond:GLN:95    0
halogenbond:GLN:95    0
Name: 63, dtype: object

>  <hbond:GLN:95>  (64) 
hbond:GLN:95    0
hbond:GLN:95    0
Name: 63, dtype: object

>  <hydroph_interaction:GLN:95>  (64) 
hydroph_interaction:GLN:95    0
hydroph_interaction:GLN:95    0
Name: 63, dtype: object

>  <hbond:SER:96>  (64) 
hbond:SER:96    0
hbond:SER:96    0
Name: 63, dtype: object

>  <hydroph_interaction:LEU:98>  (64) 
hydroph_interaction:LEU:98    0
hydroph_interaction:LEU:98    0
Name: 63, dtype: object

>  <hbond:LEU:98>  (64) 
hbond:LEU:98    0
hbond:LEU:98    0
Name: 63, dtype: object

>  <hbond:MET:99>  (64) 
hbond:MET:99    0
hbond:MET:99    0
Name: 63, dtype: object

>  <hydroph_interaction:MET:99>  (64) 
hydroph_interaction:MET:99    0
hydroph_interaction:MET:99    0
Name: 63, dtype: object

>  <halogenbond:MET:99>  (64) 
halogenbond:MET:99    0
halogenbond:MET:99    0
Name: 63, dtype: object

>  <hydroph_interaction:LEU:100>  (64) 
hydroph_interaction:LEU:100    0
hydroph_interaction:LEU:100    0
Name: 63, dtype: object

>  <hbond:LEU:100>  (64) 
hbond:LEU:100    0
hbond:LEU:100    0
Name: 63, dtype: object

>  <hbond:ALA:101>  (64) 
hbond:ALA:101    0
hbond:ALA:101    0
Name: 63, dtype: object

>  <hydroph_interaction:ALA:101>  (64) 
hydroph_interaction:ALA:101    0
hydroph_interaction:ALA:101    0
Name: 63, dtype: object

>  <hydroph_interaction:VAL:102>  (64) 
hydroph_interaction:VAL:102    0
hydroph_interaction:VAL:102    0
Name: 63, dtype: object

>  <hbond:VAL:102>  (64) 
hbond:VAL:102    0
hbond:VAL:102    0
Name: 63, dtype: object

>  <hbond:GLY:103>  (64) 
hbond:GLY:103    0
hbond:GLY:103    0
Name: 63, dtype: object

>  <halogenbond:GLY:103>  (64) 
halogenbond:GLY:103    0
halogenbond:GLY:103    0
Name: 63, dtype: object

>  <hydroph_interaction:HIS:104>  (64) 
hydroph_interaction:HIS:104    0
hydroph_interaction:HIS:104    0
Name: 63, dtype: object

>  <hbond:HIS:104>  (64) 
hbond:HIS:104    0
hbond:HIS:104    0
Name: 63, dtype: object

>  <saltbridge:HIS:104>  (64) 
saltbridge:HIS:104    0
saltbridge:HIS:104    0
Name: 63, dtype: object

>  <pication:HIS:104>  (64) 
pication:HIS:104    0
pication:HIS:104    0
Name: 63, dtype: object

>  <pistack:HIS:104>  (64) 
pistack:HIS:104    0
pistack:HIS:104    0
Name: 63, dtype: object

>  <halogenbond:HIS:104>  (64) 
halogenbond:HIS:104    0
halogenbond:HIS:104    0
Name: 63, dtype: object

>  <hbond:SER:105>  (64) 
hbond:SER:105    0
hbond:SER:105    0
Name: 63, dtype: object

>  <halogenbond:SER:105>  (64) 
halogenbond:SER:105    0
halogenbond:SER:105    0
Name: 63, dtype: object

>  <hbond:GLU:106>  (64) 
hbond:GLU:106    0
hbond:GLU:106    0
Name: 63, dtype: object

>  <hydroph_interaction:GLU:106>  (64) 
hydroph_interaction:GLU:106    0
hydroph_interaction:GLU:106    0
Name: 63, dtype: object

>  <saltbridge:GLU:106>  (64) 
saltbridge:GLU:106    0
saltbridge:GLU:106    0
Name: 63, dtype: object

>  <halogenbond:GLU:106>  (64) 
halogenbond:GLU:106    0
halogenbond:GLU:106    0
Name: 63, dtype: object

>  <hydroph_interaction:PRO:107>  (64) 
hydroph_interaction:PRO:107    0
hydroph_interaction:PRO:107    0
Name: 63, dtype: object

>  <hbond:PRO:107>  (64) 
hbond:PRO:107    0
hbond:PRO:107    0
Name: 63, dtype: object

>  <halogenbond:PRO:107>  (64) 
halogenbond:PRO:107    0
halogenbond:PRO:107    0
Name: 63, dtype: object

>  <hbond:GLY:108>  (64) 
hbond:GLY:108    0
hbond:GLY:108    0
Name: 63, dtype: object

>  <halogenbond:GLY:108>  (64) 
halogenbond:GLY:108    0
halogenbond:GLY:108    0
Name: 63, dtype: object

>  <hbond:ASP:109>  (64) 
hbond:ASP:109    0
hbond:ASP:109    0
Name: 63, dtype: object

>  <hydroph_interaction:ASP:109>  (64) 
hydroph_interaction:ASP:109    0
hydroph_interaction:ASP:109    0
Name: 63, dtype: object

>  <saltbridge:ASP:109>  (64) 
saltbridge:ASP:109    0
saltbridge:ASP:109    0
Name: 63, dtype: object

>  <hbond:CYS:110>  (64) 
hbond:CYS:110    0
hbond:CYS:110    0
Name: 63, dtype: object

>  <halogenbond:CYS:110>  (64) 
halogenbond:CYS:110    0
halogenbond:CYS:110    0
Name: 63, dtype: object

>  <hbond:GLY:111>  (64) 
hbond:GLY:111    0
hbond:GLY:111    0
Name: 63, dtype: object

>  <hbond:GLY:112>  (64) 
hbond:GLY:112    0
hbond:GLY:112    0
Name: 63, dtype: object

>  <hbond:ILE:113>  (64) 
hbond:ILE:113    0
hbond:ILE:113    0
Name: 63, dtype: object

>  <hydroph_interaction:LEU:114>  (64) 
hydroph_interaction:LEU:114    0
hydroph_interaction:LEU:114    0
Name: 63, dtype: object

>  <hbond:LEU:114>  (64) 
hbond:LEU:114    0
hbond:LEU:114    0
Name: 63, dtype: object

>  <hydroph_interaction:ILE:123>  (64) 
hydroph_interaction:ILE:123    0
hydroph_interaction:ILE:123    0
Name: 63, dtype: object

>  <hbond:ILE:123>  (64) 
hbond:ILE:123    0
hbond:ILE:123    0
Name: 63, dtype: object

>  <hydroph_interaction:VAL:124>  (64) 
hydroph_interaction:VAL:124    0
hydroph_interaction:VAL:124    0
Name: 63, dtype: object

>  <hbond:VAL:124>  (64) 
hbond:VAL:124    0
hbond:VAL:124    0
Name: 63, dtype: object

>  <halogenbond:VAL:124>  (64) 
halogenbond:VAL:124    0
halogenbond:VAL:124    0
Name: 63, dtype: object

>  <hbond:SER:125>  (64) 
hbond:SER:125    1
hbond:SER:125    1
Name: 63, dtype: object

>  <halogenbond:SER:125>  (64) 
halogenbond:SER:125    0
halogenbond:SER:125    0
Name: 63, dtype: object

>  <hydroph_interaction:THR:126>  (64) 
hydroph_interaction:THR:126    0
hydroph_interaction:THR:126    0
Name: 63, dtype: object

>  <hbond:THR:126>  (64) 
hbond:THR:126    0
hbond:THR:126    0
Name: 63, dtype: object

>  <halogenbond:THR:126>  (64) 
halogenbond:THR:126    0
halogenbond:THR:126    0
Name: 63, dtype: object

>  <hbond:GLY:127>  (64) 
hbond:GLY:127    0
hbond:GLY:127    0
Name: 63, dtype: object

>  <halogenbond:GLY:127>  (64) 
halogenbond:GLY:127    0
halogenbond:GLY:127    0
Name: 63, dtype: object

>  <hydroph_interaction:GLY:127>  (64) 
hydroph_interaction:GLY:127    0
hydroph_interaction:GLY:127    0
Name: 63, dtype: object

>  <hbond:GLY:128>  (64) 
hbond:GLY:128    0
hbond:GLY:128    0
Name: 63, dtype: object

>  <halogenbond:GLY:128>  (64) 
halogenbond:GLY:128    0
halogenbond:GLY:128    0
Name: 63, dtype: object

>  <hydroph_interaction:GLY:128>  (64) 
hydroph_interaction:GLY:128    0
hydroph_interaction:GLY:128    0
Name: 63, dtype: object

>  <hbond:ASN:129>  (64) 
hbond:ASN:129    0
hbond:ASN:129    0
Name: 63, dtype: object

>  <hydroph_interaction:ASN:129>  (64) 
hydroph_interaction:ASN:129    0
hydroph_interaction:ASN:129    0
Name: 63, dtype: object

>  <halogenbond:ASN:129>  (64) 
halogenbond:ASN:129    0
halogenbond:ASN:129    0
Name: 63, dtype: object

>  <hbond:GLY:130>  (64) 
hbond:GLY:130    0
hbond:GLY:130    0
Name: 63, dtype: object

>  <hydroph_interaction:LEU:131>  (64) 
hydroph_interaction:LEU:131    0
hydroph_interaction:LEU:131    0
Name: 63, dtype: object

>  <hbond:LEU:131>  (64) 
hbond:LEU:131    0
hbond:LEU:131    0
Name: 63, dtype: object

>  <halogenbond:LEU:131>  (64) 
halogenbond:LEU:131    0
halogenbond:LEU:131    0
Name: 63, dtype: object

>  <hydroph_interaction:VAL:132>  (64) 
hydroph_interaction:VAL:132    0
hydroph_interaction:VAL:132    0
Name: 63, dtype: object

>  <hbond:VAL:132>  (64) 
hbond:VAL:132    0
hbond:VAL:132    0
Name: 63, dtype: object

>  <hbond:GLY:133>  (64) 
hbond:GLY:133    0
hbond:GLY:133    0
Name: 63, dtype: object

>  <halogenbond:GLY:133>  (64) 
halogenbond:GLY:133    0
halogenbond:GLY:133    0
Name: 63, dtype: object

>  <hydroph_interaction:PHE:134>  (64) 
hydroph_interaction:PHE:134    0
hydroph_interaction:PHE:134    0
Name: 63, dtype: object

>  <hbond:PHE:134>  (64) 
hbond:PHE:134    0
hbond:PHE:134    0
Name: 63, dtype: object

>  <pistack:PHE:134>  (64) 
pistack:PHE:134    0
pistack:PHE:134    0
Name: 63, dtype: object

>  <pication:PHE:134>  (64) 
pication:PHE:134    0
pication:PHE:134    0
Name: 63, dtype: object

>  <hydroph_interaction:ALA:135>  (64) 
hydroph_interaction:ALA:135    0
hydroph_interaction:ALA:135    0
Name: 63, dtype: object

>  <hbond:ALA:135>  (64) 
hbond:ALA:135    0
hbond:ALA:135    0
Name: 63, dtype: object

$$$$
Z1054833566
     RDKit          3D

 33 34  0  0  0  0  0  0  0  0999 V2000
   10.2220    9.3940   22.7460 C   0  0  0  0  0  0  0  0  0  0  0  0
    9.3830   10.3100   23.5510 C   0  0  0  0  0  0  0  0  0  0  0  0
    8.4410    9.8550   24.3830 N   0  0  0  0  0  0  0  0  0  0  0  0
    7.8930   10.9710   24.8960 N   0  0  0  0  0  0  0  0  0  0  0  0
    6.7980   10.8620   25.8340 C   0  0  0  0  0  0  0  0  0  0  0  0
    8.4730   12.1170   24.4210 C   0  0  0  0  0  0  0  0  0  0  0  0
    7.9410   13.6500   24.9300 Cl  0  0  0  0  0  0  0  0  0  0  0  0
    9.4500   11.7230   23.5400 C   0  0  0  0  0  0  0  0  0  0  0  0
   10.3870   12.5090   22.7140 C   0  0  0  0  0  0  0  0  0  0  0  0
   11.4500   13.1710   23.4340 N   0  0  0  0  0  0  0  0  0  0  0  0
   10.9370   14.2420   24.2500 C   0  0  0  0  0  0  0  0  0  0  0  0
   12.1170   15.1660   24.3340 C   0  0  0  0  0  0  0  0  0  0  0  0
   12.7590   15.1410   22.9690 C   0  0  0  0  0  0  0  0  0  0  0  0
   12.2430   16.2390   22.0730 C   0  0  0  0  0  0  0  0  0  0  0  0
   12.3760   13.7770   22.4420 C   0  0  0  0  0  0  0  0  0  0  0  0
   10.8100    9.9600   22.0270 H   0  0  0  0  0  0  0  0  0  0  0  0
    9.5920    8.7160   22.1710 H   0  0  0  0  0  0  0  0  0  0  0  0
   10.9110    8.8070   23.3560 H   0  0  0  0  0  0  0  0  0  0  0  0
    7.1580   10.8030   26.8530 H   0  0  0  0  0  0  0  0  0  0  0  0
    6.1660   11.7440   25.7130 H   0  0  0  0  0  0  0  0  0  0  0  0
    6.2330    9.9580   25.6070 H   0  0  0  0  0  0  0  0  0  0  0  0
   10.8510   11.7730   22.0690 H   0  0  0  0  0  0  0  0  0  0  0  0
    9.8530   13.2090   22.0640 H   0  0  0  0  0  0  0  0  0  0  0  0
   10.1070   14.7320   23.7620 H   0  0  0  0  0  0  0  0  0  0  0  0
   10.6250   13.9330   25.2220 H   0  0  0  0  0  0  0  0  0  0  0  0
   12.8250   14.9150   25.1280 H   0  0  0  0  0  0  0  0  0  0  0  0
   11.7820   16.1860   24.5020 H   0  0  0  0  0  0  0  0  0  0  0  0
   13.8450   15.2050   23.0330 H   0  0  0  0  0  0  0  0  0  0  0  0
   12.0740   17.1630   22.6260 H   0  0  0  0  0  0  0  0  0  0  0  0
   12.9490   16.4210   21.2620 H   0  0  0  0  0  0  0  0  0  0  0  0
   11.3040   15.9310   21.6030 H   0  0  0  0  0  0  0  0  0  0  0  0
   13.2880   13.2030   22.3330 H   0  0  0  0  0  0  0  0  0  0  0  0
   11.9030   13.8460   21.4550 H   0  0  0  0  0  0  0  0  0  0  0  0
  1  2  1  0
  2  3  2  0
  3  4  1  0
  4  5  1  0
  4  6  1  0
  6  7  1  0
  6  8  2  0
  8  9  1  0
  9 10  1  0
 10 11  1  0
 11 12  1  0
 12 13  1  0
 13 14  1  0
 13 15  1  0
  8  2  1  0
 15 10  1  0
  1 16  1  0
  1 17  1  0
  1 18  1  0
  5 19  1  0
  5 20  1  0
  5 21  1  0
  9 22  1  0
  9 23  1  0
 11 24  1  0
 11 25  1  0
 12 26  1  0
 12 27  1  0
 13 28  1  0
 14 29  1  0
 14 30  1  0
 14 31  1  0
 15 32  1  0
 15 33  1  0
A    1
 C1 
A    2
 C2 
A    3
 N1 
A    4
 N2 
A    5
 C3 
A    6
 C4 
A    7
CL1 
A    8
 C5 
A    9
 C6 
A   10
 N3 
A   11
 C7 
A   12
 C8 
A   13
 C9 
A   14
 C10
A   15
 C11
A   16
 H1 
A   17
 H2 
A   18
 H3 
A   19
 H4 
A   20
 H5 
A   21
 H6 
A   22
 H7 
A   23
 H8 
A   24
 H9 
A   25
 H10
A   26
 H11
A   27
 H12
A   28
 H13
A   29
 H14
A   30
 H15
A   31
 H16
A   32
 H17
A   33
 H18
M  END
>  <ref_pdb>  (65) 
x0310_0A

>  <ref_mols>  (65) 
x0310_0A,x0451_0A,x0719_0A

>  <original SMILES>  (65) 
Cc1nn(C)c(Cl)c1CN1CCC(C)C1

>  <rationale>  (65) 
info hydroph_interaction:V124+Y89+Y90; 

>  <intxn_cluster>  (65) 
103

>  <intxn_cluster_rank>  (65) 
347

>  <N_interactions>  (65) 
3

>  <∆∆G>  (65) 
-8.974924

>  <$/mg>  (65) 
nan

>  <comRMSD>  (65) 
0.980264

>  <N_rotatable_bonds>  (65) 
5

>  <hbond:SER:7>  (65) 
hbond:SER:7    0
hbond:SER:7    0
Name: 64, dtype: object

>  <halogenbond:SER:7>  (65) 
halogenbond:SER:7    0
halogenbond:SER:7    0
Name: 64, dtype: object

>  <hbond:GLY:8>  (65) 
hbond:GLY:8    0
hbond:GLY:8    0
Name: 64, dtype: object

>  <hydroph_interaction:ASN:19>  (65) 
hydroph_interaction:ASN:19    0
hydroph_interaction:ASN:19    0
Name: 64, dtype: object

>  <hbond:ASN:19>  (65) 
hbond:ASN:19    0
hbond:ASN:19    0
Name: 64, dtype: object

>  <halogenbond:ASN:19>  (65) 
halogenbond:ASN:19    0
halogenbond:ASN:19    0
Name: 64, dtype: object

>  <hbond:ARG:20>  (65) 
hbond:ARG:20    0
hbond:ARG:20    0
Name: 64, dtype: object

>  <hydroph_interaction:ARG:20>  (65) 
hydroph_interaction:ARG:20    0
hydroph_interaction:ARG:20    0
Name: 64, dtype: object

>  <saltbridge:ARG:20>  (65) 
saltbridge:ARG:20    0
saltbridge:ARG:20    0
Name: 64, dtype: object

>  <halogenbond:ARG:20>  (65) 
halogenbond:ARG:20    0
halogenbond:ARG:20    0
Name: 64, dtype: object

>  <pication:ARG:20>  (65) 
pication:ARG:20    0
pication:ARG:20    0
Name: 64, dtype: object

>  <hbond:HIS:21>  (65) 
hbond:HIS:21    0
hbond:HIS:21    0
Name: 64, dtype: object

>  <hydroph_interaction:HIS:21>  (65) 
hydroph_interaction:HIS:21    0
hydroph_interaction:HIS:21    0
Name: 64, dtype: object

>  <saltbridge:HIS:21>  (65) 
saltbridge:HIS:21    0
saltbridge:HIS:21    0
Name: 64, dtype: object

>  <pistack:HIS:21>  (65) 
pistack:HIS:21    0
pistack:HIS:21    0
Name: 64, dtype: object

>  <pication:HIS:21>  (65) 
pication:HIS:21    0
pication:HIS:21    0
Name: 64, dtype: object

>  <halogenbond:HIS:21>  (65) 
halogenbond:HIS:21    0
halogenbond:HIS:21    0
Name: 64, dtype: object

>  <hydroph_interaction:LEU:22>  (65) 
hydroph_interaction:LEU:22    0
hydroph_interaction:LEU:22    0
Name: 64, dtype: object

>  <hbond:LEU:22>  (65) 
hbond:LEU:22    0
hbond:LEU:22    0
Name: 64, dtype: object

>  <hydroph_interaction:TRP:28>  (65) 
hydroph_interaction:TRP:28    0
hydroph_interaction:TRP:28    0
Name: 64, dtype: object

>  <hbond:SER:36>  (65) 
hbond:SER:36    0
hbond:SER:36    0
Name: 64, dtype: object

>  <halogenbond:SER:36>  (65) 
halogenbond:SER:36    0
halogenbond:SER:36    0
Name: 64, dtype: object

>  <hbond:ARG:38>  (65) 
hbond:ARG:38    0
hbond:ARG:38    0
Name: 64, dtype: object

>  <halogenbond:ARG:38>  (65) 
halogenbond:ARG:38    0
halogenbond:ARG:38    0
Name: 64, dtype: object

>  <hbond:ASP:39>  (65) 
hbond:ASP:39    0
hbond:ASP:39    0
Name: 64, dtype: object

>  <saltbridge:ASP:39>  (65) 
saltbridge:ASP:39    0
saltbridge:ASP:39    0
Name: 64, dtype: object

>  <hydroph_interaction:ASP:39>  (65) 
hydroph_interaction:ASP:39    0
hydroph_interaction:ASP:39    0
Name: 64, dtype: object

>  <halogenbond:ASP:39>  (65) 
halogenbond:ASP:39    0
halogenbond:ASP:39    0
Name: 64, dtype: object

>  <hydroph_interaction:LEU:40>  (65) 
hydroph_interaction:LEU:40    0
hydroph_interaction:LEU:40    0
Name: 64, dtype: object

>  <hydroph_interaction:TYR:63>  (65) 
hydroph_interaction:TYR:63    0
hydroph_interaction:TYR:63    0
Name: 64, dtype: object

>  <pistack:TYR:63>  (65) 
pistack:TYR:63    0
pistack:TYR:63    0
Name: 64, dtype: object

>  <hbond:TYR:63>  (65) 
hbond:TYR:63    0
hbond:TYR:63    0
Name: 64, dtype: object

>  <hbond:TYR:64>  (65) 
hbond:TYR:64    0
hbond:TYR:64    0
Name: 64, dtype: object

>  <halogenbond:TYR:64>  (65) 
halogenbond:TYR:64    0
halogenbond:TYR:64    0
Name: 64, dtype: object

>  <hydroph_interaction:TYR:64>  (65) 
hydroph_interaction:TYR:64    0
hydroph_interaction:TYR:64    0
Name: 64, dtype: object

>  <hbond:CYS:65>  (65) 
hbond:CYS:65    0
hbond:CYS:65    0
Name: 64, dtype: object

>  <halogenbond:CYS:65>  (65) 
halogenbond:CYS:65    0
halogenbond:CYS:65    0
Name: 64, dtype: object

>  <hbond:SER:66>  (65) 
hbond:SER:66    0
hbond:SER:66    0
Name: 64, dtype: object

>  <hbond:SER:67>  (65) 
hbond:SER:67    0
hbond:SER:67    0
Name: 64, dtype: object

>  <halogenbond:SER:67>  (65) 
halogenbond:SER:67    0
halogenbond:SER:67    0
Name: 64, dtype: object

>  <hydroph_interaction:ARG:68>  (65) 
hydroph_interaction:ARG:68    0
hydroph_interaction:ARG:68    0
Name: 64, dtype: object

>  <hbond:ARG:68>  (65) 
hbond:ARG:68    0
hbond:ARG:68    0
Name: 64, dtype: object

>  <saltbridge:ARG:68>  (65) 
saltbridge:ARG:68    0
saltbridge:ARG:68    0
Name: 64, dtype: object

>  <pication:ARG:68>  (65) 
pication:ARG:68    0
pication:ARG:68    0
Name: 64, dtype: object

>  <hydroph_interaction:TYR:72>  (65) 
hydroph_interaction:TYR:72    0
hydroph_interaction:TYR:72    0
Name: 64, dtype: object

>  <hydroph_interaction:VAL:74>  (65) 
hydroph_interaction:VAL:74    0
hydroph_interaction:VAL:74    0
Name: 64, dtype: object

>  <hydroph_interaction:PHE:76>  (65) 
hydroph_interaction:PHE:76    0
hydroph_interaction:PHE:76    0
Name: 64, dtype: object

>  <hbond:SER:77>  (65) 
hbond:SER:77    0
hbond:SER:77    0
Name: 64, dtype: object

>  <hbond:SER:80>  (65) 
hbond:SER:80    0
hbond:SER:80    0
Name: 64, dtype: object

>  <hbond:LEU:81>  (65) 
hbond:LEU:81    0
hbond:LEU:81    0
Name: 64, dtype: object

>  <halogenbond:LEU:81>  (65) 
halogenbond:LEU:81    0
halogenbond:LEU:81    0
Name: 64, dtype: object

>  <hydroph_interaction:LEU:81>  (65) 
hydroph_interaction:LEU:81    0
hydroph_interaction:LEU:81    0
Name: 64, dtype: object

>  <hydroph_interaction:ILE:82>  (65) 
hydroph_interaction:ILE:82    0
hydroph_interaction:ILE:82    0
Name: 64, dtype: object

>  <hbond:ILE:82>  (65) 
hbond:ILE:82    0
hbond:ILE:82    0
Name: 64, dtype: object

>  <hydroph_interaction:PHE:83>  (65) 
hydroph_interaction:PHE:83    0
hydroph_interaction:PHE:83    0
Name: 64, dtype: object

>  <hbond:PHE:83>  (65) 
hbond:PHE:83    0
hbond:PHE:83    0
Name: 64, dtype: object

>  <halogenbond:PHE:83>  (65) 
halogenbond:PHE:83    0
halogenbond:PHE:83    0
Name: 64, dtype: object

>  <pistack:PHE:83>  (65) 
pistack:PHE:83    0
pistack:PHE:83    0
Name: 64, dtype: object

>  <hydroph_interaction:VAL:84>  (65) 
hydroph_interaction:VAL:84    0
hydroph_interaction:VAL:84    0
Name: 64, dtype: object

>  <hbond:VAL:84>  (65) 
hbond:VAL:84    0
hbond:VAL:84    0
Name: 64, dtype: object

>  <halogenbond:VAL:84>  (65) 
halogenbond:VAL:84    0
halogenbond:VAL:84    0
Name: 64, dtype: object

>  <hydroph_interaction:GLU:85>  (65) 
hydroph_interaction:GLU:85    0
hydroph_interaction:GLU:85    0
Name: 64, dtype: object

>  <hbond:GLU:85>  (65) 
hbond:GLU:85    0
hbond:GLU:85    0
Name: 64, dtype: object

>  <saltbridge:GLU:85>  (65) 
saltbridge:GLU:85    0
saltbridge:GLU:85    0
Name: 64, dtype: object

>  <halogenbond:GLU:85>  (65) 
halogenbond:GLU:85    0
halogenbond:GLU:85    0
Name: 64, dtype: object

>  <hbond:ALA:86>  (65) 
hbond:ALA:86    0
hbond:ALA:86    0
Name: 64, dtype: object

>  <halogenbond:ALA:86>  (65) 
halogenbond:ALA:86    0
halogenbond:ALA:86    0
Name: 64, dtype: object

>  <hydroph_interaction:ALA:86>  (65) 
hydroph_interaction:ALA:86    0
hydroph_interaction:ALA:86    0
Name: 64, dtype: object

>  <hbond:SER:87>  (65) 
hbond:SER:87    0
hbond:SER:87    0
Name: 64, dtype: object

>  <halogenbond:SER:87>  (65) 
halogenbond:SER:87    0
halogenbond:SER:87    0
Name: 64, dtype: object

>  <hbond:GLU:88>  (65) 
hbond:GLU:88    0
hbond:GLU:88    0
Name: 64, dtype: object

>  <hydroph_interaction:GLU:88>  (65) 
hydroph_interaction:GLU:88    0
hydroph_interaction:GLU:88    0
Name: 64, dtype: object

>  <halogenbond:GLU:88>  (65) 
halogenbond:GLU:88    0
halogenbond:GLU:88    0
Name: 64, dtype: object

>  <saltbridge:GLU:88>  (65) 
saltbridge:GLU:88    0
saltbridge:GLU:88    0
Name: 64, dtype: object

>  <hydroph_interaction:TYR:89>  (65) 
hydroph_interaction:TYR:89    1
hydroph_interaction:TYR:89    1
Name: 64, dtype: object

>  <pistack:TYR:89>  (65) 
pistack:TYR:89    0
pistack:TYR:89    0
Name: 64, dtype: object

>  <hbond:TYR:89>  (65) 
hbond:TYR:89    0
hbond:TYR:89    0
Name: 64, dtype: object

>  <halogenbond:TYR:89>  (65) 
halogenbond:TYR:89    0
halogenbond:TYR:89    0
Name: 64, dtype: object

>  <hbond:TYR:90>  (65) 
hbond:TYR:90    0
hbond:TYR:90    0
Name: 64, dtype: object

>  <hydroph_interaction:TYR:90>  (65) 
hydroph_interaction:TYR:90    1
hydroph_interaction:TYR:90    1
Name: 64, dtype: object

>  <pistack:TYR:90>  (65) 
pistack:TYR:90    0
pistack:TYR:90    0
Name: 64, dtype: object

>  <halogenbond:TYR:90>  (65) 
halogenbond:TYR:90    0
halogenbond:TYR:90    0
Name: 64, dtype: object

>  <pication:TYR:90>  (65) 
pication:TYR:90    0
pication:TYR:90    0
Name: 64, dtype: object

>  <hydroph_interaction:PRO:91>  (65) 
hydroph_interaction:PRO:91    0
hydroph_interaction:PRO:91    0
Name: 64, dtype: object

>  <halogenbond:PRO:91>  (65) 
halogenbond:PRO:91    0
halogenbond:PRO:91    0
Name: 64, dtype: object

>  <hbond:PRO:91>  (65) 
hbond:PRO:91    0
hbond:PRO:91    0
Name: 64, dtype: object

>  <hydroph_interaction:ALA:92>  (65) 
hydroph_interaction:ALA:92    0
hydroph_interaction:ALA:92    0
Name: 64, dtype: object

>  <hbond:ARG:93>  (65) 
hbond:ARG:93    0
hbond:ARG:93    0
Name: 64, dtype: object

>  <pication:ARG:93>  (65) 
pication:ARG:93    0
pication:ARG:93    0
Name: 64, dtype: object

>  <saltbridge:ARG:93>  (65) 
saltbridge:ARG:93    0
saltbridge:ARG:93    0
Name: 64, dtype: object

>  <hydroph_interaction:ARG:93>  (65) 
hydroph_interaction:ARG:93    0
hydroph_interaction:ARG:93    0
Name: 64, dtype: object

>  <halogenbond:ARG:93>  (65) 
halogenbond:ARG:93    0
halogenbond:ARG:93    0
Name: 64, dtype: object

>  <hydroph_interaction:TYR:94>  (65) 
hydroph_interaction:TYR:94    0
hydroph_interaction:TYR:94    0
Name: 64, dtype: object

>  <hbond:TYR:94>  (65) 
hbond:TYR:94    0
hbond:TYR:94    0
Name: 64, dtype: object

>  <halogenbond:GLN:95>  (65) 
halogenbond:GLN:95    0
halogenbond:GLN:95    0
Name: 64, dtype: object

>  <hbond:GLN:95>  (65) 
hbond:GLN:95    0
hbond:GLN:95    0
Name: 64, dtype: object

>  <hydroph_interaction:GLN:95>  (65) 
hydroph_interaction:GLN:95    0
hydroph_interaction:GLN:95    0
Name: 64, dtype: object

>  <hbond:SER:96>  (65) 
hbond:SER:96    0
hbond:SER:96    0
Name: 64, dtype: object

>  <hydroph_interaction:LEU:98>  (65) 
hydroph_interaction:LEU:98    0
hydroph_interaction:LEU:98    0
Name: 64, dtype: object

>  <hbond:LEU:98>  (65) 
hbond:LEU:98    0
hbond:LEU:98    0
Name: 64, dtype: object

>  <hbond:MET:99>  (65) 
hbond:MET:99    0
hbond:MET:99    0
Name: 64, dtype: object

>  <hydroph_interaction:MET:99>  (65) 
hydroph_interaction:MET:99    0
hydroph_interaction:MET:99    0
Name: 64, dtype: object

>  <halogenbond:MET:99>  (65) 
halogenbond:MET:99    0
halogenbond:MET:99    0
Name: 64, dtype: object

>  <hydroph_interaction:LEU:100>  (65) 
hydroph_interaction:LEU:100    0
hydroph_interaction:LEU:100    0
Name: 64, dtype: object

>  <hbond:LEU:100>  (65) 
hbond:LEU:100    0
hbond:LEU:100    0
Name: 64, dtype: object

>  <hbond:ALA:101>  (65) 
hbond:ALA:101    0
hbond:ALA:101    0
Name: 64, dtype: object

>  <hydroph_interaction:ALA:101>  (65) 
hydroph_interaction:ALA:101    0
hydroph_interaction:ALA:101    0
Name: 64, dtype: object

>  <hydroph_interaction:VAL:102>  (65) 
hydroph_interaction:VAL:102    0
hydroph_interaction:VAL:102    0
Name: 64, dtype: object

>  <hbond:VAL:102>  (65) 
hbond:VAL:102    0
hbond:VAL:102    0
Name: 64, dtype: object

>  <hbond:GLY:103>  (65) 
hbond:GLY:103    0
hbond:GLY:103    0
Name: 64, dtype: object

>  <halogenbond:GLY:103>  (65) 
halogenbond:GLY:103    0
halogenbond:GLY:103    0
Name: 64, dtype: object

>  <hydroph_interaction:HIS:104>  (65) 
hydroph_interaction:HIS:104    0
hydroph_interaction:HIS:104    0
Name: 64, dtype: object

>  <hbond:HIS:104>  (65) 
hbond:HIS:104    0
hbond:HIS:104    0
Name: 64, dtype: object

>  <saltbridge:HIS:104>  (65) 
saltbridge:HIS:104    0
saltbridge:HIS:104    0
Name: 64, dtype: object

>  <pication:HIS:104>  (65) 
pication:HIS:104    0
pication:HIS:104    0
Name: 64, dtype: object

>  <pistack:HIS:104>  (65) 
pistack:HIS:104    0
pistack:HIS:104    0
Name: 64, dtype: object

>  <halogenbond:HIS:104>  (65) 
halogenbond:HIS:104    0
halogenbond:HIS:104    0
Name: 64, dtype: object

>  <hbond:SER:105>  (65) 
hbond:SER:105    0
hbond:SER:105    0
Name: 64, dtype: object

>  <halogenbond:SER:105>  (65) 
halogenbond:SER:105    0
halogenbond:SER:105    0
Name: 64, dtype: object

>  <hbond:GLU:106>  (65) 
hbond:GLU:106    0
hbond:GLU:106    0
Name: 64, dtype: object

>  <hydroph_interaction:GLU:106>  (65) 
hydroph_interaction:GLU:106    0
hydroph_interaction:GLU:106    0
Name: 64, dtype: object

>  <saltbridge:GLU:106>  (65) 
saltbridge:GLU:106    0
saltbridge:GLU:106    0
Name: 64, dtype: object

>  <halogenbond:GLU:106>  (65) 
halogenbond:GLU:106    0
halogenbond:GLU:106    0
Name: 64, dtype: object

>  <hydroph_interaction:PRO:107>  (65) 
hydroph_interaction:PRO:107    0
hydroph_interaction:PRO:107    0
Name: 64, dtype: object

>  <hbond:PRO:107>  (65) 
hbond:PRO:107    0
hbond:PRO:107    0
Name: 64, dtype: object

>  <halogenbond:PRO:107>  (65) 
halogenbond:PRO:107    0
halogenbond:PRO:107    0
Name: 64, dtype: object

>  <hbond:GLY:108>  (65) 
hbond:GLY:108    0
hbond:GLY:108    0
Name: 64, dtype: object

>  <halogenbond:GLY:108>  (65) 
halogenbond:GLY:108    0
halogenbond:GLY:108    0
Name: 64, dtype: object

>  <hbond:ASP:109>  (65) 
hbond:ASP:109    0
hbond:ASP:109    0
Name: 64, dtype: object

>  <hydroph_interaction:ASP:109>  (65) 
hydroph_interaction:ASP:109    0
hydroph_interaction:ASP:109    0
Name: 64, dtype: object

>  <saltbridge:ASP:109>  (65) 
saltbridge:ASP:109    0
saltbridge:ASP:109    0
Name: 64, dtype: object

>  <hbond:CYS:110>  (65) 
hbond:CYS:110    0
hbond:CYS:110    0
Name: 64, dtype: object

>  <halogenbond:CYS:110>  (65) 
halogenbond:CYS:110    0
halogenbond:CYS:110    0
Name: 64, dtype: object

>  <hbond:GLY:111>  (65) 
hbond:GLY:111    0
hbond:GLY:111    0
Name: 64, dtype: object

>  <hbond:GLY:112>  (65) 
hbond:GLY:112    0
hbond:GLY:112    0
Name: 64, dtype: object

>  <hbond:ILE:113>  (65) 
hbond:ILE:113    0
hbond:ILE:113    0
Name: 64, dtype: object

>  <hydroph_interaction:LEU:114>  (65) 
hydroph_interaction:LEU:114    0
hydroph_interaction:LEU:114    0
Name: 64, dtype: object

>  <hbond:LEU:114>  (65) 
hbond:LEU:114    0
hbond:LEU:114    0
Name: 64, dtype: object

>  <hydroph_interaction:ILE:123>  (65) 
hydroph_interaction:ILE:123    0
hydroph_interaction:ILE:123    0
Name: 64, dtype: object

>  <hbond:ILE:123>  (65) 
hbond:ILE:123    0
hbond:ILE:123    0
Name: 64, dtype: object

>  <hydroph_interaction:VAL:124>  (65) 
hydroph_interaction:VAL:124    1
hydroph_interaction:VAL:124    1
Name: 64, dtype: object

>  <hbond:VAL:124>  (65) 
hbond:VAL:124    0
hbond:VAL:124    0
Name: 64, dtype: object

>  <halogenbond:VAL:124>  (65) 
halogenbond:VAL:124    0
halogenbond:VAL:124    0
Name: 64, dtype: object

>  <hbond:SER:125>  (65) 
hbond:SER:125    0
hbond:SER:125    0
Name: 64, dtype: object

>  <halogenbond:SER:125>  (65) 
halogenbond:SER:125    0
halogenbond:SER:125    0
Name: 64, dtype: object

>  <hydroph_interaction:THR:126>  (65) 
hydroph_interaction:THR:126    0
hydroph_interaction:THR:126    0
Name: 64, dtype: object

>  <hbond:THR:126>  (65) 
hbond:THR:126    0
hbond:THR:126    0
Name: 64, dtype: object

>  <halogenbond:THR:126>  (65) 
halogenbond:THR:126    0
halogenbond:THR:126    0
Name: 64, dtype: object

>  <hbond:GLY:127>  (65) 
hbond:GLY:127    0
hbond:GLY:127    0
Name: 64, dtype: object

>  <halogenbond:GLY:127>  (65) 
halogenbond:GLY:127    0
halogenbond:GLY:127    0
Name: 64, dtype: object

>  <hydroph_interaction:GLY:127>  (65) 
hydroph_interaction:GLY:127    0
hydroph_interaction:GLY:127    0
Name: 64, dtype: object

>  <hbond:GLY:128>  (65) 
hbond:GLY:128    0
hbond:GLY:128    0
Name: 64, dtype: object

>  <halogenbond:GLY:128>  (65) 
halogenbond:GLY:128    0
halogenbond:GLY:128    0
Name: 64, dtype: object

>  <hydroph_interaction:GLY:128>  (65) 
hydroph_interaction:GLY:128    0
hydroph_interaction:GLY:128    0
Name: 64, dtype: object

>  <hbond:ASN:129>  (65) 
hbond:ASN:129    0
hbond:ASN:129    0
Name: 64, dtype: object

>  <hydroph_interaction:ASN:129>  (65) 
hydroph_interaction:ASN:129    0
hydroph_interaction:ASN:129    0
Name: 64, dtype: object

>  <halogenbond:ASN:129>  (65) 
halogenbond:ASN:129    0
halogenbond:ASN:129    0
Name: 64, dtype: object

>  <hbond:GLY:130>  (65) 
hbond:GLY:130    0
hbond:GLY:130    0
Name: 64, dtype: object

>  <hydroph_interaction:LEU:131>  (65) 
hydroph_interaction:LEU:131    0
hydroph_interaction:LEU:131    0
Name: 64, dtype: object

>  <hbond:LEU:131>  (65) 
hbond:LEU:131    0
hbond:LEU:131    0
Name: 64, dtype: object

>  <halogenbond:LEU:131>  (65) 
halogenbond:LEU:131    0
halogenbond:LEU:131    0
Name: 64, dtype: object

>  <hydroph_interaction:VAL:132>  (65) 
hydroph_interaction:VAL:132    0
hydroph_interaction:VAL:132    0
Name: 64, dtype: object

>  <hbond:VAL:132>  (65) 
hbond:VAL:132    0
hbond:VAL:132    0
Name: 64, dtype: object

>  <hbond:GLY:133>  (65) 
hbond:GLY:133    0
hbond:GLY:133    0
Name: 64, dtype: object

>  <halogenbond:GLY:133>  (65) 
halogenbond:GLY:133    0
halogenbond:GLY:133    0
Name: 64, dtype: object

>  <hydroph_interaction:PHE:134>  (65) 
hydroph_interaction:PHE:134    0
hydroph_interaction:PHE:134    0
Name: 64, dtype: object

>  <hbond:PHE:134>  (65) 
hbond:PHE:134    0
hbond:PHE:134    0
Name: 64, dtype: object

>  <pistack:PHE:134>  (65) 
pistack:PHE:134    0
pistack:PHE:134    0
Name: 64, dtype: object

>  <pication:PHE:134>  (65) 
pication:PHE:134    0
pication:PHE:134    0
Name: 64, dtype: object

>  <hydroph_interaction:ALA:135>  (65) 
hydroph_interaction:ALA:135    0
hydroph_interaction:ALA:135    0
Name: 64, dtype: object

>  <hbond:ALA:135>  (65) 
hbond:ALA:135    0
hbond:ALA:135    0
Name: 64, dtype: object

$$$$
PV_004381174380
     RDKit          3D

 27 28  0  0  0  0  0  0  0  0999 V2000
   12.0930   15.7580   21.7410 C   0  0  0  0  0  0  0  0  0  0  0  0
   11.2750   14.4910   21.9110 C   0  0  0  0  0  0  0  0  0  0  0  0
   10.8760   13.9600   23.1500 C   0  0  0  0  0  0  0  0  0  0  0  0
   11.2290   14.6110   24.3150 C   0  0  0  0  0  0  0  0  0  0  0  0
   10.1370   12.7440   23.3970 C   0  0  0  0  0  0  0  0  0  0  0  0
   10.5090   11.6000   22.7800 N   0  0  0  0  0  0  0  0  0  0  0  0
    9.6420   10.6260   23.2550 N   0  0  0  0  0  0  0  0  0  0  0  0
    9.7940    9.2920   22.7840 C   0  0  0  0  0  0  0  0  0  0  0  0
    8.7670   11.1560   24.1280 C   0  0  0  0  0  0  0  0  0  0  0  0
    7.7210   10.5720   24.8710 C   0  0  0  0  0  0  0  0  0  0  0  0
    6.9550   11.3700   25.7040 C   0  0  0  0  0  0  0  0  0  0  0  0
    7.2570   12.7140   25.7720 C   0  0  0  0  0  0  0  0  0  0  0  0
    8.2520   13.3290   25.0910 N   0  0  0  0  0  0  0  0  0  0  0  0
    8.9970   12.5250   24.2740 C   0  0  0  0  0  0  0  0  0  0  0  0
   12.9610   15.5680   21.0980 H   0  0  0  0  0  0  0  0  0  0  0  0
   11.5120   16.5550   21.2740 H   0  0  0  0  0  0  0  0  0  0  0  0
   12.4310   16.1290   22.7140 H   0  0  0  0  0  0  0  0  0  0  0  0
   10.9620   13.9140   21.0370 H   0  0  0  0  0  0  0  0  0  0  0  0
   11.6740   15.5970   24.2080 H   0  0  0  0  0  0  0  0  0  0  0  0
   11.9200   14.1130   24.9700 H   0  0  0  0  0  0  0  0  0  0  0  0
   10.3270   14.7820   24.9000 H   0  0  0  0  0  0  0  0  0  0  0  0
   10.2160    9.3310   21.7830 H   0  0  0  0  0  0  0  0  0  0  0  0
    8.8090    8.8340   22.7600 H   0  0  0  0  0  0  0  0  0  0  0  0
   10.4570    8.7410   23.4510 H   0  0  0  0  0  0  0  0  0  0  0  0
    7.5120    9.5180   24.7980 H   0  0  0  0  0  0  0  0  0  0  0  0
    6.1390   10.9510   26.2860 H   0  0  0  0  0  0  0  0  0  0  0  0
    6.6760   13.3720   26.4130 H   0  0  0  0  0  0  0  0  0  0  0  0
  1  2  1  0
  2  3  2  3
  3  4  1  0
  3  5  1  0
  5  6  2  0
  6  7  1  0
  7  8  1  0
  7  9  1  0
  9 10  2  0
 10 11  1  0
 11 12  2  0
 12 13  1  0
 13 14  2  0
 14  5  1  0
 14  9  1  0
  1 15  1  0
  1 16  1  0
  1 17  1  0
  2 18  1  0
  4 19  1  0
  4 20  1  0
  4 21  1  0
  8 22  1  0
  8 23  1  0
  8 24  1  0
 10 25  1  0
 11 26  1  0
 12 27  1  0
A    1
 C1 
A    2
 C2 
A    3
 C3 
A    4
 C4 
A    5
 C5 
A    6
 N1 
A    7
 N2 
A    8
 C6 
A    9
 C7 
A   10
 C8 
A   11
 C9 
A   12
 C10
A   13
 N3 
A   14
 C11
A   15
 H1 
A   16
 H2 
A   17
 H3 
A   18
 H4 
A   19
 H5 
A   20
 H6 
A   21
 H7 
A   22
 H8 
A   23
 H9 
A   24
 H10
A   25
 H11
A   26
 H12
A   27
 H13
M  END
>  <ref_pdb>  (66) 
x0310_0A

>  <ref_mols>  (66) 
x0451_0A,x0528_0A

>  <original SMILES>  (66) 
CC=C(C)c1nn(C)c2cccnc12

>  <rationale>  (66) 
info hydroph_interaction:P107+Y90; 

>  <intxn_cluster>  (66) 
208

>  <intxn_cluster_rank>  (66) 
350

>  <N_interactions>  (66) 
2

>  <∆∆G>  (66) 
-9.465866

>  <$/mg>  (66) 
nan

>  <comRMSD>  (66) 
0.783321

>  <N_rotatable_bonds>  (66) 
4

>  <hbond:SER:7>  (66) 
hbond:SER:7    0
hbond:SER:7    0
Name: 65, dtype: object

>  <halogenbond:SER:7>  (66) 
halogenbond:SER:7    0
halogenbond:SER:7    0
Name: 65, dtype: object

>  <hbond:GLY:8>  (66) 
hbond:GLY:8    0
hbond:GLY:8    0
Name: 65, dtype: object

>  <hydroph_interaction:ASN:19>  (66) 
hydroph_interaction:ASN:19    0
hydroph_interaction:ASN:19    0
Name: 65, dtype: object

>  <hbond:ASN:19>  (66) 
hbond:ASN:19    0
hbond:ASN:19    0
Name: 65, dtype: object

>  <halogenbond:ASN:19>  (66) 
halogenbond:ASN:19    0
halogenbond:ASN:19    0
Name: 65, dtype: object

>  <hbond:ARG:20>  (66) 
hbond:ARG:20    0
hbond:ARG:20    0
Name: 65, dtype: object

>  <hydroph_interaction:ARG:20>  (66) 
hydroph_interaction:ARG:20    0
hydroph_interaction:ARG:20    0
Name: 65, dtype: object

>  <saltbridge:ARG:20>  (66) 
saltbridge:ARG:20    0
saltbridge:ARG:20    0
Name: 65, dtype: object

>  <halogenbond:ARG:20>  (66) 
halogenbond:ARG:20    0
halogenbond:ARG:20    0
Name: 65, dtype: object

>  <pication:ARG:20>  (66) 
pication:ARG:20    0
pication:ARG:20    0
Name: 65, dtype: object

>  <hbond:HIS:21>  (66) 
hbond:HIS:21    0
hbond:HIS:21    0
Name: 65, dtype: object

>  <hydroph_interaction:HIS:21>  (66) 
hydroph_interaction:HIS:21    0
hydroph_interaction:HIS:21    0
Name: 65, dtype: object

>  <saltbridge:HIS:21>  (66) 
saltbridge:HIS:21    0
saltbridge:HIS:21    0
Name: 65, dtype: object

>  <pistack:HIS:21>  (66) 
pistack:HIS:21    0
pistack:HIS:21    0
Name: 65, dtype: object

>  <pication:HIS:21>  (66) 
pication:HIS:21    0
pication:HIS:21    0
Name: 65, dtype: object

>  <halogenbond:HIS:21>  (66) 
halogenbond:HIS:21    0
halogenbond:HIS:21    0
Name: 65, dtype: object

>  <hydroph_interaction:LEU:22>  (66) 
hydroph_interaction:LEU:22    0
hydroph_interaction:LEU:22    0
Name: 65, dtype: object

>  <hbond:LEU:22>  (66) 
hbond:LEU:22    0
hbond:LEU:22    0
Name: 65, dtype: object

>  <hydroph_interaction:TRP:28>  (66) 
hydroph_interaction:TRP:28    0
hydroph_interaction:TRP:28    0
Name: 65, dtype: object

>  <hbond:SER:36>  (66) 
hbond:SER:36    0
hbond:SER:36    0
Name: 65, dtype: object

>  <halogenbond:SER:36>  (66) 
halogenbond:SER:36    0
halogenbond:SER:36    0
Name: 65, dtype: object

>  <hbond:ARG:38>  (66) 
hbond:ARG:38    0
hbond:ARG:38    0
Name: 65, dtype: object

>  <halogenbond:ARG:38>  (66) 
halogenbond:ARG:38    0
halogenbond:ARG:38    0
Name: 65, dtype: object

>  <hbond:ASP:39>  (66) 
hbond:ASP:39    0
hbond:ASP:39    0
Name: 65, dtype: object

>  <saltbridge:ASP:39>  (66) 
saltbridge:ASP:39    0
saltbridge:ASP:39    0
Name: 65, dtype: object

>  <hydroph_interaction:ASP:39>  (66) 
hydroph_interaction:ASP:39    0
hydroph_interaction:ASP:39    0
Name: 65, dtype: object

>  <halogenbond:ASP:39>  (66) 
halogenbond:ASP:39    0
halogenbond:ASP:39    0
Name: 65, dtype: object

>  <hydroph_interaction:LEU:40>  (66) 
hydroph_interaction:LEU:40    0
hydroph_interaction:LEU:40    0
Name: 65, dtype: object

>  <hydroph_interaction:TYR:63>  (66) 
hydroph_interaction:TYR:63    0
hydroph_interaction:TYR:63    0
Name: 65, dtype: object

>  <pistack:TYR:63>  (66) 
pistack:TYR:63    0
pistack:TYR:63    0
Name: 65, dtype: object

>  <hbond:TYR:63>  (66) 
hbond:TYR:63    0
hbond:TYR:63    0
Name: 65, dtype: object

>  <hbond:TYR:64>  (66) 
hbond:TYR:64    0
hbond:TYR:64    0
Name: 65, dtype: object

>  <halogenbond:TYR:64>  (66) 
halogenbond:TYR:64    0
halogenbond:TYR:64    0
Name: 65, dtype: object

>  <hydroph_interaction:TYR:64>  (66) 
hydroph_interaction:TYR:64    0
hydroph_interaction:TYR:64    0
Name: 65, dtype: object

>  <hbond:CYS:65>  (66) 
hbond:CYS:65    0
hbond:CYS:65    0
Name: 65, dtype: object

>  <halogenbond:CYS:65>  (66) 
halogenbond:CYS:65    0
halogenbond:CYS:65    0
Name: 65, dtype: object

>  <hbond:SER:66>  (66) 
hbond:SER:66    0
hbond:SER:66    0
Name: 65, dtype: object

>  <hbond:SER:67>  (66) 
hbond:SER:67    0
hbond:SER:67    0
Name: 65, dtype: object

>  <halogenbond:SER:67>  (66) 
halogenbond:SER:67    0
halogenbond:SER:67    0
Name: 65, dtype: object

>  <hydroph_interaction:ARG:68>  (66) 
hydroph_interaction:ARG:68    0
hydroph_interaction:ARG:68    0
Name: 65, dtype: object

>  <hbond:ARG:68>  (66) 
hbond:ARG:68    0
hbond:ARG:68    0
Name: 65, dtype: object

>  <saltbridge:ARG:68>  (66) 
saltbridge:ARG:68    0
saltbridge:ARG:68    0
Name: 65, dtype: object

>  <pication:ARG:68>  (66) 
pication:ARG:68    0
pication:ARG:68    0
Name: 65, dtype: object

>  <hydroph_interaction:TYR:72>  (66) 
hydroph_interaction:TYR:72    0
hydroph_interaction:TYR:72    0
Name: 65, dtype: object

>  <hydroph_interaction:VAL:74>  (66) 
hydroph_interaction:VAL:74    0
hydroph_interaction:VAL:74    0
Name: 65, dtype: object

>  <hydroph_interaction:PHE:76>  (66) 
hydroph_interaction:PHE:76    0
hydroph_interaction:PHE:76    0
Name: 65, dtype: object

>  <hbond:SER:77>  (66) 
hbond:SER:77    0
hbond:SER:77    0
Name: 65, dtype: object

>  <hbond:SER:80>  (66) 
hbond:SER:80    0
hbond:SER:80    0
Name: 65, dtype: object

>  <hbond:LEU:81>  (66) 
hbond:LEU:81    0
hbond:LEU:81    0
Name: 65, dtype: object

>  <halogenbond:LEU:81>  (66) 
halogenbond:LEU:81    0
halogenbond:LEU:81    0
Name: 65, dtype: object

>  <hydroph_interaction:LEU:81>  (66) 
hydroph_interaction:LEU:81    0
hydroph_interaction:LEU:81    0
Name: 65, dtype: object

>  <hydroph_interaction:ILE:82>  (66) 
hydroph_interaction:ILE:82    0
hydroph_interaction:ILE:82    0
Name: 65, dtype: object

>  <hbond:ILE:82>  (66) 
hbond:ILE:82    0
hbond:ILE:82    0
Name: 65, dtype: object

>  <hydroph_interaction:PHE:83>  (66) 
hydroph_interaction:PHE:83    0
hydroph_interaction:PHE:83    0
Name: 65, dtype: object

>  <hbond:PHE:83>  (66) 
hbond:PHE:83    0
hbond:PHE:83    0
Name: 65, dtype: object

>  <halogenbond:PHE:83>  (66) 
halogenbond:PHE:83    0
halogenbond:PHE:83    0
Name: 65, dtype: object

>  <pistack:PHE:83>  (66) 
pistack:PHE:83    0
pistack:PHE:83    0
Name: 65, dtype: object

>  <hydroph_interaction:VAL:84>  (66) 
hydroph_interaction:VAL:84    0
hydroph_interaction:VAL:84    0
Name: 65, dtype: object

>  <hbond:VAL:84>  (66) 
hbond:VAL:84    0
hbond:VAL:84    0
Name: 65, dtype: object

>  <halogenbond:VAL:84>  (66) 
halogenbond:VAL:84    0
halogenbond:VAL:84    0
Name: 65, dtype: object

>  <hydroph_interaction:GLU:85>  (66) 
hydroph_interaction:GLU:85    0
hydroph_interaction:GLU:85    0
Name: 65, dtype: object

>  <hbond:GLU:85>  (66) 
hbond:GLU:85    0
hbond:GLU:85    0
Name: 65, dtype: object

>  <saltbridge:GLU:85>  (66) 
saltbridge:GLU:85    0
saltbridge:GLU:85    0
Name: 65, dtype: object

>  <halogenbond:GLU:85>  (66) 
halogenbond:GLU:85    0
halogenbond:GLU:85    0
Name: 65, dtype: object

>  <hbond:ALA:86>  (66) 
hbond:ALA:86    0
hbond:ALA:86    0
Name: 65, dtype: object

>  <halogenbond:ALA:86>  (66) 
halogenbond:ALA:86    0
halogenbond:ALA:86    0
Name: 65, dtype: object

>  <hydroph_interaction:ALA:86>  (66) 
hydroph_interaction:ALA:86    0
hydroph_interaction:ALA:86    0
Name: 65, dtype: object

>  <hbond:SER:87>  (66) 
hbond:SER:87    0
hbond:SER:87    0
Name: 65, dtype: object

>  <halogenbond:SER:87>  (66) 
halogenbond:SER:87    0
halogenbond:SER:87    0
Name: 65, dtype: object

>  <hbond:GLU:88>  (66) 
hbond:GLU:88    0
hbond:GLU:88    0
Name: 65, dtype: object

>  <hydroph_interaction:GLU:88>  (66) 
hydroph_interaction:GLU:88    0
hydroph_interaction:GLU:88    0
Name: 65, dtype: object

>  <halogenbond:GLU:88>  (66) 
halogenbond:GLU:88    0
halogenbond:GLU:88    0
Name: 65, dtype: object

>  <saltbridge:GLU:88>  (66) 
saltbridge:GLU:88    0
saltbridge:GLU:88    0
Name: 65, dtype: object

>  <hydroph_interaction:TYR:89>  (66) 
hydroph_interaction:TYR:89    0
hydroph_interaction:TYR:89    0
Name: 65, dtype: object

>  <pistack:TYR:89>  (66) 
pistack:TYR:89    0
pistack:TYR:89    0
Name: 65, dtype: object

>  <hbond:TYR:89>  (66) 
hbond:TYR:89    0
hbond:TYR:89    0
Name: 65, dtype: object

>  <halogenbond:TYR:89>  (66) 
halogenbond:TYR:89    0
halogenbond:TYR:89    0
Name: 65, dtype: object

>  <hbond:TYR:90>  (66) 
hbond:TYR:90    0
hbond:TYR:90    0
Name: 65, dtype: object

>  <hydroph_interaction:TYR:90>  (66) 
hydroph_interaction:TYR:90    1
hydroph_interaction:TYR:90    1
Name: 65, dtype: object

>  <pistack:TYR:90>  (66) 
pistack:TYR:90    0
pistack:TYR:90    0
Name: 65, dtype: object

>  <halogenbond:TYR:90>  (66) 
halogenbond:TYR:90    0
halogenbond:TYR:90    0
Name: 65, dtype: object

>  <pication:TYR:90>  (66) 
pication:TYR:90    0
pication:TYR:90    0
Name: 65, dtype: object

>  <hydroph_interaction:PRO:91>  (66) 
hydroph_interaction:PRO:91    0
hydroph_interaction:PRO:91    0
Name: 65, dtype: object

>  <halogenbond:PRO:91>  (66) 
halogenbond:PRO:91    0
halogenbond:PRO:91    0
Name: 65, dtype: object

>  <hbond:PRO:91>  (66) 
hbond:PRO:91    0
hbond:PRO:91    0
Name: 65, dtype: object

>  <hydroph_interaction:ALA:92>  (66) 
hydroph_interaction:ALA:92    0
hydroph_interaction:ALA:92    0
Name: 65, dtype: object

>  <hbond:ARG:93>  (66) 
hbond:ARG:93    0
hbond:ARG:93    0
Name: 65, dtype: object

>  <pication:ARG:93>  (66) 
pication:ARG:93    0
pication:ARG:93    0
Name: 65, dtype: object

>  <saltbridge:ARG:93>  (66) 
saltbridge:ARG:93    0
saltbridge:ARG:93    0
Name: 65, dtype: object

>  <hydroph_interaction:ARG:93>  (66) 
hydroph_interaction:ARG:93    0
hydroph_interaction:ARG:93    0
Name: 65, dtype: object

>  <halogenbond:ARG:93>  (66) 
halogenbond:ARG:93    0
halogenbond:ARG:93    0
Name: 65, dtype: object

>  <hydroph_interaction:TYR:94>  (66) 
hydroph_interaction:TYR:94    0
hydroph_interaction:TYR:94    0
Name: 65, dtype: object

>  <hbond:TYR:94>  (66) 
hbond:TYR:94    0
hbond:TYR:94    0
Name: 65, dtype: object

>  <halogenbond:GLN:95>  (66) 
halogenbond:GLN:95    0
halogenbond:GLN:95    0
Name: 65, dtype: object

>  <hbond:GLN:95>  (66) 
hbond:GLN:95    0
hbond:GLN:95    0
Name: 65, dtype: object

>  <hydroph_interaction:GLN:95>  (66) 
hydroph_interaction:GLN:95    0
hydroph_interaction:GLN:95    0
Name: 65, dtype: object

>  <hbond:SER:96>  (66) 
hbond:SER:96    0
hbond:SER:96    0
Name: 65, dtype: object

>  <hydroph_interaction:LEU:98>  (66) 
hydroph_interaction:LEU:98    0
hydroph_interaction:LEU:98    0
Name: 65, dtype: object

>  <hbond:LEU:98>  (66) 
hbond:LEU:98    0
hbond:LEU:98    0
Name: 65, dtype: object

>  <hbond:MET:99>  (66) 
hbond:MET:99    0
hbond:MET:99    0
Name: 65, dtype: object

>  <hydroph_interaction:MET:99>  (66) 
hydroph_interaction:MET:99    0
hydroph_interaction:MET:99    0
Name: 65, dtype: object

>  <halogenbond:MET:99>  (66) 
halogenbond:MET:99    0
halogenbond:MET:99    0
Name: 65, dtype: object

>  <hydroph_interaction:LEU:100>  (66) 
hydroph_interaction:LEU:100    0
hydroph_interaction:LEU:100    0
Name: 65, dtype: object

>  <hbond:LEU:100>  (66) 
hbond:LEU:100    0
hbond:LEU:100    0
Name: 65, dtype: object

>  <hbond:ALA:101>  (66) 
hbond:ALA:101    0
hbond:ALA:101    0
Name: 65, dtype: object

>  <hydroph_interaction:ALA:101>  (66) 
hydroph_interaction:ALA:101    0
hydroph_interaction:ALA:101    0
Name: 65, dtype: object

>  <hydroph_interaction:VAL:102>  (66) 
hydroph_interaction:VAL:102    0
hydroph_interaction:VAL:102    0
Name: 65, dtype: object

>  <hbond:VAL:102>  (66) 
hbond:VAL:102    0
hbond:VAL:102    0
Name: 65, dtype: object

>  <hbond:GLY:103>  (66) 
hbond:GLY:103    0
hbond:GLY:103    0
Name: 65, dtype: object

>  <halogenbond:GLY:103>  (66) 
halogenbond:GLY:103    0
halogenbond:GLY:103    0
Name: 65, dtype: object

>  <hydroph_interaction:HIS:104>  (66) 
hydroph_interaction:HIS:104    0
hydroph_interaction:HIS:104    0
Name: 65, dtype: object

>  <hbond:HIS:104>  (66) 
hbond:HIS:104    0
hbond:HIS:104    0
Name: 65, dtype: object

>  <saltbridge:HIS:104>  (66) 
saltbridge:HIS:104    0
saltbridge:HIS:104    0
Name: 65, dtype: object

>  <pication:HIS:104>  (66) 
pication:HIS:104    0
pication:HIS:104    0
Name: 65, dtype: object

>  <pistack:HIS:104>  (66) 
pistack:HIS:104    0
pistack:HIS:104    0
Name: 65, dtype: object

>  <halogenbond:HIS:104>  (66) 
halogenbond:HIS:104    0
halogenbond:HIS:104    0
Name: 65, dtype: object

>  <hbond:SER:105>  (66) 
hbond:SER:105    0
hbond:SER:105    0
Name: 65, dtype: object

>  <halogenbond:SER:105>  (66) 
halogenbond:SER:105    0
halogenbond:SER:105    0
Name: 65, dtype: object

>  <hbond:GLU:106>  (66) 
hbond:GLU:106    0
hbond:GLU:106    0
Name: 65, dtype: object

>  <hydroph_interaction:GLU:106>  (66) 
hydroph_interaction:GLU:106    0
hydroph_interaction:GLU:106    0
Name: 65, dtype: object

>  <saltbridge:GLU:106>  (66) 
saltbridge:GLU:106    0
saltbridge:GLU:106    0
Name: 65, dtype: object

>  <halogenbond:GLU:106>  (66) 
halogenbond:GLU:106    0
halogenbond:GLU:106    0
Name: 65, dtype: object

>  <hydroph_interaction:PRO:107>  (66) 
hydroph_interaction:PRO:107    1
hydroph_interaction:PRO:107    1
Name: 65, dtype: object

>  <hbond:PRO:107>  (66) 
hbond:PRO:107    0
hbond:PRO:107    0
Name: 65, dtype: object

>  <halogenbond:PRO:107>  (66) 
halogenbond:PRO:107    0
halogenbond:PRO:107    0
Name: 65, dtype: object

>  <hbond:GLY:108>  (66) 
hbond:GLY:108    0
hbond:GLY:108    0
Name: 65, dtype: object

>  <halogenbond:GLY:108>  (66) 
halogenbond:GLY:108    0
halogenbond:GLY:108    0
Name: 65, dtype: object

>  <hbond:ASP:109>  (66) 
hbond:ASP:109    0
hbond:ASP:109    0
Name: 65, dtype: object

>  <hydroph_interaction:ASP:109>  (66) 
hydroph_interaction:ASP:109    0
hydroph_interaction:ASP:109    0
Name: 65, dtype: object

>  <saltbridge:ASP:109>  (66) 
saltbridge:ASP:109    0
saltbridge:ASP:109    0
Name: 65, dtype: object

>  <hbond:CYS:110>  (66) 
hbond:CYS:110    0
hbond:CYS:110    0
Name: 65, dtype: object

>  <halogenbond:CYS:110>  (66) 
halogenbond:CYS:110    0
halogenbond:CYS:110    0
Name: 65, dtype: object

>  <hbond:GLY:111>  (66) 
hbond:GLY:111    0
hbond:GLY:111    0
Name: 65, dtype: object

>  <hbond:GLY:112>  (66) 
hbond:GLY:112    0
hbond:GLY:112    0
Name: 65, dtype: object

>  <hbond:ILE:113>  (66) 
hbond:ILE:113    0
hbond:ILE:113    0
Name: 65, dtype: object

>  <hydroph_interaction:LEU:114>  (66) 
hydroph_interaction:LEU:114    0
hydroph_interaction:LEU:114    0
Name: 65, dtype: object

>  <hbond:LEU:114>  (66) 
hbond:LEU:114    0
hbond:LEU:114    0
Name: 65, dtype: object

>  <hydroph_interaction:ILE:123>  (66) 
hydroph_interaction:ILE:123    0
hydroph_interaction:ILE:123    0
Name: 65, dtype: object

>  <hbond:ILE:123>  (66) 
hbond:ILE:123    0
hbond:ILE:123    0
Name: 65, dtype: object

>  <hydroph_interaction:VAL:124>  (66) 
hydroph_interaction:VAL:124    0
hydroph_interaction:VAL:124    0
Name: 65, dtype: object

>  <hbond:VAL:124>  (66) 
hbond:VAL:124    0
hbond:VAL:124    0
Name: 65, dtype: object

>  <halogenbond:VAL:124>  (66) 
halogenbond:VAL:124    0
halogenbond:VAL:124    0
Name: 65, dtype: object

>  <hbond:SER:125>  (66) 
hbond:SER:125    0
hbond:SER:125    0
Name: 65, dtype: object

>  <halogenbond:SER:125>  (66) 
halogenbond:SER:125    0
halogenbond:SER:125    0
Name: 65, dtype: object

>  <hydroph_interaction:THR:126>  (66) 
hydroph_interaction:THR:126    0
hydroph_interaction:THR:126    0
Name: 65, dtype: object

>  <hbond:THR:126>  (66) 
hbond:THR:126    0
hbond:THR:126    0
Name: 65, dtype: object

>  <halogenbond:THR:126>  (66) 
halogenbond:THR:126    0
halogenbond:THR:126    0
Name: 65, dtype: object

>  <hbond:GLY:127>  (66) 
hbond:GLY:127    0
hbond:GLY:127    0
Name: 65, dtype: object

>  <halogenbond:GLY:127>  (66) 
halogenbond:GLY:127    0
halogenbond:GLY:127    0
Name: 65, dtype: object

>  <hydroph_interaction:GLY:127>  (66) 
hydroph_interaction:GLY:127    0
hydroph_interaction:GLY:127    0
Name: 65, dtype: object

>  <hbond:GLY:128>  (66) 
hbond:GLY:128    0
hbond:GLY:128    0
Name: 65, dtype: object

>  <halogenbond:GLY:128>  (66) 
halogenbond:GLY:128    0
halogenbond:GLY:128    0
Name: 65, dtype: object

>  <hydroph_interaction:GLY:128>  (66) 
hydroph_interaction:GLY:128    0
hydroph_interaction:GLY:128    0
Name: 65, dtype: object

>  <hbond:ASN:129>  (66) 
hbond:ASN:129    0
hbond:ASN:129    0
Name: 65, dtype: object

>  <hydroph_interaction:ASN:129>  (66) 
hydroph_interaction:ASN:129    0
hydroph_interaction:ASN:129    0
Name: 65, dtype: object

>  <halogenbond:ASN:129>  (66) 
halogenbond:ASN:129    0
halogenbond:ASN:129    0
Name: 65, dtype: object

>  <hbond:GLY:130>  (66) 
hbond:GLY:130    0
hbond:GLY:130    0
Name: 65, dtype: object

>  <hydroph_interaction:LEU:131>  (66) 
hydroph_interaction:LEU:131    0
hydroph_interaction:LEU:131    0
Name: 65, dtype: object

>  <hbond:LEU:131>  (66) 
hbond:LEU:131    0
hbond:LEU:131    0
Name: 65, dtype: object

>  <halogenbond:LEU:131>  (66) 
halogenbond:LEU:131    0
halogenbond:LEU:131    0
Name: 65, dtype: object

>  <hydroph_interaction:VAL:132>  (66) 
hydroph_interaction:VAL:132    0
hydroph_interaction:VAL:132    0
Name: 65, dtype: object

>  <hbond:VAL:132>  (66) 
hbond:VAL:132    0
hbond:VAL:132    0
Name: 65, dtype: object

>  <hbond:GLY:133>  (66) 
hbond:GLY:133    0
hbond:GLY:133    0
Name: 65, dtype: object

>  <halogenbond:GLY:133>  (66) 
halogenbond:GLY:133    0
halogenbond:GLY:133    0
Name: 65, dtype: object

>  <hydroph_interaction:PHE:134>  (66) 
hydroph_interaction:PHE:134    0
hydroph_interaction:PHE:134    0
Name: 65, dtype: object

>  <hbond:PHE:134>  (66) 
hbond:PHE:134    0
hbond:PHE:134    0
Name: 65, dtype: object

>  <pistack:PHE:134>  (66) 
pistack:PHE:134    0
pistack:PHE:134    0
Name: 65, dtype: object

>  <pication:PHE:134>  (66) 
pication:PHE:134    0
pication:PHE:134    0
Name: 65, dtype: object

>  <hydroph_interaction:ALA:135>  (66) 
hydroph_interaction:ALA:135    0
hydroph_interaction:ALA:135    0
Name: 65, dtype: object

>  <hbond:ALA:135>  (66) 
hbond:ALA:135    0
hbond:ALA:135    0
Name: 65, dtype: object

$$$$
PV_002966663735
     RDKit          3D

 23 24  0  0  0  0  0  0  0  0999 V2000
   12.1570   15.2540   21.9510 C   0  0  0  0  0  0  0  0  0  0  0  0
   11.4730   14.1870   22.7650 C   0  0  0  0  0  0  0  0  0  0  0  0
   11.9760   14.0810   24.1630 C   0  0  0  0  0  0  0  0  0  0  0  0
   10.4990   13.3850   22.3120 C   0  0  0  0  0  0  0  0  0  0  0  0
    9.8100   12.3130   23.0500 C   0  0  0  0  0  0  0  0  0  0  0  0
   10.1050   10.9520   22.8280 C   0  0  0  0  0  0  0  0  0  0  0  0
    9.4410    9.9540   23.5270 C   0  0  0  0  0  0  0  0  0  0  0  0
    8.4760   10.2480   24.4560 C   0  0  0  0  0  0  0  0  0  0  0  0
    8.1550   11.5600   24.7070 C   0  0  0  0  0  0  0  0  0  0  0  0
    7.2260   11.9400   25.5970 N   0  0  0  0  0  0  0  0  0  0  0  0
    7.2080   13.5850   25.5290 S   0  0  0  0  0  0  0  0  0  0  0  0
    8.3710   13.8120   24.3810 N   0  0  0  0  0  0  0  0  0  0  0  0
    8.8010   12.6010   24.0230 C   0  0  0  0  0  0  0  0  0  0  0  0
   12.3750   16.1250   22.5790 H   0  0  0  0  0  0  0  0  0  0  0  0
   11.5070   15.5760   21.1310 H   0  0  0  0  0  0  0  0  0  0  0  0
   13.0990   14.9280   21.5090 H   0  0  0  0  0  0  0  0  0  0  0  0
   12.7200   13.2810   24.2280 H   0  0  0  0  0  0  0  0  0  0  0  0
   11.1490   13.8590   24.8430 H   0  0  0  0  0  0  0  0  0  0  0  0
   12.4500   15.0090   24.5060 H   0  0  0  0  0  0  0  0  0  0  0  0
   10.1560   13.5050   21.2910 H   0  0  0  0  0  0  0  0  0  0  0  0
   10.8520   10.6730   22.1050 H   0  0  0  0  0  0  0  0  0  0  0  0
    9.7600    8.9570   23.2650 H   0  0  0  0  0  0  0  0  0  0  0  0
    8.0210    9.3900   24.9400 H   0  0  0  0  0  0  0  0  0  0  0  0
  1  2  1  0
  2  3  1  0
  2  4  2  3
  4  5  1  0
  5  6  2  0
  6  7  1  0
  7  8  2  0
  8  9  1  0
  9 10  2  0
 10 11  1  0
 11 12  1  0
 12 13  2  0
 13  5  1  0
 13  9  1  0
  1 14  1  0
  1 15  1  0
  1 16  1  0
  3 17  1  0
  3 18  1  0
  3 19  1  0
  4 20  1  0
  6 21  1  0
  7 22  1  0
  8 23  1  0
A    1
 C1 
A    2
 C2 
A    3
 C3 
A    4
 C4 
A    5
 C5 
A    6
 C6 
A    7
 C7 
A    8
 C8 
A    9
 C9 
A   10
 N1 
A   11
 S1 
A   12
 N2 
A   13
 C10
A   14
 H1 
A   15
 H2 
A   16
 H3 
A   17
 H4 
A   18
 H5 
A   19
 H6 
A   20
 H7 
A   21
 H8 
A   22
 H9 
A   23
 H10
M  END
>  <ref_pdb>  (67) 
x0310_0A

>  <ref_mols>  (67) 
x0554_0A,x0739_0A

>  <original SMILES>  (67) 
CC(C)=Cc1cccc2nsnc12

>  <rationale>  (67) 
info hydroph_interaction:P107; 

>  <intxn_cluster>  (67) 
208

>  <intxn_cluster_rank>  (67) 
351

>  <N_interactions>  (67) 
1

>  <∆∆G>  (67) 
-8.673816

>  <$/mg>  (67) 
nan

>  <comRMSD>  (67) 
0.737331

>  <N_rotatable_bonds>  (67) 
3

>  <hbond:SER:7>  (67) 
hbond:SER:7    0
hbond:SER:7    0
Name: 66, dtype: object

>  <halogenbond:SER:7>  (67) 
halogenbond:SER:7    0
halogenbond:SER:7    0
Name: 66, dtype: object

>  <hbond:GLY:8>  (67) 
hbond:GLY:8    0
hbond:GLY:8    0
Name: 66, dtype: object

>  <hydroph_interaction:ASN:19>  (67) 
hydroph_interaction:ASN:19    0
hydroph_interaction:ASN:19    0
Name: 66, dtype: object

>  <hbond:ASN:19>  (67) 
hbond:ASN:19    0
hbond:ASN:19    0
Name: 66, dtype: object

>  <halogenbond:ASN:19>  (67) 
halogenbond:ASN:19    0
halogenbond:ASN:19    0
Name: 66, dtype: object

>  <hbond:ARG:20>  (67) 
hbond:ARG:20    0
hbond:ARG:20    0
Name: 66, dtype: object

>  <hydroph_interaction:ARG:20>  (67) 
hydroph_interaction:ARG:20    0
hydroph_interaction:ARG:20    0
Name: 66, dtype: object

>  <saltbridge:ARG:20>  (67) 
saltbridge:ARG:20    0
saltbridge:ARG:20    0
Name: 66, dtype: object

>  <halogenbond:ARG:20>  (67) 
halogenbond:ARG:20    0
halogenbond:ARG:20    0
Name: 66, dtype: object

>  <pication:ARG:20>  (67) 
pication:ARG:20    0
pication:ARG:20    0
Name: 66, dtype: object

>  <hbond:HIS:21>  (67) 
hbond:HIS:21    0
hbond:HIS:21    0
Name: 66, dtype: object

>  <hydroph_interaction:HIS:21>  (67) 
hydroph_interaction:HIS:21    0
hydroph_interaction:HIS:21    0
Name: 66, dtype: object

>  <saltbridge:HIS:21>  (67) 
saltbridge:HIS:21    0
saltbridge:HIS:21    0
Name: 66, dtype: object

>  <pistack:HIS:21>  (67) 
pistack:HIS:21    0
pistack:HIS:21    0
Name: 66, dtype: object

>  <pication:HIS:21>  (67) 
pication:HIS:21    0
pication:HIS:21    0
Name: 66, dtype: object

>  <halogenbond:HIS:21>  (67) 
halogenbond:HIS:21    0
halogenbond:HIS:21    0
Name: 66, dtype: object

>  <hydroph_interaction:LEU:22>  (67) 
hydroph_interaction:LEU:22    0
hydroph_interaction:LEU:22    0
Name: 66, dtype: object

>  <hbond:LEU:22>  (67) 
hbond:LEU:22    0
hbond:LEU:22    0
Name: 66, dtype: object

>  <hydroph_interaction:TRP:28>  (67) 
hydroph_interaction:TRP:28    0
hydroph_interaction:TRP:28    0
Name: 66, dtype: object

>  <hbond:SER:36>  (67) 
hbond:SER:36    0
hbond:SER:36    0
Name: 66, dtype: object

>  <halogenbond:SER:36>  (67) 
halogenbond:SER:36    0
halogenbond:SER:36    0
Name: 66, dtype: object

>  <hbond:ARG:38>  (67) 
hbond:ARG:38    0
hbond:ARG:38    0
Name: 66, dtype: object

>  <halogenbond:ARG:38>  (67) 
halogenbond:ARG:38    0
halogenbond:ARG:38    0
Name: 66, dtype: object

>  <hbond:ASP:39>  (67) 
hbond:ASP:39    0
hbond:ASP:39    0
Name: 66, dtype: object

>  <saltbridge:ASP:39>  (67) 
saltbridge:ASP:39    0
saltbridge:ASP:39    0
Name: 66, dtype: object

>  <hydroph_interaction:ASP:39>  (67) 
hydroph_interaction:ASP:39    0
hydroph_interaction:ASP:39    0
Name: 66, dtype: object

>  <halogenbond:ASP:39>  (67) 
halogenbond:ASP:39    0
halogenbond:ASP:39    0
Name: 66, dtype: object

>  <hydroph_interaction:LEU:40>  (67) 
hydroph_interaction:LEU:40    0
hydroph_interaction:LEU:40    0
Name: 66, dtype: object

>  <hydroph_interaction:TYR:63>  (67) 
hydroph_interaction:TYR:63    0
hydroph_interaction:TYR:63    0
Name: 66, dtype: object

>  <pistack:TYR:63>  (67) 
pistack:TYR:63    0
pistack:TYR:63    0
Name: 66, dtype: object

>  <hbond:TYR:63>  (67) 
hbond:TYR:63    0
hbond:TYR:63    0
Name: 66, dtype: object

>  <hbond:TYR:64>  (67) 
hbond:TYR:64    0
hbond:TYR:64    0
Name: 66, dtype: object

>  <halogenbond:TYR:64>  (67) 
halogenbond:TYR:64    0
halogenbond:TYR:64    0
Name: 66, dtype: object

>  <hydroph_interaction:TYR:64>  (67) 
hydroph_interaction:TYR:64    0
hydroph_interaction:TYR:64    0
Name: 66, dtype: object

>  <hbond:CYS:65>  (67) 
hbond:CYS:65    0
hbond:CYS:65    0
Name: 66, dtype: object

>  <halogenbond:CYS:65>  (67) 
halogenbond:CYS:65    0
halogenbond:CYS:65    0
Name: 66, dtype: object

>  <hbond:SER:66>  (67) 
hbond:SER:66    0
hbond:SER:66    0
Name: 66, dtype: object

>  <hbond:SER:67>  (67) 
hbond:SER:67    0
hbond:SER:67    0
Name: 66, dtype: object

>  <halogenbond:SER:67>  (67) 
halogenbond:SER:67    0
halogenbond:SER:67    0
Name: 66, dtype: object

>  <hydroph_interaction:ARG:68>  (67) 
hydroph_interaction:ARG:68    0
hydroph_interaction:ARG:68    0
Name: 66, dtype: object

>  <hbond:ARG:68>  (67) 
hbond:ARG:68    0
hbond:ARG:68    0
Name: 66, dtype: object

>  <saltbridge:ARG:68>  (67) 
saltbridge:ARG:68    0
saltbridge:ARG:68    0
Name: 66, dtype: object

>  <pication:ARG:68>  (67) 
pication:ARG:68    0
pication:ARG:68    0
Name: 66, dtype: object

>  <hydroph_interaction:TYR:72>  (67) 
hydroph_interaction:TYR:72    0
hydroph_interaction:TYR:72    0
Name: 66, dtype: object

>  <hydroph_interaction:VAL:74>  (67) 
hydroph_interaction:VAL:74    0
hydroph_interaction:VAL:74    0
Name: 66, dtype: object

>  <hydroph_interaction:PHE:76>  (67) 
hydroph_interaction:PHE:76    0
hydroph_interaction:PHE:76    0
Name: 66, dtype: object

>  <hbond:SER:77>  (67) 
hbond:SER:77    0
hbond:SER:77    0
Name: 66, dtype: object

>  <hbond:SER:80>  (67) 
hbond:SER:80    0
hbond:SER:80    0
Name: 66, dtype: object

>  <hbond:LEU:81>  (67) 
hbond:LEU:81    0
hbond:LEU:81    0
Name: 66, dtype: object

>  <halogenbond:LEU:81>  (67) 
halogenbond:LEU:81    0
halogenbond:LEU:81    0
Name: 66, dtype: object

>  <hydroph_interaction:LEU:81>  (67) 
hydroph_interaction:LEU:81    0
hydroph_interaction:LEU:81    0
Name: 66, dtype: object

>  <hydroph_interaction:ILE:82>  (67) 
hydroph_interaction:ILE:82    0
hydroph_interaction:ILE:82    0
Name: 66, dtype: object

>  <hbond:ILE:82>  (67) 
hbond:ILE:82    0
hbond:ILE:82    0
Name: 66, dtype: object

>  <hydroph_interaction:PHE:83>  (67) 
hydroph_interaction:PHE:83    0
hydroph_interaction:PHE:83    0
Name: 66, dtype: object

>  <hbond:PHE:83>  (67) 
hbond:PHE:83    0
hbond:PHE:83    0
Name: 66, dtype: object

>  <halogenbond:PHE:83>  (67) 
halogenbond:PHE:83    0
halogenbond:PHE:83    0
Name: 66, dtype: object

>  <pistack:PHE:83>  (67) 
pistack:PHE:83    0
pistack:PHE:83    0
Name: 66, dtype: object

>  <hydroph_interaction:VAL:84>  (67) 
hydroph_interaction:VAL:84    0
hydroph_interaction:VAL:84    0
Name: 66, dtype: object

>  <hbond:VAL:84>  (67) 
hbond:VAL:84    0
hbond:VAL:84    0
Name: 66, dtype: object

>  <halogenbond:VAL:84>  (67) 
halogenbond:VAL:84    0
halogenbond:VAL:84    0
Name: 66, dtype: object

>  <hydroph_interaction:GLU:85>  (67) 
hydroph_interaction:GLU:85    0
hydroph_interaction:GLU:85    0
Name: 66, dtype: object

>  <hbond:GLU:85>  (67) 
hbond:GLU:85    0
hbond:GLU:85    0
Name: 66, dtype: object

>  <saltbridge:GLU:85>  (67) 
saltbridge:GLU:85    0
saltbridge:GLU:85    0
Name: 66, dtype: object

>  <halogenbond:GLU:85>  (67) 
halogenbond:GLU:85    0
halogenbond:GLU:85    0
Name: 66, dtype: object

>  <hbond:ALA:86>  (67) 
hbond:ALA:86    0
hbond:ALA:86    0
Name: 66, dtype: object

>  <halogenbond:ALA:86>  (67) 
halogenbond:ALA:86    0
halogenbond:ALA:86    0
Name: 66, dtype: object

>  <hydroph_interaction:ALA:86>  (67) 
hydroph_interaction:ALA:86    0
hydroph_interaction:ALA:86    0
Name: 66, dtype: object

>  <hbond:SER:87>  (67) 
hbond:SER:87    0
hbond:SER:87    0
Name: 66, dtype: object

>  <halogenbond:SER:87>  (67) 
halogenbond:SER:87    0
halogenbond:SER:87    0
Name: 66, dtype: object

>  <hbond:GLU:88>  (67) 
hbond:GLU:88    0
hbond:GLU:88    0
Name: 66, dtype: object

>  <hydroph_interaction:GLU:88>  (67) 
hydroph_interaction:GLU:88    0
hydroph_interaction:GLU:88    0
Name: 66, dtype: object

>  <halogenbond:GLU:88>  (67) 
halogenbond:GLU:88    0
halogenbond:GLU:88    0
Name: 66, dtype: object

>  <saltbridge:GLU:88>  (67) 
saltbridge:GLU:88    0
saltbridge:GLU:88    0
Name: 66, dtype: object

>  <hydroph_interaction:TYR:89>  (67) 
hydroph_interaction:TYR:89    0
hydroph_interaction:TYR:89    0
Name: 66, dtype: object

>  <pistack:TYR:89>  (67) 
pistack:TYR:89    0
pistack:TYR:89    0
Name: 66, dtype: object

>  <hbond:TYR:89>  (67) 
hbond:TYR:89    0
hbond:TYR:89    0
Name: 66, dtype: object

>  <halogenbond:TYR:89>  (67) 
halogenbond:TYR:89    0
halogenbond:TYR:89    0
Name: 66, dtype: object

>  <hbond:TYR:90>  (67) 
hbond:TYR:90    0
hbond:TYR:90    0
Name: 66, dtype: object

>  <hydroph_interaction:TYR:90>  (67) 
hydroph_interaction:TYR:90    0
hydroph_interaction:TYR:90    0
Name: 66, dtype: object

>  <pistack:TYR:90>  (67) 
pistack:TYR:90    0
pistack:TYR:90    0
Name: 66, dtype: object

>  <halogenbond:TYR:90>  (67) 
halogenbond:TYR:90    0
halogenbond:TYR:90    0
Name: 66, dtype: object

>  <pication:TYR:90>  (67) 
pication:TYR:90    0
pication:TYR:90    0
Name: 66, dtype: object

>  <hydroph_interaction:PRO:91>  (67) 
hydroph_interaction:PRO:91    0
hydroph_interaction:PRO:91    0
Name: 66, dtype: object

>  <halogenbond:PRO:91>  (67) 
halogenbond:PRO:91    0
halogenbond:PRO:91    0
Name: 66, dtype: object

>  <hbond:PRO:91>  (67) 
hbond:PRO:91    0
hbond:PRO:91    0
Name: 66, dtype: object

>  <hydroph_interaction:ALA:92>  (67) 
hydroph_interaction:ALA:92    0
hydroph_interaction:ALA:92    0
Name: 66, dtype: object

>  <hbond:ARG:93>  (67) 
hbond:ARG:93    0
hbond:ARG:93    0
Name: 66, dtype: object

>  <pication:ARG:93>  (67) 
pication:ARG:93    0
pication:ARG:93    0
Name: 66, dtype: object

>  <saltbridge:ARG:93>  (67) 
saltbridge:ARG:93    0
saltbridge:ARG:93    0
Name: 66, dtype: object

>  <hydroph_interaction:ARG:93>  (67) 
hydroph_interaction:ARG:93    0
hydroph_interaction:ARG:93    0
Name: 66, dtype: object

>  <halogenbond:ARG:93>  (67) 
halogenbond:ARG:93    0
halogenbond:ARG:93    0
Name: 66, dtype: object

>  <hydroph_interaction:TYR:94>  (67) 
hydroph_interaction:TYR:94    0
hydroph_interaction:TYR:94    0
Name: 66, dtype: object

>  <hbond:TYR:94>  (67) 
hbond:TYR:94    0
hbond:TYR:94    0
Name: 66, dtype: object

>  <halogenbond:GLN:95>  (67) 
halogenbond:GLN:95    0
halogenbond:GLN:95    0
Name: 66, dtype: object

>  <hbond:GLN:95>  (67) 
hbond:GLN:95    0
hbond:GLN:95    0
Name: 66, dtype: object

>  <hydroph_interaction:GLN:95>  (67) 
hydroph_interaction:GLN:95    0
hydroph_interaction:GLN:95    0
Name: 66, dtype: object

>  <hbond:SER:96>  (67) 
hbond:SER:96    0
hbond:SER:96    0
Name: 66, dtype: object

>  <hydroph_interaction:LEU:98>  (67) 
hydroph_interaction:LEU:98    0
hydroph_interaction:LEU:98    0
Name: 66, dtype: object

>  <hbond:LEU:98>  (67) 
hbond:LEU:98    0
hbond:LEU:98    0
Name: 66, dtype: object

>  <hbond:MET:99>  (67) 
hbond:MET:99    0
hbond:MET:99    0
Name: 66, dtype: object

>  <hydroph_interaction:MET:99>  (67) 
hydroph_interaction:MET:99    0
hydroph_interaction:MET:99    0
Name: 66, dtype: object

>  <halogenbond:MET:99>  (67) 
halogenbond:MET:99    0
halogenbond:MET:99    0
Name: 66, dtype: object

>  <hydroph_interaction:LEU:100>  (67) 
hydroph_interaction:LEU:100    0
hydroph_interaction:LEU:100    0
Name: 66, dtype: object

>  <hbond:LEU:100>  (67) 
hbond:LEU:100    0
hbond:LEU:100    0
Name: 66, dtype: object

>  <hbond:ALA:101>  (67) 
hbond:ALA:101    0
hbond:ALA:101    0
Name: 66, dtype: object

>  <hydroph_interaction:ALA:101>  (67) 
hydroph_interaction:ALA:101    0
hydroph_interaction:ALA:101    0
Name: 66, dtype: object

>  <hydroph_interaction:VAL:102>  (67) 
hydroph_interaction:VAL:102    0
hydroph_interaction:VAL:102    0
Name: 66, dtype: object

>  <hbond:VAL:102>  (67) 
hbond:VAL:102    0
hbond:VAL:102    0
Name: 66, dtype: object

>  <hbond:GLY:103>  (67) 
hbond:GLY:103    0
hbond:GLY:103    0
Name: 66, dtype: object

>  <halogenbond:GLY:103>  (67) 
halogenbond:GLY:103    0
halogenbond:GLY:103    0
Name: 66, dtype: object

>  <hydroph_interaction:HIS:104>  (67) 
hydroph_interaction:HIS:104    0
hydroph_interaction:HIS:104    0
Name: 66, dtype: object

>  <hbond:HIS:104>  (67) 
hbond:HIS:104    0
hbond:HIS:104    0
Name: 66, dtype: object

>  <saltbridge:HIS:104>  (67) 
saltbridge:HIS:104    0
saltbridge:HIS:104    0
Name: 66, dtype: object

>  <pication:HIS:104>  (67) 
pication:HIS:104    0
pication:HIS:104    0
Name: 66, dtype: object

>  <pistack:HIS:104>  (67) 
pistack:HIS:104    0
pistack:HIS:104    0
Name: 66, dtype: object

>  <halogenbond:HIS:104>  (67) 
halogenbond:HIS:104    0
halogenbond:HIS:104    0
Name: 66, dtype: object

>  <hbond:SER:105>  (67) 
hbond:SER:105    0
hbond:SER:105    0
Name: 66, dtype: object

>  <halogenbond:SER:105>  (67) 
halogenbond:SER:105    0
halogenbond:SER:105    0
Name: 66, dtype: object

>  <hbond:GLU:106>  (67) 
hbond:GLU:106    0
hbond:GLU:106    0
Name: 66, dtype: object

>  <hydroph_interaction:GLU:106>  (67) 
hydroph_interaction:GLU:106    0
hydroph_interaction:GLU:106    0
Name: 66, dtype: object

>  <saltbridge:GLU:106>  (67) 
saltbridge:GLU:106    0
saltbridge:GLU:106    0
Name: 66, dtype: object

>  <halogenbond:GLU:106>  (67) 
halogenbond:GLU:106    0
halogenbond:GLU:106    0
Name: 66, dtype: object

>  <hydroph_interaction:PRO:107>  (67) 
hydroph_interaction:PRO:107    1
hydroph_interaction:PRO:107    1
Name: 66, dtype: object

>  <hbond:PRO:107>  (67) 
hbond:PRO:107    0
hbond:PRO:107    0
Name: 66, dtype: object

>  <halogenbond:PRO:107>  (67) 
halogenbond:PRO:107    0
halogenbond:PRO:107    0
Name: 66, dtype: object

>  <hbond:GLY:108>  (67) 
hbond:GLY:108    0
hbond:GLY:108    0
Name: 66, dtype: object

>  <halogenbond:GLY:108>  (67) 
halogenbond:GLY:108    0
halogenbond:GLY:108    0
Name: 66, dtype: object

>  <hbond:ASP:109>  (67) 
hbond:ASP:109    0
hbond:ASP:109    0
Name: 66, dtype: object

>  <hydroph_interaction:ASP:109>  (67) 
hydroph_interaction:ASP:109    0
hydroph_interaction:ASP:109    0
Name: 66, dtype: object

>  <saltbridge:ASP:109>  (67) 
saltbridge:ASP:109    0
saltbridge:ASP:109    0
Name: 66, dtype: object

>  <hbond:CYS:110>  (67) 
hbond:CYS:110    0
hbond:CYS:110    0
Name: 66, dtype: object

>  <halogenbond:CYS:110>  (67) 
halogenbond:CYS:110    0
halogenbond:CYS:110    0
Name: 66, dtype: object

>  <hbond:GLY:111>  (67) 
hbond:GLY:111    0
hbond:GLY:111    0
Name: 66, dtype: object

>  <hbond:GLY:112>  (67) 
hbond:GLY:112    0
hbond:GLY:112    0
Name: 66, dtype: object

>  <hbond:ILE:113>  (67) 
hbond:ILE:113    0
hbond:ILE:113    0
Name: 66, dtype: object

>  <hydroph_interaction:LEU:114>  (67) 
hydroph_interaction:LEU:114    0
hydroph_interaction:LEU:114    0
Name: 66, dtype: object

>  <hbond:LEU:114>  (67) 
hbond:LEU:114    0
hbond:LEU:114    0
Name: 66, dtype: object

>  <hydroph_interaction:ILE:123>  (67) 
hydroph_interaction:ILE:123    0
hydroph_interaction:ILE:123    0
Name: 66, dtype: object

>  <hbond:ILE:123>  (67) 
hbond:ILE:123    0
hbond:ILE:123    0
Name: 66, dtype: object

>  <hydroph_interaction:VAL:124>  (67) 
hydroph_interaction:VAL:124    0
hydroph_interaction:VAL:124    0
Name: 66, dtype: object

>  <hbond:VAL:124>  (67) 
hbond:VAL:124    0
hbond:VAL:124    0
Name: 66, dtype: object

>  <halogenbond:VAL:124>  (67) 
halogenbond:VAL:124    0
halogenbond:VAL:124    0
Name: 66, dtype: object

>  <hbond:SER:125>  (67) 
hbond:SER:125    0
hbond:SER:125    0
Name: 66, dtype: object

>  <halogenbond:SER:125>  (67) 
halogenbond:SER:125    0
halogenbond:SER:125    0
Name: 66, dtype: object

>  <hydroph_interaction:THR:126>  (67) 
hydroph_interaction:THR:126    0
hydroph_interaction:THR:126    0
Name: 66, dtype: object

>  <hbond:THR:126>  (67) 
hbond:THR:126    0
hbond:THR:126    0
Name: 66, dtype: object

>  <halogenbond:THR:126>  (67) 
halogenbond:THR:126    0
halogenbond:THR:126    0
Name: 66, dtype: object

>  <hbond:GLY:127>  (67) 
hbond:GLY:127    0
hbond:GLY:127    0
Name: 66, dtype: object

>  <halogenbond:GLY:127>  (67) 
halogenbond:GLY:127    0
halogenbond:GLY:127    0
Name: 66, dtype: object

>  <hydroph_interaction:GLY:127>  (67) 
hydroph_interaction:GLY:127    0
hydroph_interaction:GLY:127    0
Name: 66, dtype: object

>  <hbond:GLY:128>  (67) 
hbond:GLY:128    0
hbond:GLY:128    0
Name: 66, dtype: object

>  <halogenbond:GLY:128>  (67) 
halogenbond:GLY:128    0
halogenbond:GLY:128    0
Name: 66, dtype: object

>  <hydroph_interaction:GLY:128>  (67) 
hydroph_interaction:GLY:128    0
hydroph_interaction:GLY:128    0
Name: 66, dtype: object

>  <hbond:ASN:129>  (67) 
hbond:ASN:129    0
hbond:ASN:129    0
Name: 66, dtype: object

>  <hydroph_interaction:ASN:129>  (67) 
hydroph_interaction:ASN:129    0
hydroph_interaction:ASN:129    0
Name: 66, dtype: object

>  <halogenbond:ASN:129>  (67) 
halogenbond:ASN:129    0
halogenbond:ASN:129    0
Name: 66, dtype: object

>  <hbond:GLY:130>  (67) 
hbond:GLY:130    0
hbond:GLY:130    0
Name: 66, dtype: object

>  <hydroph_interaction:LEU:131>  (67) 
hydroph_interaction:LEU:131    0
hydroph_interaction:LEU:131    0
Name: 66, dtype: object

>  <hbond:LEU:131>  (67) 
hbond:LEU:131    0
hbond:LEU:131    0
Name: 66, dtype: object

>  <halogenbond:LEU:131>  (67) 
halogenbond:LEU:131    0
halogenbond:LEU:131    0
Name: 66, dtype: object

>  <hydroph_interaction:VAL:132>  (67) 
hydroph_interaction:VAL:132    0
hydroph_interaction:VAL:132    0
Name: 66, dtype: object

>  <hbond:VAL:132>  (67) 
hbond:VAL:132    0
hbond:VAL:132    0
Name: 66, dtype: object

>  <hbond:GLY:133>  (67) 
hbond:GLY:133    0
hbond:GLY:133    0
Name: 66, dtype: object

>  <halogenbond:GLY:133>  (67) 
halogenbond:GLY:133    0
halogenbond:GLY:133    0
Name: 66, dtype: object

>  <hydroph_interaction:PHE:134>  (67) 
hydroph_interaction:PHE:134    0
hydroph_interaction:PHE:134    0
Name: 66, dtype: object

>  <hbond:PHE:134>  (67) 
hbond:PHE:134    0
hbond:PHE:134    0
Name: 66, dtype: object

>  <pistack:PHE:134>  (67) 
pistack:PHE:134    0
pistack:PHE:134    0
Name: 66, dtype: object

>  <pication:PHE:134>  (67) 
pication:PHE:134    0
pication:PHE:134    0
Name: 66, dtype: object

>  <hydroph_interaction:ALA:135>  (67) 
hydroph_interaction:ALA:135    0
hydroph_interaction:ALA:135    0
Name: 66, dtype: object

>  <hbond:ALA:135>  (67) 
hbond:ALA:135    0
hbond:ALA:135    0
Name: 66, dtype: object

$$$$
Z57160153
     RDKit          3D

 24 25  0  0  0  0  0  0  0  0999 V2000
    7.4670   16.0530   27.0180 C   0  0  0  0  0  0  0  0  0  0  0  0
    8.3380   15.6560   26.0800 C   0  0  0  0  0  0  0  0  0  0  0  0
    9.5320   15.9630   26.1750 O   0  0  0  0  0  0  0  0  0  0  0  0
    7.7200   14.9310   25.0720 N   0  0  0  0  0  0  0  0  0  0  0  0
    7.9840   13.5930   24.8290 C   0  0  0  0  0  0  0  0  0  0  0  0
    7.2320   12.5460   25.5380 C   0  0  0  0  0  0  0  0  0  0  0  0
    7.5200   11.2140   25.2660 C   0  0  0  0  0  0  0  0  0  0  0  0
    8.4850   10.8190   24.3540 C   0  0  0  0  0  0  0  0  0  0  0  0
    8.7020    9.5110   24.1400 N   0  0  0  0  0  0  0  0  0  0  0  0
    9.6450    9.1820   23.2470 C   0  0  0  0  0  0  0  0  0  0  0  0
   10.3660   10.0950   22.5600 C   0  0  0  0  0  0  0  0  0  0  0  0
   10.1670   11.4410   22.7640 C   0  0  0  0  0  0  0  0  0  0  0  0
    9.2070   11.8220   23.6760 C   0  0  0  0  0  0  0  0  0  0  0  0
    8.9580   13.1810   23.9130 C   0  0  0  0  0  0  0  0  0  0  0  0
    6.6440   16.6980   26.6890 H   0  0  0  0  0  0  0  0  0  0  0  0
    6.9780   15.2630   27.5930 H   0  0  0  0  0  0  0  0  0  0  0  0
    8.0200   16.6540   27.7450 H   0  0  0  0  0  0  0  0  0  0  0  0
    7.6310   15.4790   24.2130 H   0  0  0  0  0  0  0  0  0  0  0  0
    6.4620   12.8040   26.2640 H   0  0  0  0  0  0  0  0  0  0  0  0
    6.9460   10.4540   25.8080 H   0  0  0  0  0  0  0  0  0  0  0  0
    9.8220    8.1390   23.0780 H   0  0  0  0  0  0  0  0  0  0  0  0
   11.0830    9.6760   21.8610 H   0  0  0  0  0  0  0  0  0  0  0  0
   10.7440   12.1810   22.2170 H   0  0  0  0  0  0  0  0  0  0  0  0
    9.5260   13.9370   23.3750 H   0  0  0  0  0  0  0  0  0  0  0  0
  1  2  1  0
  2  3  2  0
  2  4  1  0
  4  5  1  0
  5  6  2  0
  6  7  1  0
  7  8  2  0
  8  9  1  0
  9 10  2  0
 10 11  1  0
 11 12  2  0
 12 13  1  0
 13 14  2  0
 14  5  1  0
 13  8  1  0
  1 15  1  0
  1 16  1  0
  1 17  1  0
  4 18  1  0
  6 19  1  0
  7 20  1  0
 10 21  1  0
 11 22  1  0
 12 23  1  0
 14 24  1  0
A    1
 C1 
A    2
 C2 
A    3
 O1 
A    4
 N1 
A    5
 C3 
A    6
 C4 
A    7
 C5 
A    8
 C6 
A    9
 N2 
A   10
 C7 
A   11
 C8 
A   12
 C9 
A   13
 C10
A   14
 C11
A   15
 H1 
A   16
 H2 
A   17
 H3 
A   18
 H4 
A   19
 H5 
A   20
 H6 
A   21
 H7 
A   22
 H8 
A   23
 H9 
A   24
 H10
M  END
>  <ref_pdb>  (68) 
x0310_0A

>  <ref_mols>  (68) 
x0351_0A,x1097_0A

>  <original SMILES>  (68) 
CC(=O)Nc1ccc2ncccc2c1

>  <rationale>  (68) 
info hbond:E88+S87; 

>  <intxn_cluster>  (68) 
208

>  <intxn_cluster_rank>  (68) 
355

>  <N_interactions>  (68) 
2

>  <∆∆G>  (68) 
-8.169722

>  <$/mg>  (68) 
nan

>  <comRMSD>  (68) 
0.784253

>  <N_rotatable_bonds>  (68) 
2

>  <hbond:SER:7>  (68) 
hbond:SER:7    0
hbond:SER:7    0
Name: 67, dtype: object

>  <halogenbond:SER:7>  (68) 
halogenbond:SER:7    0
halogenbond:SER:7    0
Name: 67, dtype: object

>  <hbond:GLY:8>  (68) 
hbond:GLY:8    0
hbond:GLY:8    0
Name: 67, dtype: object

>  <hydroph_interaction:ASN:19>  (68) 
hydroph_interaction:ASN:19    0
hydroph_interaction:ASN:19    0
Name: 67, dtype: object

>  <hbond:ASN:19>  (68) 
hbond:ASN:19    0
hbond:ASN:19    0
Name: 67, dtype: object

>  <halogenbond:ASN:19>  (68) 
halogenbond:ASN:19    0
halogenbond:ASN:19    0
Name: 67, dtype: object

>  <hbond:ARG:20>  (68) 
hbond:ARG:20    0
hbond:ARG:20    0
Name: 67, dtype: object

>  <hydroph_interaction:ARG:20>  (68) 
hydroph_interaction:ARG:20    0
hydroph_interaction:ARG:20    0
Name: 67, dtype: object

>  <saltbridge:ARG:20>  (68) 
saltbridge:ARG:20    0
saltbridge:ARG:20    0
Name: 67, dtype: object

>  <halogenbond:ARG:20>  (68) 
halogenbond:ARG:20    0
halogenbond:ARG:20    0
Name: 67, dtype: object

>  <pication:ARG:20>  (68) 
pication:ARG:20    0
pication:ARG:20    0
Name: 67, dtype: object

>  <hbond:HIS:21>  (68) 
hbond:HIS:21    0
hbond:HIS:21    0
Name: 67, dtype: object

>  <hydroph_interaction:HIS:21>  (68) 
hydroph_interaction:HIS:21    0
hydroph_interaction:HIS:21    0
Name: 67, dtype: object

>  <saltbridge:HIS:21>  (68) 
saltbridge:HIS:21    0
saltbridge:HIS:21    0
Name: 67, dtype: object

>  <pistack:HIS:21>  (68) 
pistack:HIS:21    0
pistack:HIS:21    0
Name: 67, dtype: object

>  <pication:HIS:21>  (68) 
pication:HIS:21    0
pication:HIS:21    0
Name: 67, dtype: object

>  <halogenbond:HIS:21>  (68) 
halogenbond:HIS:21    0
halogenbond:HIS:21    0
Name: 67, dtype: object

>  <hydroph_interaction:LEU:22>  (68) 
hydroph_interaction:LEU:22    0
hydroph_interaction:LEU:22    0
Name: 67, dtype: object

>  <hbond:LEU:22>  (68) 
hbond:LEU:22    0
hbond:LEU:22    0
Name: 67, dtype: object

>  <hydroph_interaction:TRP:28>  (68) 
hydroph_interaction:TRP:28    0
hydroph_interaction:TRP:28    0
Name: 67, dtype: object

>  <hbond:SER:36>  (68) 
hbond:SER:36    0
hbond:SER:36    0
Name: 67, dtype: object

>  <halogenbond:SER:36>  (68) 
halogenbond:SER:36    0
halogenbond:SER:36    0
Name: 67, dtype: object

>  <hbond:ARG:38>  (68) 
hbond:ARG:38    0
hbond:ARG:38    0
Name: 67, dtype: object

>  <halogenbond:ARG:38>  (68) 
halogenbond:ARG:38    0
halogenbond:ARG:38    0
Name: 67, dtype: object

>  <hbond:ASP:39>  (68) 
hbond:ASP:39    0
hbond:ASP:39    0
Name: 67, dtype: object

>  <saltbridge:ASP:39>  (68) 
saltbridge:ASP:39    0
saltbridge:ASP:39    0
Name: 67, dtype: object

>  <hydroph_interaction:ASP:39>  (68) 
hydroph_interaction:ASP:39    0
hydroph_interaction:ASP:39    0
Name: 67, dtype: object

>  <halogenbond:ASP:39>  (68) 
halogenbond:ASP:39    0
halogenbond:ASP:39    0
Name: 67, dtype: object

>  <hydroph_interaction:LEU:40>  (68) 
hydroph_interaction:LEU:40    0
hydroph_interaction:LEU:40    0
Name: 67, dtype: object

>  <hydroph_interaction:TYR:63>  (68) 
hydroph_interaction:TYR:63    0
hydroph_interaction:TYR:63    0
Name: 67, dtype: object

>  <pistack:TYR:63>  (68) 
pistack:TYR:63    0
pistack:TYR:63    0
Name: 67, dtype: object

>  <hbond:TYR:63>  (68) 
hbond:TYR:63    0
hbond:TYR:63    0
Name: 67, dtype: object

>  <hbond:TYR:64>  (68) 
hbond:TYR:64    0
hbond:TYR:64    0
Name: 67, dtype: object

>  <halogenbond:TYR:64>  (68) 
halogenbond:TYR:64    0
halogenbond:TYR:64    0
Name: 67, dtype: object

>  <hydroph_interaction:TYR:64>  (68) 
hydroph_interaction:TYR:64    0
hydroph_interaction:TYR:64    0
Name: 67, dtype: object

>  <hbond:CYS:65>  (68) 
hbond:CYS:65    0
hbond:CYS:65    0
Name: 67, dtype: object

>  <halogenbond:CYS:65>  (68) 
halogenbond:CYS:65    0
halogenbond:CYS:65    0
Name: 67, dtype: object

>  <hbond:SER:66>  (68) 
hbond:SER:66    0
hbond:SER:66    0
Name: 67, dtype: object

>  <hbond:SER:67>  (68) 
hbond:SER:67    0
hbond:SER:67    0
Name: 67, dtype: object

>  <halogenbond:SER:67>  (68) 
halogenbond:SER:67    0
halogenbond:SER:67    0
Name: 67, dtype: object

>  <hydroph_interaction:ARG:68>  (68) 
hydroph_interaction:ARG:68    0
hydroph_interaction:ARG:68    0
Name: 67, dtype: object

>  <hbond:ARG:68>  (68) 
hbond:ARG:68    0
hbond:ARG:68    0
Name: 67, dtype: object

>  <saltbridge:ARG:68>  (68) 
saltbridge:ARG:68    0
saltbridge:ARG:68    0
Name: 67, dtype: object

>  <pication:ARG:68>  (68) 
pication:ARG:68    0
pication:ARG:68    0
Name: 67, dtype: object

>  <hydroph_interaction:TYR:72>  (68) 
hydroph_interaction:TYR:72    0
hydroph_interaction:TYR:72    0
Name: 67, dtype: object

>  <hydroph_interaction:VAL:74>  (68) 
hydroph_interaction:VAL:74    0
hydroph_interaction:VAL:74    0
Name: 67, dtype: object

>  <hydroph_interaction:PHE:76>  (68) 
hydroph_interaction:PHE:76    0
hydroph_interaction:PHE:76    0
Name: 67, dtype: object

>  <hbond:SER:77>  (68) 
hbond:SER:77    0
hbond:SER:77    0
Name: 67, dtype: object

>  <hbond:SER:80>  (68) 
hbond:SER:80    0
hbond:SER:80    0
Name: 67, dtype: object

>  <hbond:LEU:81>  (68) 
hbond:LEU:81    0
hbond:LEU:81    0
Name: 67, dtype: object

>  <halogenbond:LEU:81>  (68) 
halogenbond:LEU:81    0
halogenbond:LEU:81    0
Name: 67, dtype: object

>  <hydroph_interaction:LEU:81>  (68) 
hydroph_interaction:LEU:81    0
hydroph_interaction:LEU:81    0
Name: 67, dtype: object

>  <hydroph_interaction:ILE:82>  (68) 
hydroph_interaction:ILE:82    0
hydroph_interaction:ILE:82    0
Name: 67, dtype: object

>  <hbond:ILE:82>  (68) 
hbond:ILE:82    0
hbond:ILE:82    0
Name: 67, dtype: object

>  <hydroph_interaction:PHE:83>  (68) 
hydroph_interaction:PHE:83    0
hydroph_interaction:PHE:83    0
Name: 67, dtype: object

>  <hbond:PHE:83>  (68) 
hbond:PHE:83    0
hbond:PHE:83    0
Name: 67, dtype: object

>  <halogenbond:PHE:83>  (68) 
halogenbond:PHE:83    0
halogenbond:PHE:83    0
Name: 67, dtype: object

>  <pistack:PHE:83>  (68) 
pistack:PHE:83    0
pistack:PHE:83    0
Name: 67, dtype: object

>  <hydroph_interaction:VAL:84>  (68) 
hydroph_interaction:VAL:84    0
hydroph_interaction:VAL:84    0
Name: 67, dtype: object

>  <hbond:VAL:84>  (68) 
hbond:VAL:84    0
hbond:VAL:84    0
Name: 67, dtype: object

>  <halogenbond:VAL:84>  (68) 
halogenbond:VAL:84    0
halogenbond:VAL:84    0
Name: 67, dtype: object

>  <hydroph_interaction:GLU:85>  (68) 
hydroph_interaction:GLU:85    0
hydroph_interaction:GLU:85    0
Name: 67, dtype: object

>  <hbond:GLU:85>  (68) 
hbond:GLU:85    0
hbond:GLU:85    0
Name: 67, dtype: object

>  <saltbridge:GLU:85>  (68) 
saltbridge:GLU:85    0
saltbridge:GLU:85    0
Name: 67, dtype: object

>  <halogenbond:GLU:85>  (68) 
halogenbond:GLU:85    0
halogenbond:GLU:85    0
Name: 67, dtype: object

>  <hbond:ALA:86>  (68) 
hbond:ALA:86    0
hbond:ALA:86    0
Name: 67, dtype: object

>  <halogenbond:ALA:86>  (68) 
halogenbond:ALA:86    0
halogenbond:ALA:86    0
Name: 67, dtype: object

>  <hydroph_interaction:ALA:86>  (68) 
hydroph_interaction:ALA:86    0
hydroph_interaction:ALA:86    0
Name: 67, dtype: object

>  <hbond:SER:87>  (68) 
hbond:SER:87    1
hbond:SER:87    1
Name: 67, dtype: object

>  <halogenbond:SER:87>  (68) 
halogenbond:SER:87    0
halogenbond:SER:87    0
Name: 67, dtype: object

>  <hbond:GLU:88>  (68) 
hbond:GLU:88    1
hbond:GLU:88    1
Name: 67, dtype: object

>  <hydroph_interaction:GLU:88>  (68) 
hydroph_interaction:GLU:88    0
hydroph_interaction:GLU:88    0
Name: 67, dtype: object

>  <halogenbond:GLU:88>  (68) 
halogenbond:GLU:88    0
halogenbond:GLU:88    0
Name: 67, dtype: object

>  <saltbridge:GLU:88>  (68) 
saltbridge:GLU:88    0
saltbridge:GLU:88    0
Name: 67, dtype: object

>  <hydroph_interaction:TYR:89>  (68) 
hydroph_interaction:TYR:89    0
hydroph_interaction:TYR:89    0
Name: 67, dtype: object

>  <pistack:TYR:89>  (68) 
pistack:TYR:89    0
pistack:TYR:89    0
Name: 67, dtype: object

>  <hbond:TYR:89>  (68) 
hbond:TYR:89    0
hbond:TYR:89    0
Name: 67, dtype: object

>  <halogenbond:TYR:89>  (68) 
halogenbond:TYR:89    0
halogenbond:TYR:89    0
Name: 67, dtype: object

>  <hbond:TYR:90>  (68) 
hbond:TYR:90    0
hbond:TYR:90    0
Name: 67, dtype: object

>  <hydroph_interaction:TYR:90>  (68) 
hydroph_interaction:TYR:90    0
hydroph_interaction:TYR:90    0
Name: 67, dtype: object

>  <pistack:TYR:90>  (68) 
pistack:TYR:90    0
pistack:TYR:90    0
Name: 67, dtype: object

>  <halogenbond:TYR:90>  (68) 
halogenbond:TYR:90    0
halogenbond:TYR:90    0
Name: 67, dtype: object

>  <pication:TYR:90>  (68) 
pication:TYR:90    0
pication:TYR:90    0
Name: 67, dtype: object

>  <hydroph_interaction:PRO:91>  (68) 
hydroph_interaction:PRO:91    0
hydroph_interaction:PRO:91    0
Name: 67, dtype: object

>  <halogenbond:PRO:91>  (68) 
halogenbond:PRO:91    0
halogenbond:PRO:91    0
Name: 67, dtype: object

>  <hbond:PRO:91>  (68) 
hbond:PRO:91    0
hbond:PRO:91    0
Name: 67, dtype: object

>  <hydroph_interaction:ALA:92>  (68) 
hydroph_interaction:ALA:92    0
hydroph_interaction:ALA:92    0
Name: 67, dtype: object

>  <hbond:ARG:93>  (68) 
hbond:ARG:93    0
hbond:ARG:93    0
Name: 67, dtype: object

>  <pication:ARG:93>  (68) 
pication:ARG:93    0
pication:ARG:93    0
Name: 67, dtype: object

>  <saltbridge:ARG:93>  (68) 
saltbridge:ARG:93    0
saltbridge:ARG:93    0
Name: 67, dtype: object

>  <hydroph_interaction:ARG:93>  (68) 
hydroph_interaction:ARG:93    0
hydroph_interaction:ARG:93    0
Name: 67, dtype: object

>  <halogenbond:ARG:93>  (68) 
halogenbond:ARG:93    0
halogenbond:ARG:93    0
Name: 67, dtype: object

>  <hydroph_interaction:TYR:94>  (68) 
hydroph_interaction:TYR:94    0
hydroph_interaction:TYR:94    0
Name: 67, dtype: object

>  <hbond:TYR:94>  (68) 
hbond:TYR:94    0
hbond:TYR:94    0
Name: 67, dtype: object

>  <halogenbond:GLN:95>  (68) 
halogenbond:GLN:95    0
halogenbond:GLN:95    0
Name: 67, dtype: object

>  <hbond:GLN:95>  (68) 
hbond:GLN:95    0
hbond:GLN:95    0
Name: 67, dtype: object

>  <hydroph_interaction:GLN:95>  (68) 
hydroph_interaction:GLN:95    0
hydroph_interaction:GLN:95    0
Name: 67, dtype: object

>  <hbond:SER:96>  (68) 
hbond:SER:96    0
hbond:SER:96    0
Name: 67, dtype: object

>  <hydroph_interaction:LEU:98>  (68) 
hydroph_interaction:LEU:98    0
hydroph_interaction:LEU:98    0
Name: 67, dtype: object

>  <hbond:LEU:98>  (68) 
hbond:LEU:98    0
hbond:LEU:98    0
Name: 67, dtype: object

>  <hbond:MET:99>  (68) 
hbond:MET:99    0
hbond:MET:99    0
Name: 67, dtype: object

>  <hydroph_interaction:MET:99>  (68) 
hydroph_interaction:MET:99    0
hydroph_interaction:MET:99    0
Name: 67, dtype: object

>  <halogenbond:MET:99>  (68) 
halogenbond:MET:99    0
halogenbond:MET:99    0
Name: 67, dtype: object

>  <hydroph_interaction:LEU:100>  (68) 
hydroph_interaction:LEU:100    0
hydroph_interaction:LEU:100    0
Name: 67, dtype: object

>  <hbond:LEU:100>  (68) 
hbond:LEU:100    0
hbond:LEU:100    0
Name: 67, dtype: object

>  <hbond:ALA:101>  (68) 
hbond:ALA:101    0
hbond:ALA:101    0
Name: 67, dtype: object

>  <hydroph_interaction:ALA:101>  (68) 
hydroph_interaction:ALA:101    0
hydroph_interaction:ALA:101    0
Name: 67, dtype: object

>  <hydroph_interaction:VAL:102>  (68) 
hydroph_interaction:VAL:102    0
hydroph_interaction:VAL:102    0
Name: 67, dtype: object

>  <hbond:VAL:102>  (68) 
hbond:VAL:102    0
hbond:VAL:102    0
Name: 67, dtype: object

>  <hbond:GLY:103>  (68) 
hbond:GLY:103    0
hbond:GLY:103    0
Name: 67, dtype: object

>  <halogenbond:GLY:103>  (68) 
halogenbond:GLY:103    0
halogenbond:GLY:103    0
Name: 67, dtype: object

>  <hydroph_interaction:HIS:104>  (68) 
hydroph_interaction:HIS:104    0
hydroph_interaction:HIS:104    0
Name: 67, dtype: object

>  <hbond:HIS:104>  (68) 
hbond:HIS:104    0
hbond:HIS:104    0
Name: 67, dtype: object

>  <saltbridge:HIS:104>  (68) 
saltbridge:HIS:104    0
saltbridge:HIS:104    0
Name: 67, dtype: object

>  <pication:HIS:104>  (68) 
pication:HIS:104    0
pication:HIS:104    0
Name: 67, dtype: object

>  <pistack:HIS:104>  (68) 
pistack:HIS:104    0
pistack:HIS:104    0
Name: 67, dtype: object

>  <halogenbond:HIS:104>  (68) 
halogenbond:HIS:104    0
halogenbond:HIS:104    0
Name: 67, dtype: object

>  <hbond:SER:105>  (68) 
hbond:SER:105    0
hbond:SER:105    0
Name: 67, dtype: object

>  <halogenbond:SER:105>  (68) 
halogenbond:SER:105    0
halogenbond:SER:105    0
Name: 67, dtype: object

>  <hbond:GLU:106>  (68) 
hbond:GLU:106    0
hbond:GLU:106    0
Name: 67, dtype: object

>  <hydroph_interaction:GLU:106>  (68) 
hydroph_interaction:GLU:106    0
hydroph_interaction:GLU:106    0
Name: 67, dtype: object

>  <saltbridge:GLU:106>  (68) 
saltbridge:GLU:106    0
saltbridge:GLU:106    0
Name: 67, dtype: object

>  <halogenbond:GLU:106>  (68) 
halogenbond:GLU:106    0
halogenbond:GLU:106    0
Name: 67, dtype: object

>  <hydroph_interaction:PRO:107>  (68) 
hydroph_interaction:PRO:107    0
hydroph_interaction:PRO:107    0
Name: 67, dtype: object

>  <hbond:PRO:107>  (68) 
hbond:PRO:107    0
hbond:PRO:107    0
Name: 67, dtype: object

>  <halogenbond:PRO:107>  (68) 
halogenbond:PRO:107    0
halogenbond:PRO:107    0
Name: 67, dtype: object

>  <hbond:GLY:108>  (68) 
hbond:GLY:108    0
hbond:GLY:108    0
Name: 67, dtype: object

>  <halogenbond:GLY:108>  (68) 
halogenbond:GLY:108    0
halogenbond:GLY:108    0
Name: 67, dtype: object

>  <hbond:ASP:109>  (68) 
hbond:ASP:109    0
hbond:ASP:109    0
Name: 67, dtype: object

>  <hydroph_interaction:ASP:109>  (68) 
hydroph_interaction:ASP:109    0
hydroph_interaction:ASP:109    0
Name: 67, dtype: object

>  <saltbridge:ASP:109>  (68) 
saltbridge:ASP:109    0
saltbridge:ASP:109    0
Name: 67, dtype: object

>  <hbond:CYS:110>  (68) 
hbond:CYS:110    0
hbond:CYS:110    0
Name: 67, dtype: object

>  <halogenbond:CYS:110>  (68) 
halogenbond:CYS:110    0
halogenbond:CYS:110    0
Name: 67, dtype: object

>  <hbond:GLY:111>  (68) 
hbond:GLY:111    0
hbond:GLY:111    0
Name: 67, dtype: object

>  <hbond:GLY:112>  (68) 
hbond:GLY:112    0
hbond:GLY:112    0
Name: 67, dtype: object

>  <hbond:ILE:113>  (68) 
hbond:ILE:113    0
hbond:ILE:113    0
Name: 67, dtype: object

>  <hydroph_interaction:LEU:114>  (68) 
hydroph_interaction:LEU:114    0
hydroph_interaction:LEU:114    0
Name: 67, dtype: object

>  <hbond:LEU:114>  (68) 
hbond:LEU:114    0
hbond:LEU:114    0
Name: 67, dtype: object

>  <hydroph_interaction:ILE:123>  (68) 
hydroph_interaction:ILE:123    0
hydroph_interaction:ILE:123    0
Name: 67, dtype: object

>  <hbond:ILE:123>  (68) 
hbond:ILE:123    0
hbond:ILE:123    0
Name: 67, dtype: object

>  <hydroph_interaction:VAL:124>  (68) 
hydroph_interaction:VAL:124    0
hydroph_interaction:VAL:124    0
Name: 67, dtype: object

>  <hbond:VAL:124>  (68) 
hbond:VAL:124    0
hbond:VAL:124    0
Name: 67, dtype: object

>  <halogenbond:VAL:124>  (68) 
halogenbond:VAL:124    0
halogenbond:VAL:124    0
Name: 67, dtype: object

>  <hbond:SER:125>  (68) 
hbond:SER:125    0
hbond:SER:125    0
Name: 67, dtype: object

>  <halogenbond:SER:125>  (68) 
halogenbond:SER:125    0
halogenbond:SER:125    0
Name: 67, dtype: object

>  <hydroph_interaction:THR:126>  (68) 
hydroph_interaction:THR:126    0
hydroph_interaction:THR:126    0
Name: 67, dtype: object

>  <hbond:THR:126>  (68) 
hbond:THR:126    0
hbond:THR:126    0
Name: 67, dtype: object

>  <halogenbond:THR:126>  (68) 
halogenbond:THR:126    0
halogenbond:THR:126    0
Name: 67, dtype: object

>  <hbond:GLY:127>  (68) 
hbond:GLY:127    0
hbond:GLY:127    0
Name: 67, dtype: object

>  <halogenbond:GLY:127>  (68) 
halogenbond:GLY:127    0
halogenbond:GLY:127    0
Name: 67, dtype: object

>  <hydroph_interaction:GLY:127>  (68) 
hydroph_interaction:GLY:127    0
hydroph_interaction:GLY:127    0
Name: 67, dtype: object

>  <hbond:GLY:128>  (68) 
hbond:GLY:128    0
hbond:GLY:128    0
Name: 67, dtype: object

>  <halogenbond:GLY:128>  (68) 
halogenbond:GLY:128    0
halogenbond:GLY:128    0
Name: 67, dtype: object

>  <hydroph_interaction:GLY:128>  (68) 
hydroph_interaction:GLY:128    0
hydroph_interaction:GLY:128    0
Name: 67, dtype: object

>  <hbond:ASN:129>  (68) 
hbond:ASN:129    0
hbond:ASN:129    0
Name: 67, dtype: object

>  <hydroph_interaction:ASN:129>  (68) 
hydroph_interaction:ASN:129    0
hydroph_interaction:ASN:129    0
Name: 67, dtype: object

>  <halogenbond:ASN:129>  (68) 
halogenbond:ASN:129    0
halogenbond:ASN:129    0
Name: 67, dtype: object

>  <hbond:GLY:130>  (68) 
hbond:GLY:130    0
hbond:GLY:130    0
Name: 67, dtype: object

>  <hydroph_interaction:LEU:131>  (68) 
hydroph_interaction:LEU:131    0
hydroph_interaction:LEU:131    0
Name: 67, dtype: object

>  <hbond:LEU:131>  (68) 
hbond:LEU:131    0
hbond:LEU:131    0
Name: 67, dtype: object

>  <halogenbond:LEU:131>  (68) 
halogenbond:LEU:131    0
halogenbond:LEU:131    0
Name: 67, dtype: object

>  <hydroph_interaction:VAL:132>  (68) 
hydroph_interaction:VAL:132    0
hydroph_interaction:VAL:132    0
Name: 67, dtype: object

>  <hbond:VAL:132>  (68) 
hbond:VAL:132    0
hbond:VAL:132    0
Name: 67, dtype: object

>  <hbond:GLY:133>  (68) 
hbond:GLY:133    0
hbond:GLY:133    0
Name: 67, dtype: object

>  <halogenbond:GLY:133>  (68) 
halogenbond:GLY:133    0
halogenbond:GLY:133    0
Name: 67, dtype: object

>  <hydroph_interaction:PHE:134>  (68) 
hydroph_interaction:PHE:134    0
hydroph_interaction:PHE:134    0
Name: 67, dtype: object

>  <hbond:PHE:134>  (68) 
hbond:PHE:134    0
hbond:PHE:134    0
Name: 67, dtype: object

>  <pistack:PHE:134>  (68) 
pistack:PHE:134    0
pistack:PHE:134    0
Name: 67, dtype: object

>  <pication:PHE:134>  (68) 
pication:PHE:134    0
pication:PHE:134    0
Name: 67, dtype: object

>  <hydroph_interaction:ALA:135>  (68) 
hydroph_interaction:ALA:135    0
hydroph_interaction:ALA:135    0
Name: 67, dtype: object

>  <hbond:ALA:135>  (68) 
hbond:ALA:135    0
hbond:ALA:135    0
Name: 67, dtype: object

$$$$
Z1957223060
     RDKit          3D

 30 32  0  0  0  0  0  0  0  0999 V2000
   10.3140    9.2080   22.6440 C   0  0  0  0  0  0  0  0  0  0  0  0
    9.5930   10.2940   23.3420 C   0  0  0  0  0  0  0  0  0  0  0  0
    9.9120   11.6310   23.0650 C   0  0  0  0  0  0  0  0  0  0  0  0
    9.2300   12.6610   23.7140 C   0  0  0  0  0  0  0  0  0  0  0  0
    8.2310   12.3390   24.6330 C   0  0  0  0  0  0  0  0  0  0  0  0
    7.4280   13.2140   25.3810 C   0  0  0  0  0  0  0  0  0  0  0  0
    7.5320   14.6050   25.2880 C   0  0  0  0  0  0  0  0  0  0  0  0
    7.7020   15.0310   24.1580 O   0  0  0  0  0  0  0  0  0  0  0  0
    7.4390   15.4430   26.3490 N   0  0  0  0  0  0  0  0  0  0  0  0
    6.3870   15.1790   27.3100 C   0  0  0  0  0  0  0  0  0  0  0  0
    6.3990   16.3720   28.2290 C   0  0  0  0  0  0  0  0  0  0  0  0
    8.1400   16.8340   28.4210 S   0  0  0  0  0  0  0  0  0  0  0  0
    8.6730   15.8290   27.0250 C   0  0  0  0  0  0  0  0  0  0  0  0
    6.5270   12.5660   26.2080 C   0  0  0  0  0  0  0  0  0  0  0  0
    6.6640   10.8750   26.0660 S   0  0  0  0  0  0  0  0  0  0  0  0
    7.9270   11.0160   24.9000 C   0  0  0  0  0  0  0  0  0  0  0  0
    8.6010   10.0120   24.2630 C   0  0  0  0  0  0  0  0  0  0  0  0
    9.6370    8.3870   22.4090 H   0  0  0  0  0  0  0  0  0  0  0  0
   11.1160    8.8090   23.2750 H   0  0  0  0  0  0  0  0  0  0  0  0
   10.7770    9.5880   21.7320 H   0  0  0  0  0  0  0  0  0  0  0  0
   10.6930   11.8620   22.3430 H   0  0  0  0  0  0  0  0  0  0  0  0
    9.4920   13.6910   23.4850 H   0  0  0  0  0  0  0  0  0  0  0  0
    6.6270   14.2570   27.8530 H   0  0  0  0  0  0  0  0  0  0  0  0
    5.4370   15.0400   26.7840 H   0  0  0  0  0  0  0  0  0  0  0  0
    5.8140   17.1850   27.7800 H   0  0  0  0  0  0  0  0  0  0  0  0
    5.9910   16.1650   29.2210 H   0  0  0  0  0  0  0  0  0  0  0  0
    9.3360   16.3670   26.3460 H   0  0  0  0  0  0  0  0  0  0  0  0
    9.1590   14.9190   27.3840 H   0  0  0  0  0  0  0  0  0  0  0  0
    5.8170   13.0520   26.8660 H   0  0  0  0  0  0  0  0  0  0  0  0
    8.3010    9.0050   24.5250 H   0  0  0  0  0  0  0  0  0  0  0  0
  1  2  1  0
  2  3  2  0
  3  4  1  0
  4  5  2  0
  5  6  1  0
  6  7  1  0
  7  8  2  0
  7  9  1  0
  9 10  1  0
 10 11  1  0
 11 12  1  0
 12 13  1  0
  6 14  2  0
 14 15  1  0
 15 16  1  0
 16 17  2  0
 17  2  1  0
 16  5  1  0
 13  9  1  0
  1 18  1  0
  1 19  1  0
  1 20  1  0
  3 21  1  0
  4 22  1  0
 10 23  1  0
 10 24  1  0
 11 25  1  0
 11 26  1  0
 13 27  1  0
 13 28  1  0
 14 29  1  0
 17 30  1  0
A    1
 C1 
A    2
 C2 
A    3
 C3 
A    4
 C4 
A    5
 C5 
A    6
 C6 
A    7
 C7 
A    8
 O1 
A    9
 N1 
A   10
 C8 
A   11
 C9 
A   12
 S1 
A   13
 C10
A   14
 C11
A   15
 S2 
A   16
 C12
A   17
 C13
A   18
 H1 
A   19
 H2 
A   20
 H3 
A   21
 H4 
A   22
 H5 
A   23
 H6 
A   24
 H7 
A   25
 H8 
A   26
 H9 
A   27
 H10
A   28
 H11
A   29
 H12
A   30
 H13
M  END
>  <ref_pdb>  (69) 
x0310_0A

>  <ref_mols>  (69) 
x0310_0A,x0416_0A,x0310_0A

>  <original SMILES>  (69) 
Cc1ccc2c(C(=O)N3CCSC3)csc2c1

>  <rationale>  (69) 
info hydroph_interaction:P107+V124; 

>  <intxn_cluster>  (69) 
103

>  <intxn_cluster_rank>  (69) 
361

>  <N_interactions>  (69) 
2

>  <∆∆G>  (69) 
-10.537453

>  <$/mg>  (69) 
nan

>  <comRMSD>  (69) 
0.440149

>  <N_rotatable_bonds>  (69) 
2

>  <hbond:SER:7>  (69) 
hbond:SER:7    0
hbond:SER:7    0
Name: 68, dtype: object

>  <halogenbond:SER:7>  (69) 
halogenbond:SER:7    0
halogenbond:SER:7    0
Name: 68, dtype: object

>  <hbond:GLY:8>  (69) 
hbond:GLY:8    0
hbond:GLY:8    0
Name: 68, dtype: object

>  <hydroph_interaction:ASN:19>  (69) 
hydroph_interaction:ASN:19    0
hydroph_interaction:ASN:19    0
Name: 68, dtype: object

>  <hbond:ASN:19>  (69) 
hbond:ASN:19    0
hbond:ASN:19    0
Name: 68, dtype: object

>  <halogenbond:ASN:19>  (69) 
halogenbond:ASN:19    0
halogenbond:ASN:19    0
Name: 68, dtype: object

>  <hbond:ARG:20>  (69) 
hbond:ARG:20    0
hbond:ARG:20    0
Name: 68, dtype: object

>  <hydroph_interaction:ARG:20>  (69) 
hydroph_interaction:ARG:20    0
hydroph_interaction:ARG:20    0
Name: 68, dtype: object

>  <saltbridge:ARG:20>  (69) 
saltbridge:ARG:20    0
saltbridge:ARG:20    0
Name: 68, dtype: object

>  <halogenbond:ARG:20>  (69) 
halogenbond:ARG:20    0
halogenbond:ARG:20    0
Name: 68, dtype: object

>  <pication:ARG:20>  (69) 
pication:ARG:20    0
pication:ARG:20    0
Name: 68, dtype: object

>  <hbond:HIS:21>  (69) 
hbond:HIS:21    0
hbond:HIS:21    0
Name: 68, dtype: object

>  <hydroph_interaction:HIS:21>  (69) 
hydroph_interaction:HIS:21    0
hydroph_interaction:HIS:21    0
Name: 68, dtype: object

>  <saltbridge:HIS:21>  (69) 
saltbridge:HIS:21    0
saltbridge:HIS:21    0
Name: 68, dtype: object

>  <pistack:HIS:21>  (69) 
pistack:HIS:21    0
pistack:HIS:21    0
Name: 68, dtype: object

>  <pication:HIS:21>  (69) 
pication:HIS:21    0
pication:HIS:21    0
Name: 68, dtype: object

>  <halogenbond:HIS:21>  (69) 
halogenbond:HIS:21    0
halogenbond:HIS:21    0
Name: 68, dtype: object

>  <hydroph_interaction:LEU:22>  (69) 
hydroph_interaction:LEU:22    0
hydroph_interaction:LEU:22    0
Name: 68, dtype: object

>  <hbond:LEU:22>  (69) 
hbond:LEU:22    0
hbond:LEU:22    0
Name: 68, dtype: object

>  <hydroph_interaction:TRP:28>  (69) 
hydroph_interaction:TRP:28    0
hydroph_interaction:TRP:28    0
Name: 68, dtype: object

>  <hbond:SER:36>  (69) 
hbond:SER:36    0
hbond:SER:36    0
Name: 68, dtype: object

>  <halogenbond:SER:36>  (69) 
halogenbond:SER:36    0
halogenbond:SER:36    0
Name: 68, dtype: object

>  <hbond:ARG:38>  (69) 
hbond:ARG:38    0
hbond:ARG:38    0
Name: 68, dtype: object

>  <halogenbond:ARG:38>  (69) 
halogenbond:ARG:38    0
halogenbond:ARG:38    0
Name: 68, dtype: object

>  <hbond:ASP:39>  (69) 
hbond:ASP:39    0
hbond:ASP:39    0
Name: 68, dtype: object

>  <saltbridge:ASP:39>  (69) 
saltbridge:ASP:39    0
saltbridge:ASP:39    0
Name: 68, dtype: object

>  <hydroph_interaction:ASP:39>  (69) 
hydroph_interaction:ASP:39    0
hydroph_interaction:ASP:39    0
Name: 68, dtype: object

>  <halogenbond:ASP:39>  (69) 
halogenbond:ASP:39    0
halogenbond:ASP:39    0
Name: 68, dtype: object

>  <hydroph_interaction:LEU:40>  (69) 
hydroph_interaction:LEU:40    0
hydroph_interaction:LEU:40    0
Name: 68, dtype: object

>  <hydroph_interaction:TYR:63>  (69) 
hydroph_interaction:TYR:63    0
hydroph_interaction:TYR:63    0
Name: 68, dtype: object

>  <pistack:TYR:63>  (69) 
pistack:TYR:63    0
pistack:TYR:63    0
Name: 68, dtype: object

>  <hbond:TYR:63>  (69) 
hbond:TYR:63    0
hbond:TYR:63    0
Name: 68, dtype: object

>  <hbond:TYR:64>  (69) 
hbond:TYR:64    0
hbond:TYR:64    0
Name: 68, dtype: object

>  <halogenbond:TYR:64>  (69) 
halogenbond:TYR:64    0
halogenbond:TYR:64    0
Name: 68, dtype: object

>  <hydroph_interaction:TYR:64>  (69) 
hydroph_interaction:TYR:64    0
hydroph_interaction:TYR:64    0
Name: 68, dtype: object

>  <hbond:CYS:65>  (69) 
hbond:CYS:65    0
hbond:CYS:65    0
Name: 68, dtype: object

>  <halogenbond:CYS:65>  (69) 
halogenbond:CYS:65    0
halogenbond:CYS:65    0
Name: 68, dtype: object

>  <hbond:SER:66>  (69) 
hbond:SER:66    0
hbond:SER:66    0
Name: 68, dtype: object

>  <hbond:SER:67>  (69) 
hbond:SER:67    0
hbond:SER:67    0
Name: 68, dtype: object

>  <halogenbond:SER:67>  (69) 
halogenbond:SER:67    0
halogenbond:SER:67    0
Name: 68, dtype: object

>  <hydroph_interaction:ARG:68>  (69) 
hydroph_interaction:ARG:68    0
hydroph_interaction:ARG:68    0
Name: 68, dtype: object

>  <hbond:ARG:68>  (69) 
hbond:ARG:68    0
hbond:ARG:68    0
Name: 68, dtype: object

>  <saltbridge:ARG:68>  (69) 
saltbridge:ARG:68    0
saltbridge:ARG:68    0
Name: 68, dtype: object

>  <pication:ARG:68>  (69) 
pication:ARG:68    0
pication:ARG:68    0
Name: 68, dtype: object

>  <hydroph_interaction:TYR:72>  (69) 
hydroph_interaction:TYR:72    0
hydroph_interaction:TYR:72    0
Name: 68, dtype: object

>  <hydroph_interaction:VAL:74>  (69) 
hydroph_interaction:VAL:74    0
hydroph_interaction:VAL:74    0
Name: 68, dtype: object

>  <hydroph_interaction:PHE:76>  (69) 
hydroph_interaction:PHE:76    0
hydroph_interaction:PHE:76    0
Name: 68, dtype: object

>  <hbond:SER:77>  (69) 
hbond:SER:77    0
hbond:SER:77    0
Name: 68, dtype: object

>  <hbond:SER:80>  (69) 
hbond:SER:80    0
hbond:SER:80    0
Name: 68, dtype: object

>  <hbond:LEU:81>  (69) 
hbond:LEU:81    0
hbond:LEU:81    0
Name: 68, dtype: object

>  <halogenbond:LEU:81>  (69) 
halogenbond:LEU:81    0
halogenbond:LEU:81    0
Name: 68, dtype: object

>  <hydroph_interaction:LEU:81>  (69) 
hydroph_interaction:LEU:81    0
hydroph_interaction:LEU:81    0
Name: 68, dtype: object

>  <hydroph_interaction:ILE:82>  (69) 
hydroph_interaction:ILE:82    0
hydroph_interaction:ILE:82    0
Name: 68, dtype: object

>  <hbond:ILE:82>  (69) 
hbond:ILE:82    0
hbond:ILE:82    0
Name: 68, dtype: object

>  <hydroph_interaction:PHE:83>  (69) 
hydroph_interaction:PHE:83    0
hydroph_interaction:PHE:83    0
Name: 68, dtype: object

>  <hbond:PHE:83>  (69) 
hbond:PHE:83    0
hbond:PHE:83    0
Name: 68, dtype: object

>  <halogenbond:PHE:83>  (69) 
halogenbond:PHE:83    0
halogenbond:PHE:83    0
Name: 68, dtype: object

>  <pistack:PHE:83>  (69) 
pistack:PHE:83    0
pistack:PHE:83    0
Name: 68, dtype: object

>  <hydroph_interaction:VAL:84>  (69) 
hydroph_interaction:VAL:84    0
hydroph_interaction:VAL:84    0
Name: 68, dtype: object

>  <hbond:VAL:84>  (69) 
hbond:VAL:84    0
hbond:VAL:84    0
Name: 68, dtype: object

>  <halogenbond:VAL:84>  (69) 
halogenbond:VAL:84    0
halogenbond:VAL:84    0
Name: 68, dtype: object

>  <hydroph_interaction:GLU:85>  (69) 
hydroph_interaction:GLU:85    0
hydroph_interaction:GLU:85    0
Name: 68, dtype: object

>  <hbond:GLU:85>  (69) 
hbond:GLU:85    0
hbond:GLU:85    0
Name: 68, dtype: object

>  <saltbridge:GLU:85>  (69) 
saltbridge:GLU:85    0
saltbridge:GLU:85    0
Name: 68, dtype: object

>  <halogenbond:GLU:85>  (69) 
halogenbond:GLU:85    0
halogenbond:GLU:85    0
Name: 68, dtype: object

>  <hbond:ALA:86>  (69) 
hbond:ALA:86    0
hbond:ALA:86    0
Name: 68, dtype: object

>  <halogenbond:ALA:86>  (69) 
halogenbond:ALA:86    0
halogenbond:ALA:86    0
Name: 68, dtype: object

>  <hydroph_interaction:ALA:86>  (69) 
hydroph_interaction:ALA:86    0
hydroph_interaction:ALA:86    0
Name: 68, dtype: object

>  <hbond:SER:87>  (69) 
hbond:SER:87    0
hbond:SER:87    0
Name: 68, dtype: object

>  <halogenbond:SER:87>  (69) 
halogenbond:SER:87    0
halogenbond:SER:87    0
Name: 68, dtype: object

>  <hbond:GLU:88>  (69) 
hbond:GLU:88    0
hbond:GLU:88    0
Name: 68, dtype: object

>  <hydroph_interaction:GLU:88>  (69) 
hydroph_interaction:GLU:88    0
hydroph_interaction:GLU:88    0
Name: 68, dtype: object

>  <halogenbond:GLU:88>  (69) 
halogenbond:GLU:88    0
halogenbond:GLU:88    0
Name: 68, dtype: object

>  <saltbridge:GLU:88>  (69) 
saltbridge:GLU:88    0
saltbridge:GLU:88    0
Name: 68, dtype: object

>  <hydroph_interaction:TYR:89>  (69) 
hydroph_interaction:TYR:89    0
hydroph_interaction:TYR:89    0
Name: 68, dtype: object

>  <pistack:TYR:89>  (69) 
pistack:TYR:89    0
pistack:TYR:89    0
Name: 68, dtype: object

>  <hbond:TYR:89>  (69) 
hbond:TYR:89    0
hbond:TYR:89    0
Name: 68, dtype: object

>  <halogenbond:TYR:89>  (69) 
halogenbond:TYR:89    0
halogenbond:TYR:89    0
Name: 68, dtype: object

>  <hbond:TYR:90>  (69) 
hbond:TYR:90    0
hbond:TYR:90    0
Name: 68, dtype: object

>  <hydroph_interaction:TYR:90>  (69) 
hydroph_interaction:TYR:90    0
hydroph_interaction:TYR:90    0
Name: 68, dtype: object

>  <pistack:TYR:90>  (69) 
pistack:TYR:90    0
pistack:TYR:90    0
Name: 68, dtype: object

>  <halogenbond:TYR:90>  (69) 
halogenbond:TYR:90    0
halogenbond:TYR:90    0
Name: 68, dtype: object

>  <pication:TYR:90>  (69) 
pication:TYR:90    0
pication:TYR:90    0
Name: 68, dtype: object

>  <hydroph_interaction:PRO:91>  (69) 
hydroph_interaction:PRO:91    0
hydroph_interaction:PRO:91    0
Name: 68, dtype: object

>  <halogenbond:PRO:91>  (69) 
halogenbond:PRO:91    0
halogenbond:PRO:91    0
Name: 68, dtype: object

>  <hbond:PRO:91>  (69) 
hbond:PRO:91    0
hbond:PRO:91    0
Name: 68, dtype: object

>  <hydroph_interaction:ALA:92>  (69) 
hydroph_interaction:ALA:92    0
hydroph_interaction:ALA:92    0
Name: 68, dtype: object

>  <hbond:ARG:93>  (69) 
hbond:ARG:93    0
hbond:ARG:93    0
Name: 68, dtype: object

>  <pication:ARG:93>  (69) 
pication:ARG:93    0
pication:ARG:93    0
Name: 68, dtype: object

>  <saltbridge:ARG:93>  (69) 
saltbridge:ARG:93    0
saltbridge:ARG:93    0
Name: 68, dtype: object

>  <hydroph_interaction:ARG:93>  (69) 
hydroph_interaction:ARG:93    0
hydroph_interaction:ARG:93    0
Name: 68, dtype: object

>  <halogenbond:ARG:93>  (69) 
halogenbond:ARG:93    0
halogenbond:ARG:93    0
Name: 68, dtype: object

>  <hydroph_interaction:TYR:94>  (69) 
hydroph_interaction:TYR:94    0
hydroph_interaction:TYR:94    0
Name: 68, dtype: object

>  <hbond:TYR:94>  (69) 
hbond:TYR:94    0
hbond:TYR:94    0
Name: 68, dtype: object

>  <halogenbond:GLN:95>  (69) 
halogenbond:GLN:95    0
halogenbond:GLN:95    0
Name: 68, dtype: object

>  <hbond:GLN:95>  (69) 
hbond:GLN:95    0
hbond:GLN:95    0
Name: 68, dtype: object

>  <hydroph_interaction:GLN:95>  (69) 
hydroph_interaction:GLN:95    0
hydroph_interaction:GLN:95    0
Name: 68, dtype: object

>  <hbond:SER:96>  (69) 
hbond:SER:96    0
hbond:SER:96    0
Name: 68, dtype: object

>  <hydroph_interaction:LEU:98>  (69) 
hydroph_interaction:LEU:98    0
hydroph_interaction:LEU:98    0
Name: 68, dtype: object

>  <hbond:LEU:98>  (69) 
hbond:LEU:98    0
hbond:LEU:98    0
Name: 68, dtype: object

>  <hbond:MET:99>  (69) 
hbond:MET:99    0
hbond:MET:99    0
Name: 68, dtype: object

>  <hydroph_interaction:MET:99>  (69) 
hydroph_interaction:MET:99    0
hydroph_interaction:MET:99    0
Name: 68, dtype: object

>  <halogenbond:MET:99>  (69) 
halogenbond:MET:99    0
halogenbond:MET:99    0
Name: 68, dtype: object

>  <hydroph_interaction:LEU:100>  (69) 
hydroph_interaction:LEU:100    0
hydroph_interaction:LEU:100    0
Name: 68, dtype: object

>  <hbond:LEU:100>  (69) 
hbond:LEU:100    0
hbond:LEU:100    0
Name: 68, dtype: object

>  <hbond:ALA:101>  (69) 
hbond:ALA:101    0
hbond:ALA:101    0
Name: 68, dtype: object

>  <hydroph_interaction:ALA:101>  (69) 
hydroph_interaction:ALA:101    0
hydroph_interaction:ALA:101    0
Name: 68, dtype: object

>  <hydroph_interaction:VAL:102>  (69) 
hydroph_interaction:VAL:102    0
hydroph_interaction:VAL:102    0
Name: 68, dtype: object

>  <hbond:VAL:102>  (69) 
hbond:VAL:102    0
hbond:VAL:102    0
Name: 68, dtype: object

>  <hbond:GLY:103>  (69) 
hbond:GLY:103    0
hbond:GLY:103    0
Name: 68, dtype: object

>  <halogenbond:GLY:103>  (69) 
halogenbond:GLY:103    0
halogenbond:GLY:103    0
Name: 68, dtype: object

>  <hydroph_interaction:HIS:104>  (69) 
hydroph_interaction:HIS:104    0
hydroph_interaction:HIS:104    0
Name: 68, dtype: object

>  <hbond:HIS:104>  (69) 
hbond:HIS:104    0
hbond:HIS:104    0
Name: 68, dtype: object

>  <saltbridge:HIS:104>  (69) 
saltbridge:HIS:104    0
saltbridge:HIS:104    0
Name: 68, dtype: object

>  <pication:HIS:104>  (69) 
pication:HIS:104    0
pication:HIS:104    0
Name: 68, dtype: object

>  <pistack:HIS:104>  (69) 
pistack:HIS:104    0
pistack:HIS:104    0
Name: 68, dtype: object

>  <halogenbond:HIS:104>  (69) 
halogenbond:HIS:104    0
halogenbond:HIS:104    0
Name: 68, dtype: object

>  <hbond:SER:105>  (69) 
hbond:SER:105    0
hbond:SER:105    0
Name: 68, dtype: object

>  <halogenbond:SER:105>  (69) 
halogenbond:SER:105    0
halogenbond:SER:105    0
Name: 68, dtype: object

>  <hbond:GLU:106>  (69) 
hbond:GLU:106    0
hbond:GLU:106    0
Name: 68, dtype: object

>  <hydroph_interaction:GLU:106>  (69) 
hydroph_interaction:GLU:106    0
hydroph_interaction:GLU:106    0
Name: 68, dtype: object

>  <saltbridge:GLU:106>  (69) 
saltbridge:GLU:106    0
saltbridge:GLU:106    0
Name: 68, dtype: object

>  <halogenbond:GLU:106>  (69) 
halogenbond:GLU:106    0
halogenbond:GLU:106    0
Name: 68, dtype: object

>  <hydroph_interaction:PRO:107>  (69) 
hydroph_interaction:PRO:107    1
hydroph_interaction:PRO:107    1
Name: 68, dtype: object

>  <hbond:PRO:107>  (69) 
hbond:PRO:107    0
hbond:PRO:107    0
Name: 68, dtype: object

>  <halogenbond:PRO:107>  (69) 
halogenbond:PRO:107    0
halogenbond:PRO:107    0
Name: 68, dtype: object

>  <hbond:GLY:108>  (69) 
hbond:GLY:108    0
hbond:GLY:108    0
Name: 68, dtype: object

>  <halogenbond:GLY:108>  (69) 
halogenbond:GLY:108    0
halogenbond:GLY:108    0
Name: 68, dtype: object

>  <hbond:ASP:109>  (69) 
hbond:ASP:109    0
hbond:ASP:109    0
Name: 68, dtype: object

>  <hydroph_interaction:ASP:109>  (69) 
hydroph_interaction:ASP:109    0
hydroph_interaction:ASP:109    0
Name: 68, dtype: object

>  <saltbridge:ASP:109>  (69) 
saltbridge:ASP:109    0
saltbridge:ASP:109    0
Name: 68, dtype: object

>  <hbond:CYS:110>  (69) 
hbond:CYS:110    0
hbond:CYS:110    0
Name: 68, dtype: object

>  <halogenbond:CYS:110>  (69) 
halogenbond:CYS:110    0
halogenbond:CYS:110    0
Name: 68, dtype: object

>  <hbond:GLY:111>  (69) 
hbond:GLY:111    0
hbond:GLY:111    0
Name: 68, dtype: object

>  <hbond:GLY:112>  (69) 
hbond:GLY:112    0
hbond:GLY:112    0
Name: 68, dtype: object

>  <hbond:ILE:113>  (69) 
hbond:ILE:113    0
hbond:ILE:113    0
Name: 68, dtype: object

>  <hydroph_interaction:LEU:114>  (69) 
hydroph_interaction:LEU:114    0
hydroph_interaction:LEU:114    0
Name: 68, dtype: object

>  <hbond:LEU:114>  (69) 
hbond:LEU:114    0
hbond:LEU:114    0
Name: 68, dtype: object

>  <hydroph_interaction:ILE:123>  (69) 
hydroph_interaction:ILE:123    0
hydroph_interaction:ILE:123    0
Name: 68, dtype: object

>  <hbond:ILE:123>  (69) 
hbond:ILE:123    0
hbond:ILE:123    0
Name: 68, dtype: object

>  <hydroph_interaction:VAL:124>  (69) 
hydroph_interaction:VAL:124    1
hydroph_interaction:VAL:124    1
Name: 68, dtype: object

>  <hbond:VAL:124>  (69) 
hbond:VAL:124    0
hbond:VAL:124    0
Name: 68, dtype: object

>  <halogenbond:VAL:124>  (69) 
halogenbond:VAL:124    0
halogenbond:VAL:124    0
Name: 68, dtype: object

>  <hbond:SER:125>  (69) 
hbond:SER:125    0
hbond:SER:125    0
Name: 68, dtype: object

>  <halogenbond:SER:125>  (69) 
halogenbond:SER:125    0
halogenbond:SER:125    0
Name: 68, dtype: object

>  <hydroph_interaction:THR:126>  (69) 
hydroph_interaction:THR:126    0
hydroph_interaction:THR:126    0
Name: 68, dtype: object

>  <hbond:THR:126>  (69) 
hbond:THR:126    0
hbond:THR:126    0
Name: 68, dtype: object

>  <halogenbond:THR:126>  (69) 
halogenbond:THR:126    0
halogenbond:THR:126    0
Name: 68, dtype: object

>  <hbond:GLY:127>  (69) 
hbond:GLY:127    0
hbond:GLY:127    0
Name: 68, dtype: object

>  <halogenbond:GLY:127>  (69) 
halogenbond:GLY:127    0
halogenbond:GLY:127    0
Name: 68, dtype: object

>  <hydroph_interaction:GLY:127>  (69) 
hydroph_interaction:GLY:127    0
hydroph_interaction:GLY:127    0
Name: 68, dtype: object

>  <hbond:GLY:128>  (69) 
hbond:GLY:128    0
hbond:GLY:128    0
Name: 68, dtype: object

>  <halogenbond:GLY:128>  (69) 
halogenbond:GLY:128    0
halogenbond:GLY:128    0
Name: 68, dtype: object

>  <hydroph_interaction:GLY:128>  (69) 
hydroph_interaction:GLY:128    0
hydroph_interaction:GLY:128    0
Name: 68, dtype: object

>  <hbond:ASN:129>  (69) 
hbond:ASN:129    0
hbond:ASN:129    0
Name: 68, dtype: object

>  <hydroph_interaction:ASN:129>  (69) 
hydroph_interaction:ASN:129    0
hydroph_interaction:ASN:129    0
Name: 68, dtype: object

>  <halogenbond:ASN:129>  (69) 
halogenbond:ASN:129    0
halogenbond:ASN:129    0
Name: 68, dtype: object

>  <hbond:GLY:130>  (69) 
hbond:GLY:130    0
hbond:GLY:130    0
Name: 68, dtype: object

>  <hydroph_interaction:LEU:131>  (69) 
hydroph_interaction:LEU:131    0
hydroph_interaction:LEU:131    0
Name: 68, dtype: object

>  <hbond:LEU:131>  (69) 
hbond:LEU:131    0
hbond:LEU:131    0
Name: 68, dtype: object

>  <halogenbond:LEU:131>  (69) 
halogenbond:LEU:131    0
halogenbond:LEU:131    0
Name: 68, dtype: object

>  <hydroph_interaction:VAL:132>  (69) 
hydroph_interaction:VAL:132    0
hydroph_interaction:VAL:132    0
Name: 68, dtype: object

>  <hbond:VAL:132>  (69) 
hbond:VAL:132    0
hbond:VAL:132    0
Name: 68, dtype: object

>  <hbond:GLY:133>  (69) 
hbond:GLY:133    0
hbond:GLY:133    0
Name: 68, dtype: object

>  <halogenbond:GLY:133>  (69) 
halogenbond:GLY:133    0
halogenbond:GLY:133    0
Name: 68, dtype: object

>  <hydroph_interaction:PHE:134>  (69) 
hydroph_interaction:PHE:134    0
hydroph_interaction:PHE:134    0
Name: 68, dtype: object

>  <hbond:PHE:134>  (69) 
hbond:PHE:134    0
hbond:PHE:134    0
Name: 68, dtype: object

>  <pistack:PHE:134>  (69) 
pistack:PHE:134    0
pistack:PHE:134    0
Name: 68, dtype: object

>  <pication:PHE:134>  (69) 
pication:PHE:134    0
pication:PHE:134    0
Name: 68, dtype: object

>  <hydroph_interaction:ALA:135>  (69) 
hydroph_interaction:ALA:135    0
hydroph_interaction:ALA:135    0
Name: 68, dtype: object

>  <hbond:ALA:135>  (69) 
hbond:ALA:135    0
hbond:ALA:135    0
Name: 68, dtype: object

$$$$
PV_003226935384
     RDKit          3D

 25 26  0  0  0  0  0  0  0  0999 V2000
   12.4520   13.8380   23.1850 C   0  0  0  0  0  0  0  0  0  0  0  0
   11.3130   14.6230   22.6390 C   0  0  0  0  0  0  0  0  0  0  0  0
    9.8890   14.1490   22.6520 C   0  0  0  0  0  0  0  0  0  0  0  0
    9.4990   12.8110   23.2220 C   0  0  0  0  0  0  0  0  0  0  0  0
    8.4440   12.8050   24.2110 C   0  0  0  0  0  0  0  0  0  0  0  0
    7.7190   13.8420   24.7520 O   0  0  0  0  0  0  0  0  0  0  0  0
    6.8380   13.2800   25.6430 C   0  0  0  0  0  0  0  0  0  0  0  0
    7.0340   11.7770   25.6590 C   0  0  0  0  0  0  0  0  0  0  0  0
    8.0270   11.6220   24.7560 C   0  0  0  0  0  0  0  0  0  0  0  0
    8.6380   10.3500   24.3500 C   0  0  0  0  0  0  0  0  0  0  0  0
    9.6550   10.3690   23.4020 C   0  0  0  0  0  0  0  0  0  0  0  0
   10.1790    9.1130   23.0720 C   0  0  0  0  0  0  0  0  0  0  0  0
   10.0740   11.5780   22.8560 C   0  0  0  0  0  0  0  0  0  0  0  0
   13.1110   14.5020   23.7570 H   0  0  0  0  0  0  0  0  0  0  0  0
   12.1220   13.0320   23.8450 H   0  0  0  0  0  0  0  0  0  0  0  0
   12.9960   13.3910   22.3530 H   0  0  0  0  0  0  0  0  0  0  0  0
   11.5800   15.5890   22.2160 H   0  0  0  0  0  0  0  0  0  0  0  0
    9.1140   14.7880   22.2220 H   0  0  0  0  0  0  0  0  0  0  0  0
    6.1710   13.9730   26.1700 H   0  0  0  0  0  0  0  0  0  0  0  0
    6.5100   11.0320   26.2430 H   0  0  0  0  0  0  0  0  0  0  0  0
    8.2970    9.4190   24.7860 H   0  0  0  0  0  0  0  0  0  0  0  0
    9.7490    8.3670   23.7230 H   0  0  0  0  0  0  0  0  0  0  0  0
    9.9330    8.8390   22.0410 H   0  0  0  0  0  0  0  0  0  0  0  0
   11.2620    9.1020   23.2000 H   0  0  0  0  0  0  0  0  0  0  0  0
   10.8670   11.5650   22.1210 H   0  0  0  0  0  0  0  0  0  0  0  0
  1  2  1  0
  2  3  2  0
  3  4  1  0
  4  5  2  0
  5  6  1  0
  6  7  1  0
  7  8  2  0
  8  9  1  0
  9 10  2  0
 10 11  1  0
 11 12  1  0
 11 13  2  0
 13  4  1  0
  9  5  1  0
  1 14  1  0
  1 15  1  0
  1 16  1  0
  2 17  1  0
  3 18  1  0
  7 19  1  0
  8 20  1  0
 10 21  1  0
 12 22  1  0
 12 23  1  0
 12 24  1  0
 13 25  1  0
A    1
 C1 
A    2
 C2 
A    3
 C3 
A    4
 C4 
A    5
 C5 
A    6
 O1 
A    7
 C6 
A    8
 C7 
A    9
 C8 
A   10
 C9 
A   11
 C10
A   12
 C11
A   13
 C12
A   14
 H1 
A   15
 H2 
A   16
 H3 
A   17
 H4 
A   18
 H5 
A   19
 H6 
A   20
 H7 
A   21
 H8 
A   22
 H9 
A   23
 H10
A   24
 H11
A   25
 H12
M  END
>  <ref_pdb>  (70) 
x0310_0A

>  <ref_mols>  (70) 
x0554_0A,x0528_0A

>  <original SMILES>  (70) 
C/C=C/c1cc(C)cc2ccoc12

>  <rationale>  (70) 
info hydroph_interaction:V124; 

>  <intxn_cluster>  (70) 
103

>  <intxn_cluster_rank>  (70) 
367

>  <N_interactions>  (70) 
1

>  <∆∆G>  (70) 
-10.758507

>  <$/mg>  (70) 
nan

>  <comRMSD>  (70) 
0.766777

>  <N_rotatable_bonds>  (70) 
3

>  <hbond:SER:7>  (70) 
hbond:SER:7    0
hbond:SER:7    0
Name: 69, dtype: object

>  <halogenbond:SER:7>  (70) 
halogenbond:SER:7    0
halogenbond:SER:7    0
Name: 69, dtype: object

>  <hbond:GLY:8>  (70) 
hbond:GLY:8    0
hbond:GLY:8    0
Name: 69, dtype: object

>  <hydroph_interaction:ASN:19>  (70) 
hydroph_interaction:ASN:19    0
hydroph_interaction:ASN:19    0
Name: 69, dtype: object

>  <hbond:ASN:19>  (70) 
hbond:ASN:19    0
hbond:ASN:19    0
Name: 69, dtype: object

>  <halogenbond:ASN:19>  (70) 
halogenbond:ASN:19    0
halogenbond:ASN:19    0
Name: 69, dtype: object

>  <hbond:ARG:20>  (70) 
hbond:ARG:20    0
hbond:ARG:20    0
Name: 69, dtype: object

>  <hydroph_interaction:ARG:20>  (70) 
hydroph_interaction:ARG:20    0
hydroph_interaction:ARG:20    0
Name: 69, dtype: object

>  <saltbridge:ARG:20>  (70) 
saltbridge:ARG:20    0
saltbridge:ARG:20    0
Name: 69, dtype: object

>  <halogenbond:ARG:20>  (70) 
halogenbond:ARG:20    0
halogenbond:ARG:20    0
Name: 69, dtype: object

>  <pication:ARG:20>  (70) 
pication:ARG:20    0
pication:ARG:20    0
Name: 69, dtype: object

>  <hbond:HIS:21>  (70) 
hbond:HIS:21    0
hbond:HIS:21    0
Name: 69, dtype: object

>  <hydroph_interaction:HIS:21>  (70) 
hydroph_interaction:HIS:21    0
hydroph_interaction:HIS:21    0
Name: 69, dtype: object

>  <saltbridge:HIS:21>  (70) 
saltbridge:HIS:21    0
saltbridge:HIS:21    0
Name: 69, dtype: object

>  <pistack:HIS:21>  (70) 
pistack:HIS:21    0
pistack:HIS:21    0
Name: 69, dtype: object

>  <pication:HIS:21>  (70) 
pication:HIS:21    0
pication:HIS:21    0
Name: 69, dtype: object

>  <halogenbond:HIS:21>  (70) 
halogenbond:HIS:21    0
halogenbond:HIS:21    0
Name: 69, dtype: object

>  <hydroph_interaction:LEU:22>  (70) 
hydroph_interaction:LEU:22    0
hydroph_interaction:LEU:22    0
Name: 69, dtype: object

>  <hbond:LEU:22>  (70) 
hbond:LEU:22    0
hbond:LEU:22    0
Name: 69, dtype: object

>  <hydroph_interaction:TRP:28>  (70) 
hydroph_interaction:TRP:28    0
hydroph_interaction:TRP:28    0
Name: 69, dtype: object

>  <hbond:SER:36>  (70) 
hbond:SER:36    0
hbond:SER:36    0
Name: 69, dtype: object

>  <halogenbond:SER:36>  (70) 
halogenbond:SER:36    0
halogenbond:SER:36    0
Name: 69, dtype: object

>  <hbond:ARG:38>  (70) 
hbond:ARG:38    0
hbond:ARG:38    0
Name: 69, dtype: object

>  <halogenbond:ARG:38>  (70) 
halogenbond:ARG:38    0
halogenbond:ARG:38    0
Name: 69, dtype: object

>  <hbond:ASP:39>  (70) 
hbond:ASP:39    0
hbond:ASP:39    0
Name: 69, dtype: object

>  <saltbridge:ASP:39>  (70) 
saltbridge:ASP:39    0
saltbridge:ASP:39    0
Name: 69, dtype: object

>  <hydroph_interaction:ASP:39>  (70) 
hydroph_interaction:ASP:39    0
hydroph_interaction:ASP:39    0
Name: 69, dtype: object

>  <halogenbond:ASP:39>  (70) 
halogenbond:ASP:39    0
halogenbond:ASP:39    0
Name: 69, dtype: object

>  <hydroph_interaction:LEU:40>  (70) 
hydroph_interaction:LEU:40    0
hydroph_interaction:LEU:40    0
Name: 69, dtype: object

>  <hydroph_interaction:TYR:63>  (70) 
hydroph_interaction:TYR:63    0
hydroph_interaction:TYR:63    0
Name: 69, dtype: object

>  <pistack:TYR:63>  (70) 
pistack:TYR:63    0
pistack:TYR:63    0
Name: 69, dtype: object

>  <hbond:TYR:63>  (70) 
hbond:TYR:63    0
hbond:TYR:63    0
Name: 69, dtype: object

>  <hbond:TYR:64>  (70) 
hbond:TYR:64    0
hbond:TYR:64    0
Name: 69, dtype: object

>  <halogenbond:TYR:64>  (70) 
halogenbond:TYR:64    0
halogenbond:TYR:64    0
Name: 69, dtype: object

>  <hydroph_interaction:TYR:64>  (70) 
hydroph_interaction:TYR:64    0
hydroph_interaction:TYR:64    0
Name: 69, dtype: object

>  <hbond:CYS:65>  (70) 
hbond:CYS:65    0
hbond:CYS:65    0
Name: 69, dtype: object

>  <halogenbond:CYS:65>  (70) 
halogenbond:CYS:65    0
halogenbond:CYS:65    0
Name: 69, dtype: object

>  <hbond:SER:66>  (70) 
hbond:SER:66    0
hbond:SER:66    0
Name: 69, dtype: object

>  <hbond:SER:67>  (70) 
hbond:SER:67    0
hbond:SER:67    0
Name: 69, dtype: object

>  <halogenbond:SER:67>  (70) 
halogenbond:SER:67    0
halogenbond:SER:67    0
Name: 69, dtype: object

>  <hydroph_interaction:ARG:68>  (70) 
hydroph_interaction:ARG:68    0
hydroph_interaction:ARG:68    0
Name: 69, dtype: object

>  <hbond:ARG:68>  (70) 
hbond:ARG:68    0
hbond:ARG:68    0
Name: 69, dtype: object

>  <saltbridge:ARG:68>  (70) 
saltbridge:ARG:68    0
saltbridge:ARG:68    0
Name: 69, dtype: object

>  <pication:ARG:68>  (70) 
pication:ARG:68    0
pication:ARG:68    0
Name: 69, dtype: object

>  <hydroph_interaction:TYR:72>  (70) 
hydroph_interaction:TYR:72    0
hydroph_interaction:TYR:72    0
Name: 69, dtype: object

>  <hydroph_interaction:VAL:74>  (70) 
hydroph_interaction:VAL:74    0
hydroph_interaction:VAL:74    0
Name: 69, dtype: object

>  <hydroph_interaction:PHE:76>  (70) 
hydroph_interaction:PHE:76    0
hydroph_interaction:PHE:76    0
Name: 69, dtype: object

>  <hbond:SER:77>  (70) 
hbond:SER:77    0
hbond:SER:77    0
Name: 69, dtype: object

>  <hbond:SER:80>  (70) 
hbond:SER:80    0
hbond:SER:80    0
Name: 69, dtype: object

>  <hbond:LEU:81>  (70) 
hbond:LEU:81    0
hbond:LEU:81    0
Name: 69, dtype: object

>  <halogenbond:LEU:81>  (70) 
halogenbond:LEU:81    0
halogenbond:LEU:81    0
Name: 69, dtype: object

>  <hydroph_interaction:LEU:81>  (70) 
hydroph_interaction:LEU:81    0
hydroph_interaction:LEU:81    0
Name: 69, dtype: object

>  <hydroph_interaction:ILE:82>  (70) 
hydroph_interaction:ILE:82    0
hydroph_interaction:ILE:82    0
Name: 69, dtype: object

>  <hbond:ILE:82>  (70) 
hbond:ILE:82    0
hbond:ILE:82    0
Name: 69, dtype: object

>  <hydroph_interaction:PHE:83>  (70) 
hydroph_interaction:PHE:83    0
hydroph_interaction:PHE:83    0
Name: 69, dtype: object

>  <hbond:PHE:83>  (70) 
hbond:PHE:83    0
hbond:PHE:83    0
Name: 69, dtype: object

>  <halogenbond:PHE:83>  (70) 
halogenbond:PHE:83    0
halogenbond:PHE:83    0
Name: 69, dtype: object

>  <pistack:PHE:83>  (70) 
pistack:PHE:83    0
pistack:PHE:83    0
Name: 69, dtype: object

>  <hydroph_interaction:VAL:84>  (70) 
hydroph_interaction:VAL:84    0
hydroph_interaction:VAL:84    0
Name: 69, dtype: object

>  <hbond:VAL:84>  (70) 
hbond:VAL:84    0
hbond:VAL:84    0
Name: 69, dtype: object

>  <halogenbond:VAL:84>  (70) 
halogenbond:VAL:84    0
halogenbond:VAL:84    0
Name: 69, dtype: object

>  <hydroph_interaction:GLU:85>  (70) 
hydroph_interaction:GLU:85    0
hydroph_interaction:GLU:85    0
Name: 69, dtype: object

>  <hbond:GLU:85>  (70) 
hbond:GLU:85    0
hbond:GLU:85    0
Name: 69, dtype: object

>  <saltbridge:GLU:85>  (70) 
saltbridge:GLU:85    0
saltbridge:GLU:85    0
Name: 69, dtype: object

>  <halogenbond:GLU:85>  (70) 
halogenbond:GLU:85    0
halogenbond:GLU:85    0
Name: 69, dtype: object

>  <hbond:ALA:86>  (70) 
hbond:ALA:86    0
hbond:ALA:86    0
Name: 69, dtype: object

>  <halogenbond:ALA:86>  (70) 
halogenbond:ALA:86    0
halogenbond:ALA:86    0
Name: 69, dtype: object

>  <hydroph_interaction:ALA:86>  (70) 
hydroph_interaction:ALA:86    0
hydroph_interaction:ALA:86    0
Name: 69, dtype: object

>  <hbond:SER:87>  (70) 
hbond:SER:87    0
hbond:SER:87    0
Name: 69, dtype: object

>  <halogenbond:SER:87>  (70) 
halogenbond:SER:87    0
halogenbond:SER:87    0
Name: 69, dtype: object

>  <hbond:GLU:88>  (70) 
hbond:GLU:88    0
hbond:GLU:88    0
Name: 69, dtype: object

>  <hydroph_interaction:GLU:88>  (70) 
hydroph_interaction:GLU:88    0
hydroph_interaction:GLU:88    0
Name: 69, dtype: object

>  <halogenbond:GLU:88>  (70) 
halogenbond:GLU:88    0
halogenbond:GLU:88    0
Name: 69, dtype: object

>  <saltbridge:GLU:88>  (70) 
saltbridge:GLU:88    0
saltbridge:GLU:88    0
Name: 69, dtype: object

>  <hydroph_interaction:TYR:89>  (70) 
hydroph_interaction:TYR:89    0
hydroph_interaction:TYR:89    0
Name: 69, dtype: object

>  <pistack:TYR:89>  (70) 
pistack:TYR:89    0
pistack:TYR:89    0
Name: 69, dtype: object

>  <hbond:TYR:89>  (70) 
hbond:TYR:89    0
hbond:TYR:89    0
Name: 69, dtype: object

>  <halogenbond:TYR:89>  (70) 
halogenbond:TYR:89    0
halogenbond:TYR:89    0
Name: 69, dtype: object

>  <hbond:TYR:90>  (70) 
hbond:TYR:90    0
hbond:TYR:90    0
Name: 69, dtype: object

>  <hydroph_interaction:TYR:90>  (70) 
hydroph_interaction:TYR:90    0
hydroph_interaction:TYR:90    0
Name: 69, dtype: object

>  <pistack:TYR:90>  (70) 
pistack:TYR:90    0
pistack:TYR:90    0
Name: 69, dtype: object

>  <halogenbond:TYR:90>  (70) 
halogenbond:TYR:90    0
halogenbond:TYR:90    0
Name: 69, dtype: object

>  <pication:TYR:90>  (70) 
pication:TYR:90    0
pication:TYR:90    0
Name: 69, dtype: object

>  <hydroph_interaction:PRO:91>  (70) 
hydroph_interaction:PRO:91    0
hydroph_interaction:PRO:91    0
Name: 69, dtype: object

>  <halogenbond:PRO:91>  (70) 
halogenbond:PRO:91    0
halogenbond:PRO:91    0
Name: 69, dtype: object

>  <hbond:PRO:91>  (70) 
hbond:PRO:91    0
hbond:PRO:91    0
Name: 69, dtype: object

>  <hydroph_interaction:ALA:92>  (70) 
hydroph_interaction:ALA:92    0
hydroph_interaction:ALA:92    0
Name: 69, dtype: object

>  <hbond:ARG:93>  (70) 
hbond:ARG:93    0
hbond:ARG:93    0
Name: 69, dtype: object

>  <pication:ARG:93>  (70) 
pication:ARG:93    0
pication:ARG:93    0
Name: 69, dtype: object

>  <saltbridge:ARG:93>  (70) 
saltbridge:ARG:93    0
saltbridge:ARG:93    0
Name: 69, dtype: object

>  <hydroph_interaction:ARG:93>  (70) 
hydroph_interaction:ARG:93    0
hydroph_interaction:ARG:93    0
Name: 69, dtype: object

>  <halogenbond:ARG:93>  (70) 
halogenbond:ARG:93    0
halogenbond:ARG:93    0
Name: 69, dtype: object

>  <hydroph_interaction:TYR:94>  (70) 
hydroph_interaction:TYR:94    0
hydroph_interaction:TYR:94    0
Name: 69, dtype: object

>  <hbond:TYR:94>  (70) 
hbond:TYR:94    0
hbond:TYR:94    0
Name: 69, dtype: object

>  <halogenbond:GLN:95>  (70) 
halogenbond:GLN:95    0
halogenbond:GLN:95    0
Name: 69, dtype: object

>  <hbond:GLN:95>  (70) 
hbond:GLN:95    0
hbond:GLN:95    0
Name: 69, dtype: object

>  <hydroph_interaction:GLN:95>  (70) 
hydroph_interaction:GLN:95    0
hydroph_interaction:GLN:95    0
Name: 69, dtype: object

>  <hbond:SER:96>  (70) 
hbond:SER:96    0
hbond:SER:96    0
Name: 69, dtype: object

>  <hydroph_interaction:LEU:98>  (70) 
hydroph_interaction:LEU:98    0
hydroph_interaction:LEU:98    0
Name: 69, dtype: object

>  <hbond:LEU:98>  (70) 
hbond:LEU:98    0
hbond:LEU:98    0
Name: 69, dtype: object

>  <hbond:MET:99>  (70) 
hbond:MET:99    0
hbond:MET:99    0
Name: 69, dtype: object

>  <hydroph_interaction:MET:99>  (70) 
hydroph_interaction:MET:99    0
hydroph_interaction:MET:99    0
Name: 69, dtype: object

>  <halogenbond:MET:99>  (70) 
halogenbond:MET:99    0
halogenbond:MET:99    0
Name: 69, dtype: object

>  <hydroph_interaction:LEU:100>  (70) 
hydroph_interaction:LEU:100    0
hydroph_interaction:LEU:100    0
Name: 69, dtype: object

>  <hbond:LEU:100>  (70) 
hbond:LEU:100    0
hbond:LEU:100    0
Name: 69, dtype: object

>  <hbond:ALA:101>  (70) 
hbond:ALA:101    0
hbond:ALA:101    0
Name: 69, dtype: object

>  <hydroph_interaction:ALA:101>  (70) 
hydroph_interaction:ALA:101    0
hydroph_interaction:ALA:101    0
Name: 69, dtype: object

>  <hydroph_interaction:VAL:102>  (70) 
hydroph_interaction:VAL:102    0
hydroph_interaction:VAL:102    0
Name: 69, dtype: object

>  <hbond:VAL:102>  (70) 
hbond:VAL:102    0
hbond:VAL:102    0
Name: 69, dtype: object

>  <hbond:GLY:103>  (70) 
hbond:GLY:103    0
hbond:GLY:103    0
Name: 69, dtype: object

>  <halogenbond:GLY:103>  (70) 
halogenbond:GLY:103    0
halogenbond:GLY:103    0
Name: 69, dtype: object

>  <hydroph_interaction:HIS:104>  (70) 
hydroph_interaction:HIS:104    0
hydroph_interaction:HIS:104    0
Name: 69, dtype: object

>  <hbond:HIS:104>  (70) 
hbond:HIS:104    0
hbond:HIS:104    0
Name: 69, dtype: object

>  <saltbridge:HIS:104>  (70) 
saltbridge:HIS:104    0
saltbridge:HIS:104    0
Name: 69, dtype: object

>  <pication:HIS:104>  (70) 
pication:HIS:104    0
pication:HIS:104    0
Name: 69, dtype: object

>  <pistack:HIS:104>  (70) 
pistack:HIS:104    0
pistack:HIS:104    0
Name: 69, dtype: object

>  <halogenbond:HIS:104>  (70) 
halogenbond:HIS:104    0
halogenbond:HIS:104    0
Name: 69, dtype: object

>  <hbond:SER:105>  (70) 
hbond:SER:105    0
hbond:SER:105    0
Name: 69, dtype: object

>  <halogenbond:SER:105>  (70) 
halogenbond:SER:105    0
halogenbond:SER:105    0
Name: 69, dtype: object

>  <hbond:GLU:106>  (70) 
hbond:GLU:106    0
hbond:GLU:106    0
Name: 69, dtype: object

>  <hydroph_interaction:GLU:106>  (70) 
hydroph_interaction:GLU:106    0
hydroph_interaction:GLU:106    0
Name: 69, dtype: object

>  <saltbridge:GLU:106>  (70) 
saltbridge:GLU:106    0
saltbridge:GLU:106    0
Name: 69, dtype: object

>  <halogenbond:GLU:106>  (70) 
halogenbond:GLU:106    0
halogenbond:GLU:106    0
Name: 69, dtype: object

>  <hydroph_interaction:PRO:107>  (70) 
hydroph_interaction:PRO:107    0
hydroph_interaction:PRO:107    0
Name: 69, dtype: object

>  <hbond:PRO:107>  (70) 
hbond:PRO:107    0
hbond:PRO:107    0
Name: 69, dtype: object

>  <halogenbond:PRO:107>  (70) 
halogenbond:PRO:107    0
halogenbond:PRO:107    0
Name: 69, dtype: object

>  <hbond:GLY:108>  (70) 
hbond:GLY:108    0
hbond:GLY:108    0
Name: 69, dtype: object

>  <halogenbond:GLY:108>  (70) 
halogenbond:GLY:108    0
halogenbond:GLY:108    0
Name: 69, dtype: object

>  <hbond:ASP:109>  (70) 
hbond:ASP:109    0
hbond:ASP:109    0
Name: 69, dtype: object

>  <hydroph_interaction:ASP:109>  (70) 
hydroph_interaction:ASP:109    0
hydroph_interaction:ASP:109    0
Name: 69, dtype: object

>  <saltbridge:ASP:109>  (70) 
saltbridge:ASP:109    0
saltbridge:ASP:109    0
Name: 69, dtype: object

>  <hbond:CYS:110>  (70) 
hbond:CYS:110    0
hbond:CYS:110    0
Name: 69, dtype: object

>  <halogenbond:CYS:110>  (70) 
halogenbond:CYS:110    0
halogenbond:CYS:110    0
Name: 69, dtype: object

>  <hbond:GLY:111>  (70) 
hbond:GLY:111    0
hbond:GLY:111    0
Name: 69, dtype: object

>  <hbond:GLY:112>  (70) 
hbond:GLY:112    0
hbond:GLY:112    0
Name: 69, dtype: object

>  <hbond:ILE:113>  (70) 
hbond:ILE:113    0
hbond:ILE:113    0
Name: 69, dtype: object

>  <hydroph_interaction:LEU:114>  (70) 
hydroph_interaction:LEU:114    0
hydroph_interaction:LEU:114    0
Name: 69, dtype: object

>  <hbond:LEU:114>  (70) 
hbond:LEU:114    0
hbond:LEU:114    0
Name: 69, dtype: object

>  <hydroph_interaction:ILE:123>  (70) 
hydroph_interaction:ILE:123    0
hydroph_interaction:ILE:123    0
Name: 69, dtype: object

>  <hbond:ILE:123>  (70) 
hbond:ILE:123    0
hbond:ILE:123    0
Name: 69, dtype: object

>  <hydroph_interaction:VAL:124>  (70) 
hydroph_interaction:VAL:124    1
hydroph_interaction:VAL:124    1
Name: 69, dtype: object

>  <hbond:VAL:124>  (70) 
hbond:VAL:124    0
hbond:VAL:124    0
Name: 69, dtype: object

>  <halogenbond:VAL:124>  (70) 
halogenbond:VAL:124    0
halogenbond:VAL:124    0
Name: 69, dtype: object

>  <hbond:SER:125>  (70) 
hbond:SER:125    0
hbond:SER:125    0
Name: 69, dtype: object

>  <halogenbond:SER:125>  (70) 
halogenbond:SER:125    0
halogenbond:SER:125    0
Name: 69, dtype: object

>  <hydroph_interaction:THR:126>  (70) 
hydroph_interaction:THR:126    0
hydroph_interaction:THR:126    0
Name: 69, dtype: object

>  <hbond:THR:126>  (70) 
hbond:THR:126    0
hbond:THR:126    0
Name: 69, dtype: object

>  <halogenbond:THR:126>  (70) 
halogenbond:THR:126    0
halogenbond:THR:126    0
Name: 69, dtype: object

>  <hbond:GLY:127>  (70) 
hbond:GLY:127    0
hbond:GLY:127    0
Name: 69, dtype: object

>  <halogenbond:GLY:127>  (70) 
halogenbond:GLY:127    0
halogenbond:GLY:127    0
Name: 69, dtype: object

>  <hydroph_interaction:GLY:127>  (70) 
hydroph_interaction:GLY:127    0
hydroph_interaction:GLY:127    0
Name: 69, dtype: object

>  <hbond:GLY:128>  (70) 
hbond:GLY:128    0
hbond:GLY:128    0
Name: 69, dtype: object

>  <halogenbond:GLY:128>  (70) 
halogenbond:GLY:128    0
halogenbond:GLY:128    0
Name: 69, dtype: object

>  <hydroph_interaction:GLY:128>  (70) 
hydroph_interaction:GLY:128    0
hydroph_interaction:GLY:128    0
Name: 69, dtype: object

>  <hbond:ASN:129>  (70) 
hbond:ASN:129    0
hbond:ASN:129    0
Name: 69, dtype: object

>  <hydroph_interaction:ASN:129>  (70) 
hydroph_interaction:ASN:129    0
hydroph_interaction:ASN:129    0
Name: 69, dtype: object

>  <halogenbond:ASN:129>  (70) 
halogenbond:ASN:129    0
halogenbond:ASN:129    0
Name: 69, dtype: object

>  <hbond:GLY:130>  (70) 
hbond:GLY:130    0
hbond:GLY:130    0
Name: 69, dtype: object

>  <hydroph_interaction:LEU:131>  (70) 
hydroph_interaction:LEU:131    0
hydroph_interaction:LEU:131    0
Name: 69, dtype: object

>  <hbond:LEU:131>  (70) 
hbond:LEU:131    0
hbond:LEU:131    0
Name: 69, dtype: object

>  <halogenbond:LEU:131>  (70) 
halogenbond:LEU:131    0
halogenbond:LEU:131    0
Name: 69, dtype: object

>  <hydroph_interaction:VAL:132>  (70) 
hydroph_interaction:VAL:132    0
hydroph_interaction:VAL:132    0
Name: 69, dtype: object

>  <hbond:VAL:132>  (70) 
hbond:VAL:132    0
hbond:VAL:132    0
Name: 69, dtype: object

>  <hbond:GLY:133>  (70) 
hbond:GLY:133    0
hbond:GLY:133    0
Name: 69, dtype: object

>  <halogenbond:GLY:133>  (70) 
halogenbond:GLY:133    0
halogenbond:GLY:133    0
Name: 69, dtype: object

>  <hydroph_interaction:PHE:134>  (70) 
hydroph_interaction:PHE:134    0
hydroph_interaction:PHE:134    0
Name: 69, dtype: object

>  <hbond:PHE:134>  (70) 
hbond:PHE:134    0
hbond:PHE:134    0
Name: 69, dtype: object

>  <pistack:PHE:134>  (70) 
pistack:PHE:134    0
pistack:PHE:134    0
Name: 69, dtype: object

>  <pication:PHE:134>  (70) 
pication:PHE:134    0
pication:PHE:134    0
Name: 69, dtype: object

>  <hydroph_interaction:ALA:135>  (70) 
hydroph_interaction:ALA:135    0
hydroph_interaction:ALA:135    0
Name: 69, dtype: object

>  <hbond:ALA:135>  (70) 
hbond:ALA:135    0
hbond:ALA:135    0
Name: 69, dtype: object

$$$$
Z4282857172
     RDKit          3D

 21 22  0  0  0  0  0  0  0  0999 V2000
   12.2810   14.8580   21.6920 C   0  0  0  0  0  0  0  0  0  0  0  0
   11.1860   13.9340   21.9130 N   0  0  0  0  0  0  0  0  0  0  0  0
   10.6950   13.7690   23.1930 C   0  0  0  0  0  0  0  0  0  0  0  0
   10.9000   14.5960   24.0690 O   0  0  0  0  0  0  0  0  0  0  0  0
    9.9740   12.5450   23.4840 C   0  0  0  0  0  0  0  0  0  0  0  0
   10.3180   11.3530   22.8840 C   0  0  0  0  0  0  0  0  0  0  0  0
    9.3850   10.0410   23.4020 S   0  0  0  0  0  0  0  0  0  0  0  0
    8.4560   11.0340   24.4320 C   0  0  0  0  0  0  0  0  0  0  0  0
    7.4130   10.6390   25.2390 C   0  0  0  0  0  0  0  0  0  0  0  0
    6.8030   11.6170   25.9940 C   0  0  0  0  0  0  0  0  0  0  0  0
    5.5030   11.1820   27.0240 Cl  0  0  0  0  0  0  0  0  0  0  0  0
    7.2450   12.9270   25.9110 C   0  0  0  0  0  0  0  0  0  0  0  0
    8.2660   13.3460   25.1300 N   0  0  0  0  0  0  0  0  0  0  0  0
    8.8700   12.3620   24.3830 C   0  0  0  0  0  0  0  0  0  0  0  0
   12.6430   14.7310   20.6680 H   0  0  0  0  0  0  0  0  0  0  0  0
   13.0960   14.6600   22.3930 H   0  0  0  0  0  0  0  0  0  0  0  0
   11.9140   15.8780   21.8320 H   0  0  0  0  0  0  0  0  0  0  0  0
   11.0990   13.1550   21.2570 H   0  0  0  0  0  0  0  0  0  0  0  0
   11.0740   11.1420   22.1640 H   0  0  0  0  0  0  0  0  0  0  0  0
    7.1110    9.6180   25.2610 H   0  0  0  0  0  0  0  0  0  0  0  0
    6.7670   13.7090   26.5000 H   0  0  0  0  0  0  0  0  0  0  0  0
  1  2  1  0
  2  3  1  0
  3  4  2  0
  3  5  1  0
  5  6  2  0
  6  7  1  0
  7  8  1  0
  8  9  2  0
  9 10  1  0
 10 11  1  0
 10 12  2  0
 12 13  1  0
 13 14  2  0
 14  5  1  0
 14  8  1  0
  1 15  1  0
  1 16  1  0
  1 17  1  0
  2 18  1  0
  6 19  1  0
  9 20  1  0
 12 21  1  0
A    1
 C1 
A    2
 N1 
A    3
 C2 
A    4
 O1 
A    5
 C3 
A    6
 C4 
A    7
 S1 
A    8
 C5 
A    9
 C6 
A   10
 C7 
A   11
CL1 
A   12
 C8 
A   13
 N2 
A   14
 C9 
A   15
 H1 
A   16
 H2 
A   17
 H3 
A   18
 H4 
A   19
 H5 
A   20
 H6 
A   21
 H7 
M  END
>  <ref_pdb>  (71) 
x0310_0A

>  <ref_mols>  (71) 
x0451_0A,x0528_0A,x0365_0A

>  <original SMILES>  (71) 
CNC(=O)c1csc2cc(Cl)cnc12

>  <rationale>  (71) 
info hbond:S125; 

>  <intxn_cluster>  (71) 
208

>  <intxn_cluster_rank>  (71) 
385

>  <N_interactions>  (71) 
1

>  <∆∆G>  (71) 
-8.613968

>  <$/mg>  (71) 
nan

>  <comRMSD>  (71) 
0.805771

>  <N_rotatable_bonds>  (71) 
2

>  <hbond:SER:7>  (71) 
hbond:SER:7    0
hbond:SER:7    0
Name: 70, dtype: object

>  <halogenbond:SER:7>  (71) 
halogenbond:SER:7    0
halogenbond:SER:7    0
Name: 70, dtype: object

>  <hbond:GLY:8>  (71) 
hbond:GLY:8    0
hbond:GLY:8    0
Name: 70, dtype: object

>  <hydroph_interaction:ASN:19>  (71) 
hydroph_interaction:ASN:19    0
hydroph_interaction:ASN:19    0
Name: 70, dtype: object

>  <hbond:ASN:19>  (71) 
hbond:ASN:19    0
hbond:ASN:19    0
Name: 70, dtype: object

>  <halogenbond:ASN:19>  (71) 
halogenbond:ASN:19    0
halogenbond:ASN:19    0
Name: 70, dtype: object

>  <hbond:ARG:20>  (71) 
hbond:ARG:20    0
hbond:ARG:20    0
Name: 70, dtype: object

>  <hydroph_interaction:ARG:20>  (71) 
hydroph_interaction:ARG:20    0
hydroph_interaction:ARG:20    0
Name: 70, dtype: object

>  <saltbridge:ARG:20>  (71) 
saltbridge:ARG:20    0
saltbridge:ARG:20    0
Name: 70, dtype: object

>  <halogenbond:ARG:20>  (71) 
halogenbond:ARG:20    0
halogenbond:ARG:20    0
Name: 70, dtype: object

>  <pication:ARG:20>  (71) 
pication:ARG:20    0
pication:ARG:20    0
Name: 70, dtype: object

>  <hbond:HIS:21>  (71) 
hbond:HIS:21    0
hbond:HIS:21    0
Name: 70, dtype: object

>  <hydroph_interaction:HIS:21>  (71) 
hydroph_interaction:HIS:21    0
hydroph_interaction:HIS:21    0
Name: 70, dtype: object

>  <saltbridge:HIS:21>  (71) 
saltbridge:HIS:21    0
saltbridge:HIS:21    0
Name: 70, dtype: object

>  <pistack:HIS:21>  (71) 
pistack:HIS:21    0
pistack:HIS:21    0
Name: 70, dtype: object

>  <pication:HIS:21>  (71) 
pication:HIS:21    0
pication:HIS:21    0
Name: 70, dtype: object

>  <halogenbond:HIS:21>  (71) 
halogenbond:HIS:21    0
halogenbond:HIS:21    0
Name: 70, dtype: object

>  <hydroph_interaction:LEU:22>  (71) 
hydroph_interaction:LEU:22    0
hydroph_interaction:LEU:22    0
Name: 70, dtype: object

>  <hbond:LEU:22>  (71) 
hbond:LEU:22    0
hbond:LEU:22    0
Name: 70, dtype: object

>  <hydroph_interaction:TRP:28>  (71) 
hydroph_interaction:TRP:28    0
hydroph_interaction:TRP:28    0
Name: 70, dtype: object

>  <hbond:SER:36>  (71) 
hbond:SER:36    0
hbond:SER:36    0
Name: 70, dtype: object

>  <halogenbond:SER:36>  (71) 
halogenbond:SER:36    0
halogenbond:SER:36    0
Name: 70, dtype: object

>  <hbond:ARG:38>  (71) 
hbond:ARG:38    0
hbond:ARG:38    0
Name: 70, dtype: object

>  <halogenbond:ARG:38>  (71) 
halogenbond:ARG:38    0
halogenbond:ARG:38    0
Name: 70, dtype: object

>  <hbond:ASP:39>  (71) 
hbond:ASP:39    0
hbond:ASP:39    0
Name: 70, dtype: object

>  <saltbridge:ASP:39>  (71) 
saltbridge:ASP:39    0
saltbridge:ASP:39    0
Name: 70, dtype: object

>  <hydroph_interaction:ASP:39>  (71) 
hydroph_interaction:ASP:39    0
hydroph_interaction:ASP:39    0
Name: 70, dtype: object

>  <halogenbond:ASP:39>  (71) 
halogenbond:ASP:39    0
halogenbond:ASP:39    0
Name: 70, dtype: object

>  <hydroph_interaction:LEU:40>  (71) 
hydroph_interaction:LEU:40    0
hydroph_interaction:LEU:40    0
Name: 70, dtype: object

>  <hydroph_interaction:TYR:63>  (71) 
hydroph_interaction:TYR:63    0
hydroph_interaction:TYR:63    0
Name: 70, dtype: object

>  <pistack:TYR:63>  (71) 
pistack:TYR:63    0
pistack:TYR:63    0
Name: 70, dtype: object

>  <hbond:TYR:63>  (71) 
hbond:TYR:63    0
hbond:TYR:63    0
Name: 70, dtype: object

>  <hbond:TYR:64>  (71) 
hbond:TYR:64    0
hbond:TYR:64    0
Name: 70, dtype: object

>  <halogenbond:TYR:64>  (71) 
halogenbond:TYR:64    0
halogenbond:TYR:64    0
Name: 70, dtype: object

>  <hydroph_interaction:TYR:64>  (71) 
hydroph_interaction:TYR:64    0
hydroph_interaction:TYR:64    0
Name: 70, dtype: object

>  <hbond:CYS:65>  (71) 
hbond:CYS:65    0
hbond:CYS:65    0
Name: 70, dtype: object

>  <halogenbond:CYS:65>  (71) 
halogenbond:CYS:65    0
halogenbond:CYS:65    0
Name: 70, dtype: object

>  <hbond:SER:66>  (71) 
hbond:SER:66    0
hbond:SER:66    0
Name: 70, dtype: object

>  <hbond:SER:67>  (71) 
hbond:SER:67    0
hbond:SER:67    0
Name: 70, dtype: object

>  <halogenbond:SER:67>  (71) 
halogenbond:SER:67    0
halogenbond:SER:67    0
Name: 70, dtype: object

>  <hydroph_interaction:ARG:68>  (71) 
hydroph_interaction:ARG:68    0
hydroph_interaction:ARG:68    0
Name: 70, dtype: object

>  <hbond:ARG:68>  (71) 
hbond:ARG:68    0
hbond:ARG:68    0
Name: 70, dtype: object

>  <saltbridge:ARG:68>  (71) 
saltbridge:ARG:68    0
saltbridge:ARG:68    0
Name: 70, dtype: object

>  <pication:ARG:68>  (71) 
pication:ARG:68    0
pication:ARG:68    0
Name: 70, dtype: object

>  <hydroph_interaction:TYR:72>  (71) 
hydroph_interaction:TYR:72    0
hydroph_interaction:TYR:72    0
Name: 70, dtype: object

>  <hydroph_interaction:VAL:74>  (71) 
hydroph_interaction:VAL:74    0
hydroph_interaction:VAL:74    0
Name: 70, dtype: object

>  <hydroph_interaction:PHE:76>  (71) 
hydroph_interaction:PHE:76    0
hydroph_interaction:PHE:76    0
Name: 70, dtype: object

>  <hbond:SER:77>  (71) 
hbond:SER:77    0
hbond:SER:77    0
Name: 70, dtype: object

>  <hbond:SER:80>  (71) 
hbond:SER:80    0
hbond:SER:80    0
Name: 70, dtype: object

>  <hbond:LEU:81>  (71) 
hbond:LEU:81    0
hbond:LEU:81    0
Name: 70, dtype: object

>  <halogenbond:LEU:81>  (71) 
halogenbond:LEU:81    0
halogenbond:LEU:81    0
Name: 70, dtype: object

>  <hydroph_interaction:LEU:81>  (71) 
hydroph_interaction:LEU:81    0
hydroph_interaction:LEU:81    0
Name: 70, dtype: object

>  <hydroph_interaction:ILE:82>  (71) 
hydroph_interaction:ILE:82    0
hydroph_interaction:ILE:82    0
Name: 70, dtype: object

>  <hbond:ILE:82>  (71) 
hbond:ILE:82    0
hbond:ILE:82    0
Name: 70, dtype: object

>  <hydroph_interaction:PHE:83>  (71) 
hydroph_interaction:PHE:83    0
hydroph_interaction:PHE:83    0
Name: 70, dtype: object

>  <hbond:PHE:83>  (71) 
hbond:PHE:83    0
hbond:PHE:83    0
Name: 70, dtype: object

>  <halogenbond:PHE:83>  (71) 
halogenbond:PHE:83    0
halogenbond:PHE:83    0
Name: 70, dtype: object

>  <pistack:PHE:83>  (71) 
pistack:PHE:83    0
pistack:PHE:83    0
Name: 70, dtype: object

>  <hydroph_interaction:VAL:84>  (71) 
hydroph_interaction:VAL:84    0
hydroph_interaction:VAL:84    0
Name: 70, dtype: object

>  <hbond:VAL:84>  (71) 
hbond:VAL:84    0
hbond:VAL:84    0
Name: 70, dtype: object

>  <halogenbond:VAL:84>  (71) 
halogenbond:VAL:84    0
halogenbond:VAL:84    0
Name: 70, dtype: object

>  <hydroph_interaction:GLU:85>  (71) 
hydroph_interaction:GLU:85    0
hydroph_interaction:GLU:85    0
Name: 70, dtype: object

>  <hbond:GLU:85>  (71) 
hbond:GLU:85    0
hbond:GLU:85    0
Name: 70, dtype: object

>  <saltbridge:GLU:85>  (71) 
saltbridge:GLU:85    0
saltbridge:GLU:85    0
Name: 70, dtype: object

>  <halogenbond:GLU:85>  (71) 
halogenbond:GLU:85    0
halogenbond:GLU:85    0
Name: 70, dtype: object

>  <hbond:ALA:86>  (71) 
hbond:ALA:86    0
hbond:ALA:86    0
Name: 70, dtype: object

>  <halogenbond:ALA:86>  (71) 
halogenbond:ALA:86    0
halogenbond:ALA:86    0
Name: 70, dtype: object

>  <hydroph_interaction:ALA:86>  (71) 
hydroph_interaction:ALA:86    0
hydroph_interaction:ALA:86    0
Name: 70, dtype: object

>  <hbond:SER:87>  (71) 
hbond:SER:87    0
hbond:SER:87    0
Name: 70, dtype: object

>  <halogenbond:SER:87>  (71) 
halogenbond:SER:87    0
halogenbond:SER:87    0
Name: 70, dtype: object

>  <hbond:GLU:88>  (71) 
hbond:GLU:88    0
hbond:GLU:88    0
Name: 70, dtype: object

>  <hydroph_interaction:GLU:88>  (71) 
hydroph_interaction:GLU:88    0
hydroph_interaction:GLU:88    0
Name: 70, dtype: object

>  <halogenbond:GLU:88>  (71) 
halogenbond:GLU:88    0
halogenbond:GLU:88    0
Name: 70, dtype: object

>  <saltbridge:GLU:88>  (71) 
saltbridge:GLU:88    0
saltbridge:GLU:88    0
Name: 70, dtype: object

>  <hydroph_interaction:TYR:89>  (71) 
hydroph_interaction:TYR:89    0
hydroph_interaction:TYR:89    0
Name: 70, dtype: object

>  <pistack:TYR:89>  (71) 
pistack:TYR:89    0
pistack:TYR:89    0
Name: 70, dtype: object

>  <hbond:TYR:89>  (71) 
hbond:TYR:89    0
hbond:TYR:89    0
Name: 70, dtype: object

>  <halogenbond:TYR:89>  (71) 
halogenbond:TYR:89    0
halogenbond:TYR:89    0
Name: 70, dtype: object

>  <hbond:TYR:90>  (71) 
hbond:TYR:90    0
hbond:TYR:90    0
Name: 70, dtype: object

>  <hydroph_interaction:TYR:90>  (71) 
hydroph_interaction:TYR:90    0
hydroph_interaction:TYR:90    0
Name: 70, dtype: object

>  <pistack:TYR:90>  (71) 
pistack:TYR:90    0
pistack:TYR:90    0
Name: 70, dtype: object

>  <halogenbond:TYR:90>  (71) 
halogenbond:TYR:90    0
halogenbond:TYR:90    0
Name: 70, dtype: object

>  <pication:TYR:90>  (71) 
pication:TYR:90    0
pication:TYR:90    0
Name: 70, dtype: object

>  <hydroph_interaction:PRO:91>  (71) 
hydroph_interaction:PRO:91    0
hydroph_interaction:PRO:91    0
Name: 70, dtype: object

>  <halogenbond:PRO:91>  (71) 
halogenbond:PRO:91    0
halogenbond:PRO:91    0
Name: 70, dtype: object

>  <hbond:PRO:91>  (71) 
hbond:PRO:91    0
hbond:PRO:91    0
Name: 70, dtype: object

>  <hydroph_interaction:ALA:92>  (71) 
hydroph_interaction:ALA:92    0
hydroph_interaction:ALA:92    0
Name: 70, dtype: object

>  <hbond:ARG:93>  (71) 
hbond:ARG:93    0
hbond:ARG:93    0
Name: 70, dtype: object

>  <pication:ARG:93>  (71) 
pication:ARG:93    0
pication:ARG:93    0
Name: 70, dtype: object

>  <saltbridge:ARG:93>  (71) 
saltbridge:ARG:93    0
saltbridge:ARG:93    0
Name: 70, dtype: object

>  <hydroph_interaction:ARG:93>  (71) 
hydroph_interaction:ARG:93    0
hydroph_interaction:ARG:93    0
Name: 70, dtype: object

>  <halogenbond:ARG:93>  (71) 
halogenbond:ARG:93    0
halogenbond:ARG:93    0
Name: 70, dtype: object

>  <hydroph_interaction:TYR:94>  (71) 
hydroph_interaction:TYR:94    0
hydroph_interaction:TYR:94    0
Name: 70, dtype: object

>  <hbond:TYR:94>  (71) 
hbond:TYR:94    0
hbond:TYR:94    0
Name: 70, dtype: object

>  <halogenbond:GLN:95>  (71) 
halogenbond:GLN:95    0
halogenbond:GLN:95    0
Name: 70, dtype: object

>  <hbond:GLN:95>  (71) 
hbond:GLN:95    0
hbond:GLN:95    0
Name: 70, dtype: object

>  <hydroph_interaction:GLN:95>  (71) 
hydroph_interaction:GLN:95    0
hydroph_interaction:GLN:95    0
Name: 70, dtype: object

>  <hbond:SER:96>  (71) 
hbond:SER:96    0
hbond:SER:96    0
Name: 70, dtype: object

>  <hydroph_interaction:LEU:98>  (71) 
hydroph_interaction:LEU:98    0
hydroph_interaction:LEU:98    0
Name: 70, dtype: object

>  <hbond:LEU:98>  (71) 
hbond:LEU:98    0
hbond:LEU:98    0
Name: 70, dtype: object

>  <hbond:MET:99>  (71) 
hbond:MET:99    0
hbond:MET:99    0
Name: 70, dtype: object

>  <hydroph_interaction:MET:99>  (71) 
hydroph_interaction:MET:99    0
hydroph_interaction:MET:99    0
Name: 70, dtype: object

>  <halogenbond:MET:99>  (71) 
halogenbond:MET:99    0
halogenbond:MET:99    0
Name: 70, dtype: object

>  <hydroph_interaction:LEU:100>  (71) 
hydroph_interaction:LEU:100    0
hydroph_interaction:LEU:100    0
Name: 70, dtype: object

>  <hbond:LEU:100>  (71) 
hbond:LEU:100    0
hbond:LEU:100    0
Name: 70, dtype: object

>  <hbond:ALA:101>  (71) 
hbond:ALA:101    0
hbond:ALA:101    0
Name: 70, dtype: object

>  <hydroph_interaction:ALA:101>  (71) 
hydroph_interaction:ALA:101    0
hydroph_interaction:ALA:101    0
Name: 70, dtype: object

>  <hydroph_interaction:VAL:102>  (71) 
hydroph_interaction:VAL:102    0
hydroph_interaction:VAL:102    0
Name: 70, dtype: object

>  <hbond:VAL:102>  (71) 
hbond:VAL:102    0
hbond:VAL:102    0
Name: 70, dtype: object

>  <hbond:GLY:103>  (71) 
hbond:GLY:103    0
hbond:GLY:103    0
Name: 70, dtype: object

>  <halogenbond:GLY:103>  (71) 
halogenbond:GLY:103    0
halogenbond:GLY:103    0
Name: 70, dtype: object

>  <hydroph_interaction:HIS:104>  (71) 
hydroph_interaction:HIS:104    0
hydroph_interaction:HIS:104    0
Name: 70, dtype: object

>  <hbond:HIS:104>  (71) 
hbond:HIS:104    0
hbond:HIS:104    0
Name: 70, dtype: object

>  <saltbridge:HIS:104>  (71) 
saltbridge:HIS:104    0
saltbridge:HIS:104    0
Name: 70, dtype: object

>  <pication:HIS:104>  (71) 
pication:HIS:104    0
pication:HIS:104    0
Name: 70, dtype: object

>  <pistack:HIS:104>  (71) 
pistack:HIS:104    0
pistack:HIS:104    0
Name: 70, dtype: object

>  <halogenbond:HIS:104>  (71) 
halogenbond:HIS:104    0
halogenbond:HIS:104    0
Name: 70, dtype: object

>  <hbond:SER:105>  (71) 
hbond:SER:105    0
hbond:SER:105    0
Name: 70, dtype: object

>  <halogenbond:SER:105>  (71) 
halogenbond:SER:105    0
halogenbond:SER:105    0
Name: 70, dtype: object

>  <hbond:GLU:106>  (71) 
hbond:GLU:106    0
hbond:GLU:106    0
Name: 70, dtype: object

>  <hydroph_interaction:GLU:106>  (71) 
hydroph_interaction:GLU:106    0
hydroph_interaction:GLU:106    0
Name: 70, dtype: object

>  <saltbridge:GLU:106>  (71) 
saltbridge:GLU:106    0
saltbridge:GLU:106    0
Name: 70, dtype: object

>  <halogenbond:GLU:106>  (71) 
halogenbond:GLU:106    0
halogenbond:GLU:106    0
Name: 70, dtype: object

>  <hydroph_interaction:PRO:107>  (71) 
hydroph_interaction:PRO:107    0
hydroph_interaction:PRO:107    0
Name: 70, dtype: object

>  <hbond:PRO:107>  (71) 
hbond:PRO:107    0
hbond:PRO:107    0
Name: 70, dtype: object

>  <halogenbond:PRO:107>  (71) 
halogenbond:PRO:107    0
halogenbond:PRO:107    0
Name: 70, dtype: object

>  <hbond:GLY:108>  (71) 
hbond:GLY:108    0
hbond:GLY:108    0
Name: 70, dtype: object

>  <halogenbond:GLY:108>  (71) 
halogenbond:GLY:108    0
halogenbond:GLY:108    0
Name: 70, dtype: object

>  <hbond:ASP:109>  (71) 
hbond:ASP:109    0
hbond:ASP:109    0
Name: 70, dtype: object

>  <hydroph_interaction:ASP:109>  (71) 
hydroph_interaction:ASP:109    0
hydroph_interaction:ASP:109    0
Name: 70, dtype: object

>  <saltbridge:ASP:109>  (71) 
saltbridge:ASP:109    0
saltbridge:ASP:109    0
Name: 70, dtype: object

>  <hbond:CYS:110>  (71) 
hbond:CYS:110    0
hbond:CYS:110    0
Name: 70, dtype: object

>  <halogenbond:CYS:110>  (71) 
halogenbond:CYS:110    0
halogenbond:CYS:110    0
Name: 70, dtype: object

>  <hbond:GLY:111>  (71) 
hbond:GLY:111    0
hbond:GLY:111    0
Name: 70, dtype: object

>  <hbond:GLY:112>  (71) 
hbond:GLY:112    0
hbond:GLY:112    0
Name: 70, dtype: object

>  <hbond:ILE:113>  (71) 
hbond:ILE:113    0
hbond:ILE:113    0
Name: 70, dtype: object

>  <hydroph_interaction:LEU:114>  (71) 
hydroph_interaction:LEU:114    0
hydroph_interaction:LEU:114    0
Name: 70, dtype: object

>  <hbond:LEU:114>  (71) 
hbond:LEU:114    0
hbond:LEU:114    0
Name: 70, dtype: object

>  <hydroph_interaction:ILE:123>  (71) 
hydroph_interaction:ILE:123    0
hydroph_interaction:ILE:123    0
Name: 70, dtype: object

>  <hbond:ILE:123>  (71) 
hbond:ILE:123    0
hbond:ILE:123    0
Name: 70, dtype: object

>  <hydroph_interaction:VAL:124>  (71) 
hydroph_interaction:VAL:124    0
hydroph_interaction:VAL:124    0
Name: 70, dtype: object

>  <hbond:VAL:124>  (71) 
hbond:VAL:124    0
hbond:VAL:124    0
Name: 70, dtype: object

>  <halogenbond:VAL:124>  (71) 
halogenbond:VAL:124    0
halogenbond:VAL:124    0
Name: 70, dtype: object

>  <hbond:SER:125>  (71) 
hbond:SER:125    1
hbond:SER:125    1
Name: 70, dtype: object

>  <halogenbond:SER:125>  (71) 
halogenbond:SER:125    0
halogenbond:SER:125    0
Name: 70, dtype: object

>  <hydroph_interaction:THR:126>  (71) 
hydroph_interaction:THR:126    0
hydroph_interaction:THR:126    0
Name: 70, dtype: object

>  <hbond:THR:126>  (71) 
hbond:THR:126    0
hbond:THR:126    0
Name: 70, dtype: object

>  <halogenbond:THR:126>  (71) 
halogenbond:THR:126    0
halogenbond:THR:126    0
Name: 70, dtype: object

>  <hbond:GLY:127>  (71) 
hbond:GLY:127    0
hbond:GLY:127    0
Name: 70, dtype: object

>  <halogenbond:GLY:127>  (71) 
halogenbond:GLY:127    0
halogenbond:GLY:127    0
Name: 70, dtype: object

>  <hydroph_interaction:GLY:127>  (71) 
hydroph_interaction:GLY:127    0
hydroph_interaction:GLY:127    0
Name: 70, dtype: object

>  <hbond:GLY:128>  (71) 
hbond:GLY:128    0
hbond:GLY:128    0
Name: 70, dtype: object

>  <halogenbond:GLY:128>  (71) 
halogenbond:GLY:128    0
halogenbond:GLY:128    0
Name: 70, dtype: object

>  <hydroph_interaction:GLY:128>  (71) 
hydroph_interaction:GLY:128    0
hydroph_interaction:GLY:128    0
Name: 70, dtype: object

>  <hbond:ASN:129>  (71) 
hbond:ASN:129    0
hbond:ASN:129    0
Name: 70, dtype: object

>  <hydroph_interaction:ASN:129>  (71) 
hydroph_interaction:ASN:129    0
hydroph_interaction:ASN:129    0
Name: 70, dtype: object

>  <halogenbond:ASN:129>  (71) 
halogenbond:ASN:129    0
halogenbond:ASN:129    0
Name: 70, dtype: object

>  <hbond:GLY:130>  (71) 
hbond:GLY:130    0
hbond:GLY:130    0
Name: 70, dtype: object

>  <hydroph_interaction:LEU:131>  (71) 
hydroph_interaction:LEU:131    0
hydroph_interaction:LEU:131    0
Name: 70, dtype: object

>  <hbond:LEU:131>  (71) 
hbond:LEU:131    0
hbond:LEU:131    0
Name: 70, dtype: object

>  <halogenbond:LEU:131>  (71) 
halogenbond:LEU:131    0
halogenbond:LEU:131    0
Name: 70, dtype: object

>  <hydroph_interaction:VAL:132>  (71) 
hydroph_interaction:VAL:132    0
hydroph_interaction:VAL:132    0
Name: 70, dtype: object

>  <hbond:VAL:132>  (71) 
hbond:VAL:132    0
hbond:VAL:132    0
Name: 70, dtype: object

>  <hbond:GLY:133>  (71) 
hbond:GLY:133    0
hbond:GLY:133    0
Name: 70, dtype: object

>  <halogenbond:GLY:133>  (71) 
halogenbond:GLY:133    0
halogenbond:GLY:133    0
Name: 70, dtype: object

>  <hydroph_interaction:PHE:134>  (71) 
hydroph_interaction:PHE:134    0
hydroph_interaction:PHE:134    0
Name: 70, dtype: object

>  <hbond:PHE:134>  (71) 
hbond:PHE:134    0
hbond:PHE:134    0
Name: 70, dtype: object

>  <pistack:PHE:134>  (71) 
pistack:PHE:134    0
pistack:PHE:134    0
Name: 70, dtype: object

>  <pication:PHE:134>  (71) 
pication:PHE:134    0
pication:PHE:134    0
Name: 70, dtype: object

>  <hydroph_interaction:ALA:135>  (71) 
hydroph_interaction:ALA:135    0
hydroph_interaction:ALA:135    0
Name: 70, dtype: object

>  <hbond:ALA:135>  (71) 
hbond:ALA:135    0
hbond:ALA:135    0
Name: 70, dtype: object

$$$$
PV_002944459424
     RDKit          3D

 25 26  0  0  0  0  0  0  0  0999 V2000
   12.3530   15.2100   21.8500 C   0  0  0  0  0  0  0  0  0  0  0  0
   11.6030   14.2370   22.7490 C   0  0  0  0  0  0  0  0  0  0  0  0
   12.0280   14.2190   24.2040 C   0  0  0  0  0  0  0  0  0  0  0  0
   10.4660   13.2620   22.3810 C   0  0  0  0  0  0  0  0  0  0  0  0
    9.6770   12.2600   23.1920 C   0  0  0  0  0  0  0  0  0  0  0  0
    9.8470   10.8740   23.0540 C   0  0  0  0  0  0  0  0  0  0  0  0
    9.1860    9.8810   23.7310 N   0  0  0  0  0  0  0  0  0  0  0  0
    8.2730   10.3100   24.6300 C   0  0  0  0  0  0  0  0  0  0  0  0
    8.0470   11.6540   24.8270 C   0  0  0  0  0  0  0  0  0  0  0  0
    8.7320   12.6130   24.1210 C   0  0  0  0  0  0  0  0  0  0  0  0
    8.2960   13.8500   24.5240 N   0  0  0  0  0  0  0  0  0  0  0  0
    7.4630   13.7360   25.6100 C   0  0  0  0  0  0  0  0  0  0  0  0
    7.0660   14.6230   26.3590 O   0  0  0  0  0  0  0  0  0  0  0  0
    7.1770   12.3710   25.6840 N   0  0  0  0  0  0  0  0  0  0  0  0
   12.5610   14.7590   20.8720 H   0  0  0  0  0  0  0  0  0  0  0  0
   11.7580   16.1140   21.6860 H   0  0  0  0  0  0  0  0  0  0  0  0
   13.3060   15.5150   22.2940 H   0  0  0  0  0  0  0  0  0  0  0  0
   12.8640   13.5260   24.3330 H   0  0  0  0  0  0  0  0  0  0  0  0
   12.3270   15.2330   24.4970 H   0  0  0  0  0  0  0  0  0  0  0  0
   11.1880   13.9080   24.8320 H   0  0  0  0  0  0  0  0  0  0  0  0
   10.1980   13.3340   21.3310 H   0  0  0  0  0  0  0  0  0  0  0  0
   10.5950   10.5780   22.3150 H   0  0  0  0  0  0  0  0  0  0  0  0
    7.7420    9.5520   25.1720 H   0  0  0  0  0  0  0  0  0  0  0  0
    8.2930   14.6910   23.9250 H   0  0  0  0  0  0  0  0  0  0  0  0
    6.3790   12.0060   26.1780 H   0  0  0  0  0  0  0  0  0  0  0  0
  1  2  1  0
  2  3  1  0
  2  4  2  3
  4  5  1  0
  5  6  2  0
  6  7  1  0
  7  8  2  0
  8  9  1  0
  9 10  2  0
 10 11  1  0
 11 12  1  0
 12 13  2  0
 12 14  1  0
 10  5  1  0
 14  9  1  0
  1 15  1  0
  1 16  1  0
  1 17  1  0
  3 18  1  0
  3 19  1  0
  3 20  1  0
  4 21  1  0
  6 22  1  0
  8 23  1  0
 11 24  1  0
 14 25  1  0
A    1
 C1 
A    2
 C2 
A    3
 C3 
A    4
 C4 
A    5
 C5 
A    6
 C6 
A    7
 N1 
A    8
 C7 
A    9
 C8 
A   10
 C9 
A   11
 N2 
A   12
 C10
A   13
 O1 
A   14
 N3 
A   15
 H1 
A   16
 H2 
A   17
 H3 
A   18
 H4 
A   19
 H5 
A   20
 H6 
A   21
 H7 
A   22
 H8 
A   23
 H9 
A   24
 H10
A   25
 H11
M  END
>  <ref_pdb>  (72) 
x0310_0A

>  <ref_mols>  (72) 
x0554_0A,x0416_0A,x0446_0A

>  <original SMILES>  (72) 
CC(C)=Cc1cncc2[nH]c(=O)[nH]c12

>  <rationale>  (72) 
info hbond:S87; hydroph_interaction:P107; 

>  <intxn_cluster>  (72) 
208

>  <intxn_cluster_rank>  (72) 
390

>  <N_interactions>  (72) 
2

>  <∆∆G>  (72) 
-8.743459

>  <$/mg>  (72) 
nan

>  <comRMSD>  (72) 
0.798782

>  <N_rotatable_bonds>  (72) 
3

>  <hbond:SER:7>  (72) 
hbond:SER:7    0
hbond:SER:7    0
Name: 71, dtype: object

>  <halogenbond:SER:7>  (72) 
halogenbond:SER:7    0
halogenbond:SER:7    0
Name: 71, dtype: object

>  <hbond:GLY:8>  (72) 
hbond:GLY:8    0
hbond:GLY:8    0
Name: 71, dtype: object

>  <hydroph_interaction:ASN:19>  (72) 
hydroph_interaction:ASN:19    0
hydroph_interaction:ASN:19    0
Name: 71, dtype: object

>  <hbond:ASN:19>  (72) 
hbond:ASN:19    0
hbond:ASN:19    0
Name: 71, dtype: object

>  <halogenbond:ASN:19>  (72) 
halogenbond:ASN:19    0
halogenbond:ASN:19    0
Name: 71, dtype: object

>  <hbond:ARG:20>  (72) 
hbond:ARG:20    0
hbond:ARG:20    0
Name: 71, dtype: object

>  <hydroph_interaction:ARG:20>  (72) 
hydroph_interaction:ARG:20    0
hydroph_interaction:ARG:20    0
Name: 71, dtype: object

>  <saltbridge:ARG:20>  (72) 
saltbridge:ARG:20    0
saltbridge:ARG:20    0
Name: 71, dtype: object

>  <halogenbond:ARG:20>  (72) 
halogenbond:ARG:20    0
halogenbond:ARG:20    0
Name: 71, dtype: object

>  <pication:ARG:20>  (72) 
pication:ARG:20    0
pication:ARG:20    0
Name: 71, dtype: object

>  <hbond:HIS:21>  (72) 
hbond:HIS:21    0
hbond:HIS:21    0
Name: 71, dtype: object

>  <hydroph_interaction:HIS:21>  (72) 
hydroph_interaction:HIS:21    0
hydroph_interaction:HIS:21    0
Name: 71, dtype: object

>  <saltbridge:HIS:21>  (72) 
saltbridge:HIS:21    0
saltbridge:HIS:21    0
Name: 71, dtype: object

>  <pistack:HIS:21>  (72) 
pistack:HIS:21    0
pistack:HIS:21    0
Name: 71, dtype: object

>  <pication:HIS:21>  (72) 
pication:HIS:21    0
pication:HIS:21    0
Name: 71, dtype: object

>  <halogenbond:HIS:21>  (72) 
halogenbond:HIS:21    0
halogenbond:HIS:21    0
Name: 71, dtype: object

>  <hydroph_interaction:LEU:22>  (72) 
hydroph_interaction:LEU:22    0
hydroph_interaction:LEU:22    0
Name: 71, dtype: object

>  <hbond:LEU:22>  (72) 
hbond:LEU:22    0
hbond:LEU:22    0
Name: 71, dtype: object

>  <hydroph_interaction:TRP:28>  (72) 
hydroph_interaction:TRP:28    0
hydroph_interaction:TRP:28    0
Name: 71, dtype: object

>  <hbond:SER:36>  (72) 
hbond:SER:36    0
hbond:SER:36    0
Name: 71, dtype: object

>  <halogenbond:SER:36>  (72) 
halogenbond:SER:36    0
halogenbond:SER:36    0
Name: 71, dtype: object

>  <hbond:ARG:38>  (72) 
hbond:ARG:38    0
hbond:ARG:38    0
Name: 71, dtype: object

>  <halogenbond:ARG:38>  (72) 
halogenbond:ARG:38    0
halogenbond:ARG:38    0
Name: 71, dtype: object

>  <hbond:ASP:39>  (72) 
hbond:ASP:39    0
hbond:ASP:39    0
Name: 71, dtype: object

>  <saltbridge:ASP:39>  (72) 
saltbridge:ASP:39    0
saltbridge:ASP:39    0
Name: 71, dtype: object

>  <hydroph_interaction:ASP:39>  (72) 
hydroph_interaction:ASP:39    0
hydroph_interaction:ASP:39    0
Name: 71, dtype: object

>  <halogenbond:ASP:39>  (72) 
halogenbond:ASP:39    0
halogenbond:ASP:39    0
Name: 71, dtype: object

>  <hydroph_interaction:LEU:40>  (72) 
hydroph_interaction:LEU:40    0
hydroph_interaction:LEU:40    0
Name: 71, dtype: object

>  <hydroph_interaction:TYR:63>  (72) 
hydroph_interaction:TYR:63    0
hydroph_interaction:TYR:63    0
Name: 71, dtype: object

>  <pistack:TYR:63>  (72) 
pistack:TYR:63    0
pistack:TYR:63    0
Name: 71, dtype: object

>  <hbond:TYR:63>  (72) 
hbond:TYR:63    0
hbond:TYR:63    0
Name: 71, dtype: object

>  <hbond:TYR:64>  (72) 
hbond:TYR:64    0
hbond:TYR:64    0
Name: 71, dtype: object

>  <halogenbond:TYR:64>  (72) 
halogenbond:TYR:64    0
halogenbond:TYR:64    0
Name: 71, dtype: object

>  <hydroph_interaction:TYR:64>  (72) 
hydroph_interaction:TYR:64    0
hydroph_interaction:TYR:64    0
Name: 71, dtype: object

>  <hbond:CYS:65>  (72) 
hbond:CYS:65    0
hbond:CYS:65    0
Name: 71, dtype: object

>  <halogenbond:CYS:65>  (72) 
halogenbond:CYS:65    0
halogenbond:CYS:65    0
Name: 71, dtype: object

>  <hbond:SER:66>  (72) 
hbond:SER:66    0
hbond:SER:66    0
Name: 71, dtype: object

>  <hbond:SER:67>  (72) 
hbond:SER:67    0
hbond:SER:67    0
Name: 71, dtype: object

>  <halogenbond:SER:67>  (72) 
halogenbond:SER:67    0
halogenbond:SER:67    0
Name: 71, dtype: object

>  <hydroph_interaction:ARG:68>  (72) 
hydroph_interaction:ARG:68    0
hydroph_interaction:ARG:68    0
Name: 71, dtype: object

>  <hbond:ARG:68>  (72) 
hbond:ARG:68    0
hbond:ARG:68    0
Name: 71, dtype: object

>  <saltbridge:ARG:68>  (72) 
saltbridge:ARG:68    0
saltbridge:ARG:68    0
Name: 71, dtype: object

>  <pication:ARG:68>  (72) 
pication:ARG:68    0
pication:ARG:68    0
Name: 71, dtype: object

>  <hydroph_interaction:TYR:72>  (72) 
hydroph_interaction:TYR:72    0
hydroph_interaction:TYR:72    0
Name: 71, dtype: object

>  <hydroph_interaction:VAL:74>  (72) 
hydroph_interaction:VAL:74    0
hydroph_interaction:VAL:74    0
Name: 71, dtype: object

>  <hydroph_interaction:PHE:76>  (72) 
hydroph_interaction:PHE:76    0
hydroph_interaction:PHE:76    0
Name: 71, dtype: object

>  <hbond:SER:77>  (72) 
hbond:SER:77    0
hbond:SER:77    0
Name: 71, dtype: object

>  <hbond:SER:80>  (72) 
hbond:SER:80    0
hbond:SER:80    0
Name: 71, dtype: object

>  <hbond:LEU:81>  (72) 
hbond:LEU:81    0
hbond:LEU:81    0
Name: 71, dtype: object

>  <halogenbond:LEU:81>  (72) 
halogenbond:LEU:81    0
halogenbond:LEU:81    0
Name: 71, dtype: object

>  <hydroph_interaction:LEU:81>  (72) 
hydroph_interaction:LEU:81    0
hydroph_interaction:LEU:81    0
Name: 71, dtype: object

>  <hydroph_interaction:ILE:82>  (72) 
hydroph_interaction:ILE:82    0
hydroph_interaction:ILE:82    0
Name: 71, dtype: object

>  <hbond:ILE:82>  (72) 
hbond:ILE:82    0
hbond:ILE:82    0
Name: 71, dtype: object

>  <hydroph_interaction:PHE:83>  (72) 
hydroph_interaction:PHE:83    0
hydroph_interaction:PHE:83    0
Name: 71, dtype: object

>  <hbond:PHE:83>  (72) 
hbond:PHE:83    0
hbond:PHE:83    0
Name: 71, dtype: object

>  <halogenbond:PHE:83>  (72) 
halogenbond:PHE:83    0
halogenbond:PHE:83    0
Name: 71, dtype: object

>  <pistack:PHE:83>  (72) 
pistack:PHE:83    0
pistack:PHE:83    0
Name: 71, dtype: object

>  <hydroph_interaction:VAL:84>  (72) 
hydroph_interaction:VAL:84    0
hydroph_interaction:VAL:84    0
Name: 71, dtype: object

>  <hbond:VAL:84>  (72) 
hbond:VAL:84    0
hbond:VAL:84    0
Name: 71, dtype: object

>  <halogenbond:VAL:84>  (72) 
halogenbond:VAL:84    0
halogenbond:VAL:84    0
Name: 71, dtype: object

>  <hydroph_interaction:GLU:85>  (72) 
hydroph_interaction:GLU:85    0
hydroph_interaction:GLU:85    0
Name: 71, dtype: object

>  <hbond:GLU:85>  (72) 
hbond:GLU:85    0
hbond:GLU:85    0
Name: 71, dtype: object

>  <saltbridge:GLU:85>  (72) 
saltbridge:GLU:85    0
saltbridge:GLU:85    0
Name: 71, dtype: object

>  <halogenbond:GLU:85>  (72) 
halogenbond:GLU:85    0
halogenbond:GLU:85    0
Name: 71, dtype: object

>  <hbond:ALA:86>  (72) 
hbond:ALA:86    0
hbond:ALA:86    0
Name: 71, dtype: object

>  <halogenbond:ALA:86>  (72) 
halogenbond:ALA:86    0
halogenbond:ALA:86    0
Name: 71, dtype: object

>  <hydroph_interaction:ALA:86>  (72) 
hydroph_interaction:ALA:86    0
hydroph_interaction:ALA:86    0
Name: 71, dtype: object

>  <hbond:SER:87>  (72) 
hbond:SER:87    1
hbond:SER:87    1
Name: 71, dtype: object

>  <halogenbond:SER:87>  (72) 
halogenbond:SER:87    0
halogenbond:SER:87    0
Name: 71, dtype: object

>  <hbond:GLU:88>  (72) 
hbond:GLU:88    0
hbond:GLU:88    0
Name: 71, dtype: object

>  <hydroph_interaction:GLU:88>  (72) 
hydroph_interaction:GLU:88    0
hydroph_interaction:GLU:88    0
Name: 71, dtype: object

>  <halogenbond:GLU:88>  (72) 
halogenbond:GLU:88    0
halogenbond:GLU:88    0
Name: 71, dtype: object

>  <saltbridge:GLU:88>  (72) 
saltbridge:GLU:88    0
saltbridge:GLU:88    0
Name: 71, dtype: object

>  <hydroph_interaction:TYR:89>  (72) 
hydroph_interaction:TYR:89    0
hydroph_interaction:TYR:89    0
Name: 71, dtype: object

>  <pistack:TYR:89>  (72) 
pistack:TYR:89    0
pistack:TYR:89    0
Name: 71, dtype: object

>  <hbond:TYR:89>  (72) 
hbond:TYR:89    0
hbond:TYR:89    0
Name: 71, dtype: object

>  <halogenbond:TYR:89>  (72) 
halogenbond:TYR:89    0
halogenbond:TYR:89    0
Name: 71, dtype: object

>  <hbond:TYR:90>  (72) 
hbond:TYR:90    0
hbond:TYR:90    0
Name: 71, dtype: object

>  <hydroph_interaction:TYR:90>  (72) 
hydroph_interaction:TYR:90    0
hydroph_interaction:TYR:90    0
Name: 71, dtype: object

>  <pistack:TYR:90>  (72) 
pistack:TYR:90    0
pistack:TYR:90    0
Name: 71, dtype: object

>  <halogenbond:TYR:90>  (72) 
halogenbond:TYR:90    0
halogenbond:TYR:90    0
Name: 71, dtype: object

>  <pication:TYR:90>  (72) 
pication:TYR:90    0
pication:TYR:90    0
Name: 71, dtype: object

>  <hydroph_interaction:PRO:91>  (72) 
hydroph_interaction:PRO:91    0
hydroph_interaction:PRO:91    0
Name: 71, dtype: object

>  <halogenbond:PRO:91>  (72) 
halogenbond:PRO:91    0
halogenbond:PRO:91    0
Name: 71, dtype: object

>  <hbond:PRO:91>  (72) 
hbond:PRO:91    0
hbond:PRO:91    0
Name: 71, dtype: object

>  <hydroph_interaction:ALA:92>  (72) 
hydroph_interaction:ALA:92    0
hydroph_interaction:ALA:92    0
Name: 71, dtype: object

>  <hbond:ARG:93>  (72) 
hbond:ARG:93    0
hbond:ARG:93    0
Name: 71, dtype: object

>  <pication:ARG:93>  (72) 
pication:ARG:93    0
pication:ARG:93    0
Name: 71, dtype: object

>  <saltbridge:ARG:93>  (72) 
saltbridge:ARG:93    0
saltbridge:ARG:93    0
Name: 71, dtype: object

>  <hydroph_interaction:ARG:93>  (72) 
hydroph_interaction:ARG:93    0
hydroph_interaction:ARG:93    0
Name: 71, dtype: object

>  <halogenbond:ARG:93>  (72) 
halogenbond:ARG:93    0
halogenbond:ARG:93    0
Name: 71, dtype: object

>  <hydroph_interaction:TYR:94>  (72) 
hydroph_interaction:TYR:94    0
hydroph_interaction:TYR:94    0
Name: 71, dtype: object

>  <hbond:TYR:94>  (72) 
hbond:TYR:94    0
hbond:TYR:94    0
Name: 71, dtype: object

>  <halogenbond:GLN:95>  (72) 
halogenbond:GLN:95    0
halogenbond:GLN:95    0
Name: 71, dtype: object

>  <hbond:GLN:95>  (72) 
hbond:GLN:95    0
hbond:GLN:95    0
Name: 71, dtype: object

>  <hydroph_interaction:GLN:95>  (72) 
hydroph_interaction:GLN:95    0
hydroph_interaction:GLN:95    0
Name: 71, dtype: object

>  <hbond:SER:96>  (72) 
hbond:SER:96    0
hbond:SER:96    0
Name: 71, dtype: object

>  <hydroph_interaction:LEU:98>  (72) 
hydroph_interaction:LEU:98    0
hydroph_interaction:LEU:98    0
Name: 71, dtype: object

>  <hbond:LEU:98>  (72) 
hbond:LEU:98    0
hbond:LEU:98    0
Name: 71, dtype: object

>  <hbond:MET:99>  (72) 
hbond:MET:99    0
hbond:MET:99    0
Name: 71, dtype: object

>  <hydroph_interaction:MET:99>  (72) 
hydroph_interaction:MET:99    0
hydroph_interaction:MET:99    0
Name: 71, dtype: object

>  <halogenbond:MET:99>  (72) 
halogenbond:MET:99    0
halogenbond:MET:99    0
Name: 71, dtype: object

>  <hydroph_interaction:LEU:100>  (72) 
hydroph_interaction:LEU:100    0
hydroph_interaction:LEU:100    0
Name: 71, dtype: object

>  <hbond:LEU:100>  (72) 
hbond:LEU:100    0
hbond:LEU:100    0
Name: 71, dtype: object

>  <hbond:ALA:101>  (72) 
hbond:ALA:101    0
hbond:ALA:101    0
Name: 71, dtype: object

>  <hydroph_interaction:ALA:101>  (72) 
hydroph_interaction:ALA:101    0
hydroph_interaction:ALA:101    0
Name: 71, dtype: object

>  <hydroph_interaction:VAL:102>  (72) 
hydroph_interaction:VAL:102    0
hydroph_interaction:VAL:102    0
Name: 71, dtype: object

>  <hbond:VAL:102>  (72) 
hbond:VAL:102    0
hbond:VAL:102    0
Name: 71, dtype: object

>  <hbond:GLY:103>  (72) 
hbond:GLY:103    0
hbond:GLY:103    0
Name: 71, dtype: object

>  <halogenbond:GLY:103>  (72) 
halogenbond:GLY:103    0
halogenbond:GLY:103    0
Name: 71, dtype: object

>  <hydroph_interaction:HIS:104>  (72) 
hydroph_interaction:HIS:104    0
hydroph_interaction:HIS:104    0
Name: 71, dtype: object

>  <hbond:HIS:104>  (72) 
hbond:HIS:104    0
hbond:HIS:104    0
Name: 71, dtype: object

>  <saltbridge:HIS:104>  (72) 
saltbridge:HIS:104    0
saltbridge:HIS:104    0
Name: 71, dtype: object

>  <pication:HIS:104>  (72) 
pication:HIS:104    0
pication:HIS:104    0
Name: 71, dtype: object

>  <pistack:HIS:104>  (72) 
pistack:HIS:104    0
pistack:HIS:104    0
Name: 71, dtype: object

>  <halogenbond:HIS:104>  (72) 
halogenbond:HIS:104    0
halogenbond:HIS:104    0
Name: 71, dtype: object

>  <hbond:SER:105>  (72) 
hbond:SER:105    0
hbond:SER:105    0
Name: 71, dtype: object

>  <halogenbond:SER:105>  (72) 
halogenbond:SER:105    0
halogenbond:SER:105    0
Name: 71, dtype: object

>  <hbond:GLU:106>  (72) 
hbond:GLU:106    0
hbond:GLU:106    0
Name: 71, dtype: object

>  <hydroph_interaction:GLU:106>  (72) 
hydroph_interaction:GLU:106    0
hydroph_interaction:GLU:106    0
Name: 71, dtype: object

>  <saltbridge:GLU:106>  (72) 
saltbridge:GLU:106    0
saltbridge:GLU:106    0
Name: 71, dtype: object

>  <halogenbond:GLU:106>  (72) 
halogenbond:GLU:106    0
halogenbond:GLU:106    0
Name: 71, dtype: object

>  <hydroph_interaction:PRO:107>  (72) 
hydroph_interaction:PRO:107    1
hydroph_interaction:PRO:107    1
Name: 71, dtype: object

>  <hbond:PRO:107>  (72) 
hbond:PRO:107    0
hbond:PRO:107    0
Name: 71, dtype: object

>  <halogenbond:PRO:107>  (72) 
halogenbond:PRO:107    0
halogenbond:PRO:107    0
Name: 71, dtype: object

>  <hbond:GLY:108>  (72) 
hbond:GLY:108    0
hbond:GLY:108    0
Name: 71, dtype: object

>  <halogenbond:GLY:108>  (72) 
halogenbond:GLY:108    0
halogenbond:GLY:108    0
Name: 71, dtype: object

>  <hbond:ASP:109>  (72) 
hbond:ASP:109    0
hbond:ASP:109    0
Name: 71, dtype: object

>  <hydroph_interaction:ASP:109>  (72) 
hydroph_interaction:ASP:109    0
hydroph_interaction:ASP:109    0
Name: 71, dtype: object

>  <saltbridge:ASP:109>  (72) 
saltbridge:ASP:109    0
saltbridge:ASP:109    0
Name: 71, dtype: object

>  <hbond:CYS:110>  (72) 
hbond:CYS:110    0
hbond:CYS:110    0
Name: 71, dtype: object

>  <halogenbond:CYS:110>  (72) 
halogenbond:CYS:110    0
halogenbond:CYS:110    0
Name: 71, dtype: object

>  <hbond:GLY:111>  (72) 
hbond:GLY:111    0
hbond:GLY:111    0
Name: 71, dtype: object

>  <hbond:GLY:112>  (72) 
hbond:GLY:112    0
hbond:GLY:112    0
Name: 71, dtype: object

>  <hbond:ILE:113>  (72) 
hbond:ILE:113    0
hbond:ILE:113    0
Name: 71, dtype: object

>  <hydroph_interaction:LEU:114>  (72) 
hydroph_interaction:LEU:114    0
hydroph_interaction:LEU:114    0
Name: 71, dtype: object

>  <hbond:LEU:114>  (72) 
hbond:LEU:114    0
hbond:LEU:114    0
Name: 71, dtype: object

>  <hydroph_interaction:ILE:123>  (72) 
hydroph_interaction:ILE:123    0
hydroph_interaction:ILE:123    0
Name: 71, dtype: object

>  <hbond:ILE:123>  (72) 
hbond:ILE:123    0
hbond:ILE:123    0
Name: 71, dtype: object

>  <hydroph_interaction:VAL:124>  (72) 
hydroph_interaction:VAL:124    0
hydroph_interaction:VAL:124    0
Name: 71, dtype: object

>  <hbond:VAL:124>  (72) 
hbond:VAL:124    0
hbond:VAL:124    0
Name: 71, dtype: object

>  <halogenbond:VAL:124>  (72) 
halogenbond:VAL:124    0
halogenbond:VAL:124    0
Name: 71, dtype: object

>  <hbond:SER:125>  (72) 
hbond:SER:125    0
hbond:SER:125    0
Name: 71, dtype: object

>  <halogenbond:SER:125>  (72) 
halogenbond:SER:125    0
halogenbond:SER:125    0
Name: 71, dtype: object

>  <hydroph_interaction:THR:126>  (72) 
hydroph_interaction:THR:126    0
hydroph_interaction:THR:126    0
Name: 71, dtype: object

>  <hbond:THR:126>  (72) 
hbond:THR:126    0
hbond:THR:126    0
Name: 71, dtype: object

>  <halogenbond:THR:126>  (72) 
halogenbond:THR:126    0
halogenbond:THR:126    0
Name: 71, dtype: object

>  <hbond:GLY:127>  (72) 
hbond:GLY:127    0
hbond:GLY:127    0
Name: 71, dtype: object

>  <halogenbond:GLY:127>  (72) 
halogenbond:GLY:127    0
halogenbond:GLY:127    0
Name: 71, dtype: object

>  <hydroph_interaction:GLY:127>  (72) 
hydroph_interaction:GLY:127    0
hydroph_interaction:GLY:127    0
Name: 71, dtype: object

>  <hbond:GLY:128>  (72) 
hbond:GLY:128    0
hbond:GLY:128    0
Name: 71, dtype: object

>  <halogenbond:GLY:128>  (72) 
halogenbond:GLY:128    0
halogenbond:GLY:128    0
Name: 71, dtype: object

>  <hydroph_interaction:GLY:128>  (72) 
hydroph_interaction:GLY:128    0
hydroph_interaction:GLY:128    0
Name: 71, dtype: object

>  <hbond:ASN:129>  (72) 
hbond:ASN:129    0
hbond:ASN:129    0
Name: 71, dtype: object

>  <hydroph_interaction:ASN:129>  (72) 
hydroph_interaction:ASN:129    0
hydroph_interaction:ASN:129    0
Name: 71, dtype: object

>  <halogenbond:ASN:129>  (72) 
halogenbond:ASN:129    0
halogenbond:ASN:129    0
Name: 71, dtype: object

>  <hbond:GLY:130>  (72) 
hbond:GLY:130    0
hbond:GLY:130    0
Name: 71, dtype: object

>  <hydroph_interaction:LEU:131>  (72) 
hydroph_interaction:LEU:131    0
hydroph_interaction:LEU:131    0
Name: 71, dtype: object

>  <hbond:LEU:131>  (72) 
hbond:LEU:131    0
hbond:LEU:131    0
Name: 71, dtype: object

>  <halogenbond:LEU:131>  (72) 
halogenbond:LEU:131    0
halogenbond:LEU:131    0
Name: 71, dtype: object

>  <hydroph_interaction:VAL:132>  (72) 
hydroph_interaction:VAL:132    0
hydroph_interaction:VAL:132    0
Name: 71, dtype: object

>  <hbond:VAL:132>  (72) 
hbond:VAL:132    0
hbond:VAL:132    0
Name: 71, dtype: object

>  <hbond:GLY:133>  (72) 
hbond:GLY:133    0
hbond:GLY:133    0
Name: 71, dtype: object

>  <halogenbond:GLY:133>  (72) 
halogenbond:GLY:133    0
halogenbond:GLY:133    0
Name: 71, dtype: object

>  <hydroph_interaction:PHE:134>  (72) 
hydroph_interaction:PHE:134    0
hydroph_interaction:PHE:134    0
Name: 71, dtype: object

>  <hbond:PHE:134>  (72) 
hbond:PHE:134    0
hbond:PHE:134    0
Name: 71, dtype: object

>  <pistack:PHE:134>  (72) 
pistack:PHE:134    0
pistack:PHE:134    0
Name: 71, dtype: object

>  <pication:PHE:134>  (72) 
pication:PHE:134    0
pication:PHE:134    0
Name: 71, dtype: object

>  <hydroph_interaction:ALA:135>  (72) 
hydroph_interaction:ALA:135    0
hydroph_interaction:ALA:135    0
Name: 71, dtype: object

>  <hbond:ALA:135>  (72) 
hbond:ALA:135    0
hbond:ALA:135    0
Name: 71, dtype: object

$$$$
PV_002762187983
     RDKit          3D

 28 29  0  0  0  0  0  0  0  0999 V2000
   12.2890   15.1920   21.8490 C   0  0  0  0  0  0  0  0  0  0  0  0
   11.5530   14.2140   22.7290 C   0  0  0  0  0  0  0  0  0  0  0  0
   12.0200   14.1510   24.1910 C   0  0  0  0  0  0  0  0  0  0  0  0
   10.5470   13.4220   22.3170 C   0  0  0  0  0  0  0  0  0  0  0  0
    9.7420   12.3730   23.1290 C   0  0  0  0  0  0  0  0  0  0  0  0
   10.0840   11.0400   22.8410 C   0  0  0  0  0  0  0  0  0  0  0  0
    9.4120    9.9740   23.5170 C   0  0  0  0  0  0  0  0  0  0  0  0
    8.4360   10.2400   24.4400 C   0  0  0  0  0  0  0  0  0  0  0  0
    8.1100   11.5540   24.7130 C   0  0  0  0  0  0  0  0  0  0  0  0
    8.7520   12.6140   24.0740 C   0  0  0  0  0  0  0  0  0  0  0  0
    8.2730   13.8710   24.5020 N   0  0  0  0  0  0  0  0  0  0  0  0
    7.0090   13.5490   25.1810 C   0  0  0  0  0  0  0  0  0  0  0  0
    7.0950   12.0880   25.6550 C   0  0  0  0  0  0  0  0  0  0  0  0
   11.9540   16.2040   22.0820 H   0  0  0  0  0  0  0  0  0  0  0  0
   13.3560   15.1260   22.0710 H   0  0  0  0  0  0  0  0  0  0  0  0
   12.1370   14.9780   20.7860 H   0  0  0  0  0  0  0  0  0  0  0  0
   11.1890   13.8500   24.8350 H   0  0  0  0  0  0  0  0  0  0  0  0
   12.3540   15.1460   24.5090 H   0  0  0  0  0  0  0  0  0  0  0  0
   12.8530   13.4430   24.3070 H   0  0  0  0  0  0  0  0  0  0  0  0
   10.1950   13.4640   21.2890 H   0  0  0  0  0  0  0  0  0  0  0  0
   10.8480   10.8080   22.1130 H   0  0  0  0  0  0  0  0  0  0  0  0
    9.7610    9.0070   23.2140 H   0  0  0  0  0  0  0  0  0  0  0  0
    7.9320    9.4340   24.9410 H   0  0  0  0  0  0  0  0  0  0  0  0
    8.9710   14.3570   25.0580 H   0  0  0  0  0  0  0  0  0  0  0  0
    6.7970   14.3210   25.9210 H   0  0  0  0  0  0  0  0  0  0  0  0
    6.2170   13.6250   24.4420 H   0  0  0  0  0  0  0  0  0  0  0  0
    6.1430   11.5720   25.5080 H   0  0  0  0  0  0  0  0  0  0  0  0
    7.3910   12.0290   26.7000 H   0  0  0  0  0  0  0  0  0  0  0  0
  1  2  1  0
  2  3  1  0
  2  4  2  3
  4  5  1  0
  5  6  2  0
  6  7  1  0
  7  8  2  0
  8  9  1  0
  9 10  2  0
 10 11  1  0
 11 12  1  0
 12 13  1  0
 10  5  1  0
 13  9  1  0
  1 14  1  0
  1 15  1  0
  1 16  1  0
  3 17  1  0
  3 18  1  0
  3 19  1  0
  4 20  1  0
  6 21  1  0
  7 22  1  0
  8 23  1  0
 11 24  1  0
 12 25  1  0
 12 26  1  0
 13 27  1  0
 13 28  1  0
A    1
 C1 
A    2
 C2 
A    3
 C3 
A    4
 C4 
A    5
 C5 
A    6
 C6 
A    7
 C7 
A    8
 C8 
A    9
 C9 
A   10
 C10
A   11
 N1 
A   12
 C11
A   13
 C12
A   14
 H1 
A   15
 H2 
A   16
 H3 
A   17
 H4 
A   18
 H5 
A   19
 H6 
A   20
 H7 
A   21
 H8 
A   22
 H9 
A   23
 H10
A   24
 H11
A   25
 H12
A   26
 H13
A   27
 H14
A   28
 H15
M  END
>  <ref_pdb>  (73) 
x0310_0A

>  <ref_mols>  (73) 
x0554_0A,x0922_0A

>  <original SMILES>  (73) 
CC(C)=Cc1cccc2c1NCC2

>  <rationale>  (73) 
info hydroph_interaction:P107; 

>  <intxn_cluster>  (73) 
208

>  <intxn_cluster_rank>  (73) 
426

>  <N_interactions>  (73) 
1

>  <∆∆G>  (73) 
-9.400387

>  <$/mg>  (73) 
nan

>  <comRMSD>  (73) 
0.822716

>  <N_rotatable_bonds>  (73) 
3

>  <hbond:SER:7>  (73) 
hbond:SER:7    0
hbond:SER:7    0
Name: 72, dtype: object

>  <halogenbond:SER:7>  (73) 
halogenbond:SER:7    0
halogenbond:SER:7    0
Name: 72, dtype: object

>  <hbond:GLY:8>  (73) 
hbond:GLY:8    0
hbond:GLY:8    0
Name: 72, dtype: object

>  <hydroph_interaction:ASN:19>  (73) 
hydroph_interaction:ASN:19    0
hydroph_interaction:ASN:19    0
Name: 72, dtype: object

>  <hbond:ASN:19>  (73) 
hbond:ASN:19    0
hbond:ASN:19    0
Name: 72, dtype: object

>  <halogenbond:ASN:19>  (73) 
halogenbond:ASN:19    0
halogenbond:ASN:19    0
Name: 72, dtype: object

>  <hbond:ARG:20>  (73) 
hbond:ARG:20    0
hbond:ARG:20    0
Name: 72, dtype: object

>  <hydroph_interaction:ARG:20>  (73) 
hydroph_interaction:ARG:20    0
hydroph_interaction:ARG:20    0
Name: 72, dtype: object

>  <saltbridge:ARG:20>  (73) 
saltbridge:ARG:20    0
saltbridge:ARG:20    0
Name: 72, dtype: object

>  <halogenbond:ARG:20>  (73) 
halogenbond:ARG:20    0
halogenbond:ARG:20    0
Name: 72, dtype: object

>  <pication:ARG:20>  (73) 
pication:ARG:20    0
pication:ARG:20    0
Name: 72, dtype: object

>  <hbond:HIS:21>  (73) 
hbond:HIS:21    0
hbond:HIS:21    0
Name: 72, dtype: object

>  <hydroph_interaction:HIS:21>  (73) 
hydroph_interaction:HIS:21    0
hydroph_interaction:HIS:21    0
Name: 72, dtype: object

>  <saltbridge:HIS:21>  (73) 
saltbridge:HIS:21    0
saltbridge:HIS:21    0
Name: 72, dtype: object

>  <pistack:HIS:21>  (73) 
pistack:HIS:21    0
pistack:HIS:21    0
Name: 72, dtype: object

>  <pication:HIS:21>  (73) 
pication:HIS:21    0
pication:HIS:21    0
Name: 72, dtype: object

>  <halogenbond:HIS:21>  (73) 
halogenbond:HIS:21    0
halogenbond:HIS:21    0
Name: 72, dtype: object

>  <hydroph_interaction:LEU:22>  (73) 
hydroph_interaction:LEU:22    0
hydroph_interaction:LEU:22    0
Name: 72, dtype: object

>  <hbond:LEU:22>  (73) 
hbond:LEU:22    0
hbond:LEU:22    0
Name: 72, dtype: object

>  <hydroph_interaction:TRP:28>  (73) 
hydroph_interaction:TRP:28    0
hydroph_interaction:TRP:28    0
Name: 72, dtype: object

>  <hbond:SER:36>  (73) 
hbond:SER:36    0
hbond:SER:36    0
Name: 72, dtype: object

>  <halogenbond:SER:36>  (73) 
halogenbond:SER:36    0
halogenbond:SER:36    0
Name: 72, dtype: object

>  <hbond:ARG:38>  (73) 
hbond:ARG:38    0
hbond:ARG:38    0
Name: 72, dtype: object

>  <halogenbond:ARG:38>  (73) 
halogenbond:ARG:38    0
halogenbond:ARG:38    0
Name: 72, dtype: object

>  <hbond:ASP:39>  (73) 
hbond:ASP:39    0
hbond:ASP:39    0
Name: 72, dtype: object

>  <saltbridge:ASP:39>  (73) 
saltbridge:ASP:39    0
saltbridge:ASP:39    0
Name: 72, dtype: object

>  <hydroph_interaction:ASP:39>  (73) 
hydroph_interaction:ASP:39    0
hydroph_interaction:ASP:39    0
Name: 72, dtype: object

>  <halogenbond:ASP:39>  (73) 
halogenbond:ASP:39    0
halogenbond:ASP:39    0
Name: 72, dtype: object

>  <hydroph_interaction:LEU:40>  (73) 
hydroph_interaction:LEU:40    0
hydroph_interaction:LEU:40    0
Name: 72, dtype: object

>  <hydroph_interaction:TYR:63>  (73) 
hydroph_interaction:TYR:63    0
hydroph_interaction:TYR:63    0
Name: 72, dtype: object

>  <pistack:TYR:63>  (73) 
pistack:TYR:63    0
pistack:TYR:63    0
Name: 72, dtype: object

>  <hbond:TYR:63>  (73) 
hbond:TYR:63    0
hbond:TYR:63    0
Name: 72, dtype: object

>  <hbond:TYR:64>  (73) 
hbond:TYR:64    0
hbond:TYR:64    0
Name: 72, dtype: object

>  <halogenbond:TYR:64>  (73) 
halogenbond:TYR:64    0
halogenbond:TYR:64    0
Name: 72, dtype: object

>  <hydroph_interaction:TYR:64>  (73) 
hydroph_interaction:TYR:64    0
hydroph_interaction:TYR:64    0
Name: 72, dtype: object

>  <hbond:CYS:65>  (73) 
hbond:CYS:65    0
hbond:CYS:65    0
Name: 72, dtype: object

>  <halogenbond:CYS:65>  (73) 
halogenbond:CYS:65    0
halogenbond:CYS:65    0
Name: 72, dtype: object

>  <hbond:SER:66>  (73) 
hbond:SER:66    0
hbond:SER:66    0
Name: 72, dtype: object

>  <hbond:SER:67>  (73) 
hbond:SER:67    0
hbond:SER:67    0
Name: 72, dtype: object

>  <halogenbond:SER:67>  (73) 
halogenbond:SER:67    0
halogenbond:SER:67    0
Name: 72, dtype: object

>  <hydroph_interaction:ARG:68>  (73) 
hydroph_interaction:ARG:68    0
hydroph_interaction:ARG:68    0
Name: 72, dtype: object

>  <hbond:ARG:68>  (73) 
hbond:ARG:68    0
hbond:ARG:68    0
Name: 72, dtype: object

>  <saltbridge:ARG:68>  (73) 
saltbridge:ARG:68    0
saltbridge:ARG:68    0
Name: 72, dtype: object

>  <pication:ARG:68>  (73) 
pication:ARG:68    0
pication:ARG:68    0
Name: 72, dtype: object

>  <hydroph_interaction:TYR:72>  (73) 
hydroph_interaction:TYR:72    0
hydroph_interaction:TYR:72    0
Name: 72, dtype: object

>  <hydroph_interaction:VAL:74>  (73) 
hydroph_interaction:VAL:74    0
hydroph_interaction:VAL:74    0
Name: 72, dtype: object

>  <hydroph_interaction:PHE:76>  (73) 
hydroph_interaction:PHE:76    0
hydroph_interaction:PHE:76    0
Name: 72, dtype: object

>  <hbond:SER:77>  (73) 
hbond:SER:77    0
hbond:SER:77    0
Name: 72, dtype: object

>  <hbond:SER:80>  (73) 
hbond:SER:80    0
hbond:SER:80    0
Name: 72, dtype: object

>  <hbond:LEU:81>  (73) 
hbond:LEU:81    0
hbond:LEU:81    0
Name: 72, dtype: object

>  <halogenbond:LEU:81>  (73) 
halogenbond:LEU:81    0
halogenbond:LEU:81    0
Name: 72, dtype: object

>  <hydroph_interaction:LEU:81>  (73) 
hydroph_interaction:LEU:81    0
hydroph_interaction:LEU:81    0
Name: 72, dtype: object

>  <hydroph_interaction:ILE:82>  (73) 
hydroph_interaction:ILE:82    0
hydroph_interaction:ILE:82    0
Name: 72, dtype: object

>  <hbond:ILE:82>  (73) 
hbond:ILE:82    0
hbond:ILE:82    0
Name: 72, dtype: object

>  <hydroph_interaction:PHE:83>  (73) 
hydroph_interaction:PHE:83    0
hydroph_interaction:PHE:83    0
Name: 72, dtype: object

>  <hbond:PHE:83>  (73) 
hbond:PHE:83    0
hbond:PHE:83    0
Name: 72, dtype: object

>  <halogenbond:PHE:83>  (73) 
halogenbond:PHE:83    0
halogenbond:PHE:83    0
Name: 72, dtype: object

>  <pistack:PHE:83>  (73) 
pistack:PHE:83    0
pistack:PHE:83    0
Name: 72, dtype: object

>  <hydroph_interaction:VAL:84>  (73) 
hydroph_interaction:VAL:84    0
hydroph_interaction:VAL:84    0
Name: 72, dtype: object

>  <hbond:VAL:84>  (73) 
hbond:VAL:84    0
hbond:VAL:84    0
Name: 72, dtype: object

>  <halogenbond:VAL:84>  (73) 
halogenbond:VAL:84    0
halogenbond:VAL:84    0
Name: 72, dtype: object

>  <hydroph_interaction:GLU:85>  (73) 
hydroph_interaction:GLU:85    0
hydroph_interaction:GLU:85    0
Name: 72, dtype: object

>  <hbond:GLU:85>  (73) 
hbond:GLU:85    0
hbond:GLU:85    0
Name: 72, dtype: object

>  <saltbridge:GLU:85>  (73) 
saltbridge:GLU:85    0
saltbridge:GLU:85    0
Name: 72, dtype: object

>  <halogenbond:GLU:85>  (73) 
halogenbond:GLU:85    0
halogenbond:GLU:85    0
Name: 72, dtype: object

>  <hbond:ALA:86>  (73) 
hbond:ALA:86    0
hbond:ALA:86    0
Name: 72, dtype: object

>  <halogenbond:ALA:86>  (73) 
halogenbond:ALA:86    0
halogenbond:ALA:86    0
Name: 72, dtype: object

>  <hydroph_interaction:ALA:86>  (73) 
hydroph_interaction:ALA:86    0
hydroph_interaction:ALA:86    0
Name: 72, dtype: object

>  <hbond:SER:87>  (73) 
hbond:SER:87    0
hbond:SER:87    0
Name: 72, dtype: object

>  <halogenbond:SER:87>  (73) 
halogenbond:SER:87    0
halogenbond:SER:87    0
Name: 72, dtype: object

>  <hbond:GLU:88>  (73) 
hbond:GLU:88    0
hbond:GLU:88    0
Name: 72, dtype: object

>  <hydroph_interaction:GLU:88>  (73) 
hydroph_interaction:GLU:88    0
hydroph_interaction:GLU:88    0
Name: 72, dtype: object

>  <halogenbond:GLU:88>  (73) 
halogenbond:GLU:88    0
halogenbond:GLU:88    0
Name: 72, dtype: object

>  <saltbridge:GLU:88>  (73) 
saltbridge:GLU:88    0
saltbridge:GLU:88    0
Name: 72, dtype: object

>  <hydroph_interaction:TYR:89>  (73) 
hydroph_interaction:TYR:89    0
hydroph_interaction:TYR:89    0
Name: 72, dtype: object

>  <pistack:TYR:89>  (73) 
pistack:TYR:89    0
pistack:TYR:89    0
Name: 72, dtype: object

>  <hbond:TYR:89>  (73) 
hbond:TYR:89    0
hbond:TYR:89    0
Name: 72, dtype: object

>  <halogenbond:TYR:89>  (73) 
halogenbond:TYR:89    0
halogenbond:TYR:89    0
Name: 72, dtype: object

>  <hbond:TYR:90>  (73) 
hbond:TYR:90    0
hbond:TYR:90    0
Name: 72, dtype: object

>  <hydroph_interaction:TYR:90>  (73) 
hydroph_interaction:TYR:90    0
hydroph_interaction:TYR:90    0
Name: 72, dtype: object

>  <pistack:TYR:90>  (73) 
pistack:TYR:90    0
pistack:TYR:90    0
Name: 72, dtype: object

>  <halogenbond:TYR:90>  (73) 
halogenbond:TYR:90    0
halogenbond:TYR:90    0
Name: 72, dtype: object

>  <pication:TYR:90>  (73) 
pication:TYR:90    0
pication:TYR:90    0
Name: 72, dtype: object

>  <hydroph_interaction:PRO:91>  (73) 
hydroph_interaction:PRO:91    0
hydroph_interaction:PRO:91    0
Name: 72, dtype: object

>  <halogenbond:PRO:91>  (73) 
halogenbond:PRO:91    0
halogenbond:PRO:91    0
Name: 72, dtype: object

>  <hbond:PRO:91>  (73) 
hbond:PRO:91    0
hbond:PRO:91    0
Name: 72, dtype: object

>  <hydroph_interaction:ALA:92>  (73) 
hydroph_interaction:ALA:92    0
hydroph_interaction:ALA:92    0
Name: 72, dtype: object

>  <hbond:ARG:93>  (73) 
hbond:ARG:93    0
hbond:ARG:93    0
Name: 72, dtype: object

>  <pication:ARG:93>  (73) 
pication:ARG:93    0
pication:ARG:93    0
Name: 72, dtype: object

>  <saltbridge:ARG:93>  (73) 
saltbridge:ARG:93    0
saltbridge:ARG:93    0
Name: 72, dtype: object

>  <hydroph_interaction:ARG:93>  (73) 
hydroph_interaction:ARG:93    0
hydroph_interaction:ARG:93    0
Name: 72, dtype: object

>  <halogenbond:ARG:93>  (73) 
halogenbond:ARG:93    0
halogenbond:ARG:93    0
Name: 72, dtype: object

>  <hydroph_interaction:TYR:94>  (73) 
hydroph_interaction:TYR:94    0
hydroph_interaction:TYR:94    0
Name: 72, dtype: object

>  <hbond:TYR:94>  (73) 
hbond:TYR:94    0
hbond:TYR:94    0
Name: 72, dtype: object

>  <halogenbond:GLN:95>  (73) 
halogenbond:GLN:95    0
halogenbond:GLN:95    0
Name: 72, dtype: object

>  <hbond:GLN:95>  (73) 
hbond:GLN:95    0
hbond:GLN:95    0
Name: 72, dtype: object

>  <hydroph_interaction:GLN:95>  (73) 
hydroph_interaction:GLN:95    0
hydroph_interaction:GLN:95    0
Name: 72, dtype: object

>  <hbond:SER:96>  (73) 
hbond:SER:96    0
hbond:SER:96    0
Name: 72, dtype: object

>  <hydroph_interaction:LEU:98>  (73) 
hydroph_interaction:LEU:98    0
hydroph_interaction:LEU:98    0
Name: 72, dtype: object

>  <hbond:LEU:98>  (73) 
hbond:LEU:98    0
hbond:LEU:98    0
Name: 72, dtype: object

>  <hbond:MET:99>  (73) 
hbond:MET:99    0
hbond:MET:99    0
Name: 72, dtype: object

>  <hydroph_interaction:MET:99>  (73) 
hydroph_interaction:MET:99    0
hydroph_interaction:MET:99    0
Name: 72, dtype: object

>  <halogenbond:MET:99>  (73) 
halogenbond:MET:99    0
halogenbond:MET:99    0
Name: 72, dtype: object

>  <hydroph_interaction:LEU:100>  (73) 
hydroph_interaction:LEU:100    0
hydroph_interaction:LEU:100    0
Name: 72, dtype: object

>  <hbond:LEU:100>  (73) 
hbond:LEU:100    0
hbond:LEU:100    0
Name: 72, dtype: object

>  <hbond:ALA:101>  (73) 
hbond:ALA:101    0
hbond:ALA:101    0
Name: 72, dtype: object

>  <hydroph_interaction:ALA:101>  (73) 
hydroph_interaction:ALA:101    0
hydroph_interaction:ALA:101    0
Name: 72, dtype: object

>  <hydroph_interaction:VAL:102>  (73) 
hydroph_interaction:VAL:102    0
hydroph_interaction:VAL:102    0
Name: 72, dtype: object

>  <hbond:VAL:102>  (73) 
hbond:VAL:102    0
hbond:VAL:102    0
Name: 72, dtype: object

>  <hbond:GLY:103>  (73) 
hbond:GLY:103    0
hbond:GLY:103    0
Name: 72, dtype: object

>  <halogenbond:GLY:103>  (73) 
halogenbond:GLY:103    0
halogenbond:GLY:103    0
Name: 72, dtype: object

>  <hydroph_interaction:HIS:104>  (73) 
hydroph_interaction:HIS:104    0
hydroph_interaction:HIS:104    0
Name: 72, dtype: object

>  <hbond:HIS:104>  (73) 
hbond:HIS:104    0
hbond:HIS:104    0
Name: 72, dtype: object

>  <saltbridge:HIS:104>  (73) 
saltbridge:HIS:104    0
saltbridge:HIS:104    0
Name: 72, dtype: object

>  <pication:HIS:104>  (73) 
pication:HIS:104    0
pication:HIS:104    0
Name: 72, dtype: object

>  <pistack:HIS:104>  (73) 
pistack:HIS:104    0
pistack:HIS:104    0
Name: 72, dtype: object

>  <halogenbond:HIS:104>  (73) 
halogenbond:HIS:104    0
halogenbond:HIS:104    0
Name: 72, dtype: object

>  <hbond:SER:105>  (73) 
hbond:SER:105    0
hbond:SER:105    0
Name: 72, dtype: object

>  <halogenbond:SER:105>  (73) 
halogenbond:SER:105    0
halogenbond:SER:105    0
Name: 72, dtype: object

>  <hbond:GLU:106>  (73) 
hbond:GLU:106    0
hbond:GLU:106    0
Name: 72, dtype: object

>  <hydroph_interaction:GLU:106>  (73) 
hydroph_interaction:GLU:106    0
hydroph_interaction:GLU:106    0
Name: 72, dtype: object

>  <saltbridge:GLU:106>  (73) 
saltbridge:GLU:106    0
saltbridge:GLU:106    0
Name: 72, dtype: object

>  <halogenbond:GLU:106>  (73) 
halogenbond:GLU:106    0
halogenbond:GLU:106    0
Name: 72, dtype: object

>  <hydroph_interaction:PRO:107>  (73) 
hydroph_interaction:PRO:107    1
hydroph_interaction:PRO:107    1
Name: 72, dtype: object

>  <hbond:PRO:107>  (73) 
hbond:PRO:107    0
hbond:PRO:107    0
Name: 72, dtype: object

>  <halogenbond:PRO:107>  (73) 
halogenbond:PRO:107    0
halogenbond:PRO:107    0
Name: 72, dtype: object

>  <hbond:GLY:108>  (73) 
hbond:GLY:108    0
hbond:GLY:108    0
Name: 72, dtype: object

>  <halogenbond:GLY:108>  (73) 
halogenbond:GLY:108    0
halogenbond:GLY:108    0
Name: 72, dtype: object

>  <hbond:ASP:109>  (73) 
hbond:ASP:109    0
hbond:ASP:109    0
Name: 72, dtype: object

>  <hydroph_interaction:ASP:109>  (73) 
hydroph_interaction:ASP:109    0
hydroph_interaction:ASP:109    0
Name: 72, dtype: object

>  <saltbridge:ASP:109>  (73) 
saltbridge:ASP:109    0
saltbridge:ASP:109    0
Name: 72, dtype: object

>  <hbond:CYS:110>  (73) 
hbond:CYS:110    0
hbond:CYS:110    0
Name: 72, dtype: object

>  <halogenbond:CYS:110>  (73) 
halogenbond:CYS:110    0
halogenbond:CYS:110    0
Name: 72, dtype: object

>  <hbond:GLY:111>  (73) 
hbond:GLY:111    0
hbond:GLY:111    0
Name: 72, dtype: object

>  <hbond:GLY:112>  (73) 
hbond:GLY:112    0
hbond:GLY:112    0
Name: 72, dtype: object

>  <hbond:ILE:113>  (73) 
hbond:ILE:113    0
hbond:ILE:113    0
Name: 72, dtype: object

>  <hydroph_interaction:LEU:114>  (73) 
hydroph_interaction:LEU:114    0
hydroph_interaction:LEU:114    0
Name: 72, dtype: object

>  <hbond:LEU:114>  (73) 
hbond:LEU:114    0
hbond:LEU:114    0
Name: 72, dtype: object

>  <hydroph_interaction:ILE:123>  (73) 
hydroph_interaction:ILE:123    0
hydroph_interaction:ILE:123    0
Name: 72, dtype: object

>  <hbond:ILE:123>  (73) 
hbond:ILE:123    0
hbond:ILE:123    0
Name: 72, dtype: object

>  <hydroph_interaction:VAL:124>  (73) 
hydroph_interaction:VAL:124    0
hydroph_interaction:VAL:124    0
Name: 72, dtype: object

>  <hbond:VAL:124>  (73) 
hbond:VAL:124    0
hbond:VAL:124    0
Name: 72, dtype: object

>  <halogenbond:VAL:124>  (73) 
halogenbond:VAL:124    0
halogenbond:VAL:124    0
Name: 72, dtype: object

>  <hbond:SER:125>  (73) 
hbond:SER:125    0
hbond:SER:125    0
Name: 72, dtype: object

>  <halogenbond:SER:125>  (73) 
halogenbond:SER:125    0
halogenbond:SER:125    0
Name: 72, dtype: object

>  <hydroph_interaction:THR:126>  (73) 
hydroph_interaction:THR:126    0
hydroph_interaction:THR:126    0
Name: 72, dtype: object

>  <hbond:THR:126>  (73) 
hbond:THR:126    0
hbond:THR:126    0
Name: 72, dtype: object

>  <halogenbond:THR:126>  (73) 
halogenbond:THR:126    0
halogenbond:THR:126    0
Name: 72, dtype: object

>  <hbond:GLY:127>  (73) 
hbond:GLY:127    0
hbond:GLY:127    0
Name: 72, dtype: object

>  <halogenbond:GLY:127>  (73) 
halogenbond:GLY:127    0
halogenbond:GLY:127    0
Name: 72, dtype: object

>  <hydroph_interaction:GLY:127>  (73) 
hydroph_interaction:GLY:127    0
hydroph_interaction:GLY:127    0
Name: 72, dtype: object

>  <hbond:GLY:128>  (73) 
hbond:GLY:128    0
hbond:GLY:128    0
Name: 72, dtype: object

>  <halogenbond:GLY:128>  (73) 
halogenbond:GLY:128    0
halogenbond:GLY:128    0
Name: 72, dtype: object

>  <hydroph_interaction:GLY:128>  (73) 
hydroph_interaction:GLY:128    0
hydroph_interaction:GLY:128    0
Name: 72, dtype: object

>  <hbond:ASN:129>  (73) 
hbond:ASN:129    0
hbond:ASN:129    0
Name: 72, dtype: object

>  <hydroph_interaction:ASN:129>  (73) 
hydroph_interaction:ASN:129    0
hydroph_interaction:ASN:129    0
Name: 72, dtype: object

>  <halogenbond:ASN:129>  (73) 
halogenbond:ASN:129    0
halogenbond:ASN:129    0
Name: 72, dtype: object

>  <hbond:GLY:130>  (73) 
hbond:GLY:130    0
hbond:GLY:130    0
Name: 72, dtype: object

>  <hydroph_interaction:LEU:131>  (73) 
hydroph_interaction:LEU:131    0
hydroph_interaction:LEU:131    0
Name: 72, dtype: object

>  <hbond:LEU:131>  (73) 
hbond:LEU:131    0
hbond:LEU:131    0
Name: 72, dtype: object

>  <halogenbond:LEU:131>  (73) 
halogenbond:LEU:131    0
halogenbond:LEU:131    0
Name: 72, dtype: object

>  <hydroph_interaction:VAL:132>  (73) 
hydroph_interaction:VAL:132    0
hydroph_interaction:VAL:132    0
Name: 72, dtype: object

>  <hbond:VAL:132>  (73) 
hbond:VAL:132    0
hbond:VAL:132    0
Name: 72, dtype: object

>  <hbond:GLY:133>  (73) 
hbond:GLY:133    0
hbond:GLY:133    0
Name: 72, dtype: object

>  <halogenbond:GLY:133>  (73) 
halogenbond:GLY:133    0
halogenbond:GLY:133    0
Name: 72, dtype: object

>  <hydroph_interaction:PHE:134>  (73) 
hydroph_interaction:PHE:134    0
hydroph_interaction:PHE:134    0
Name: 72, dtype: object

>  <hbond:PHE:134>  (73) 
hbond:PHE:134    0
hbond:PHE:134    0
Name: 72, dtype: object

>  <pistack:PHE:134>  (73) 
pistack:PHE:134    0
pistack:PHE:134    0
Name: 72, dtype: object

>  <pication:PHE:134>  (73) 
pication:PHE:134    0
pication:PHE:134    0
Name: 72, dtype: object

>  <hydroph_interaction:ALA:135>  (73) 
hydroph_interaction:ALA:135    0
hydroph_interaction:ALA:135    0
Name: 72, dtype: object

>  <hbond:ALA:135>  (73) 
hbond:ALA:135    0
hbond:ALA:135    0
Name: 72, dtype: object

$$$$
PV_002105502255
     RDKit          3D

 28 28  0  0  0  0  0  0  0  0999 V2000
    8.2370   16.9270   28.1670 C   0  0  0  0  0  0  0  0  0  0  0  0
    8.4900   15.8860   27.0920 C   0  0  0  0  0  0  0  0  0  0  0  0
    7.2080   15.5590   26.3300 C   0  0  0  0  0  0  0  0  0  0  0  0
    7.4490   14.6220   25.1560 C   0  0  0  0  0  0  0  0  0  0  0  0
    7.4850   15.0150   24.0020 O   0  0  0  0  0  0  0  0  0  0  0  0
    7.6100   13.3190   25.5710 N   0  0  0  0  0  0  0  0  0  0  0  0
    8.2350   12.2850   24.8470 C   0  0  0  0  0  0  0  0  0  0  0  0
    9.2040   12.6600   23.9030 C   0  0  0  0  0  0  0  0  0  0  0  0
    9.8740   11.6940   23.1470 C   0  0  0  0  0  0  0  0  0  0  0  0
    9.5880   10.3460   23.3190 C   0  0  0  0  0  0  0  0  0  0  0  0
   10.2900    9.2990   22.5230 C   0  0  0  0  0  0  0  0  0  0  0  0
    8.6290    9.9890   24.2500 C   0  0  0  0  0  0  0  0  0  0  0  0
    7.9540   10.9400   25.0100 C   0  0  0  0  0  0  0  0  0  0  0  0
    9.0090   16.8650   28.9430 H   0  0  0  0  0  0  0  0  0  0  0  0
    8.2630   17.9380   27.7460 H   0  0  0  0  0  0  0  0  0  0  0  0
    7.2650   16.7770   28.6420 H   0  0  0  0  0  0  0  0  0  0  0  0
    9.2540   16.2580   26.4010 H   0  0  0  0  0  0  0  0  0  0  0  0
    8.8950   14.9800   27.5550 H   0  0  0  0  0  0  0  0  0  0  0  0
    6.4910   15.0770   27.0040 H   0  0  0  0  0  0  0  0  0  0  0  0
    6.7530   16.4800   25.9450 H   0  0  0  0  0  0  0  0  0  0  0  0
    6.9940   13.0090   26.3140 H   0  0  0  0  0  0  0  0  0  0  0  0
    9.4540   13.7030   23.7420 H   0  0  0  0  0  0  0  0  0  0  0  0
   10.6240   12.0080   22.4210 H   0  0  0  0  0  0  0  0  0  0  0  0
   10.8770    9.7690   21.7380 H   0  0  0  0  0  0  0  0  0  0  0  0
    9.5750    8.6290   22.0460 H   0  0  0  0  0  0  0  0  0  0  0  0
   10.9520    8.6920   23.1520 H   0  0  0  0  0  0  0  0  0  0  0  0
    8.3910    8.9490   24.3950 H   0  0  0  0  0  0  0  0  0  0  0  0
    7.2140   10.5850   25.7220 H   0  0  0  0  0  0  0  0  0  0  0  0
  1  2  1  0
  2  3  1  0
  3  4  1  0
  4  5  2  0
  4  6  1  0
  6  7  1  0
  7  8  2  0
  8  9  1  0
  9 10  2  0
 10 11  1  0
 10 12  1  0
 12 13  2  0
 13  7  1  0
  1 14  1  0
  1 15  1  0
  1 16  1  0
  2 17  1  0
  2 18  1  0
  3 19  1  0
  3 20  1  0
  6 21  1  0
  8 22  1  0
  9 23  1  0
 11 24  1  0
 11 25  1  0
 11 26  1  0
 12 27  1  0
 13 28  1  0
A    1
 C1 
A    2
 C2 
A    3
 C3 
A    4
 C4 
A    5
 O1 
A    6
 N1 
A    7
 C5 
A    8
 C6 
A    9
 C7 
A   10
 C8 
A   11
 C9 
A   12
 C10
A   13
 C11
A   14
 H1 
A   15
 H2 
A   16
 H3 
A   17
 H4 
A   18
 H5 
A   19
 H6 
A   20
 H7 
A   21
 H8 
A   22
 H9 
A   23
 H10
A   24
 H11
A   25
 H12
A   26
 H13
A   27
 H14
A   28
 H15
M  END
>  <ref_pdb>  (74) 
x0310_0A

>  <ref_mols>  (74) 
x0416_0A,x0451_0A,x1097_0A

>  <original SMILES>  (74) 
CCCC(=O)Nc1ccc(C)cc1

>  <rationale>  (74) 
info hydroph_interaction:V124+E88; 

>  <intxn_cluster>  (74) 
103

>  <intxn_cluster_rank>  (74) 
437

>  <N_interactions>  (74) 
2

>  <∆∆G>  (74) 
-9.124776

>  <$/mg>  (74) 
nan

>  <comRMSD>  (74) 
0.590936

>  <N_rotatable_bonds>  (74) 
5

>  <hbond:SER:7>  (74) 
hbond:SER:7    0
hbond:SER:7    0
Name: 73, dtype: object

>  <halogenbond:SER:7>  (74) 
halogenbond:SER:7    0
halogenbond:SER:7    0
Name: 73, dtype: object

>  <hbond:GLY:8>  (74) 
hbond:GLY:8    0
hbond:GLY:8    0
Name: 73, dtype: object

>  <hydroph_interaction:ASN:19>  (74) 
hydroph_interaction:ASN:19    0
hydroph_interaction:ASN:19    0
Name: 73, dtype: object

>  <hbond:ASN:19>  (74) 
hbond:ASN:19    0
hbond:ASN:19    0
Name: 73, dtype: object

>  <halogenbond:ASN:19>  (74) 
halogenbond:ASN:19    0
halogenbond:ASN:19    0
Name: 73, dtype: object

>  <hbond:ARG:20>  (74) 
hbond:ARG:20    0
hbond:ARG:20    0
Name: 73, dtype: object

>  <hydroph_interaction:ARG:20>  (74) 
hydroph_interaction:ARG:20    0
hydroph_interaction:ARG:20    0
Name: 73, dtype: object

>  <saltbridge:ARG:20>  (74) 
saltbridge:ARG:20    0
saltbridge:ARG:20    0
Name: 73, dtype: object

>  <halogenbond:ARG:20>  (74) 
halogenbond:ARG:20    0
halogenbond:ARG:20    0
Name: 73, dtype: object

>  <pication:ARG:20>  (74) 
pication:ARG:20    0
pication:ARG:20    0
Name: 73, dtype: object

>  <hbond:HIS:21>  (74) 
hbond:HIS:21    0
hbond:HIS:21    0
Name: 73, dtype: object

>  <hydroph_interaction:HIS:21>  (74) 
hydroph_interaction:HIS:21    0
hydroph_interaction:HIS:21    0
Name: 73, dtype: object

>  <saltbridge:HIS:21>  (74) 
saltbridge:HIS:21    0
saltbridge:HIS:21    0
Name: 73, dtype: object

>  <pistack:HIS:21>  (74) 
pistack:HIS:21    0
pistack:HIS:21    0
Name: 73, dtype: object

>  <pication:HIS:21>  (74) 
pication:HIS:21    0
pication:HIS:21    0
Name: 73, dtype: object

>  <halogenbond:HIS:21>  (74) 
halogenbond:HIS:21    0
halogenbond:HIS:21    0
Name: 73, dtype: object

>  <hydroph_interaction:LEU:22>  (74) 
hydroph_interaction:LEU:22    0
hydroph_interaction:LEU:22    0
Name: 73, dtype: object

>  <hbond:LEU:22>  (74) 
hbond:LEU:22    0
hbond:LEU:22    0
Name: 73, dtype: object

>  <hydroph_interaction:TRP:28>  (74) 
hydroph_interaction:TRP:28    0
hydroph_interaction:TRP:28    0
Name: 73, dtype: object

>  <hbond:SER:36>  (74) 
hbond:SER:36    0
hbond:SER:36    0
Name: 73, dtype: object

>  <halogenbond:SER:36>  (74) 
halogenbond:SER:36    0
halogenbond:SER:36    0
Name: 73, dtype: object

>  <hbond:ARG:38>  (74) 
hbond:ARG:38    0
hbond:ARG:38    0
Name: 73, dtype: object

>  <halogenbond:ARG:38>  (74) 
halogenbond:ARG:38    0
halogenbond:ARG:38    0
Name: 73, dtype: object

>  <hbond:ASP:39>  (74) 
hbond:ASP:39    0
hbond:ASP:39    0
Name: 73, dtype: object

>  <saltbridge:ASP:39>  (74) 
saltbridge:ASP:39    0
saltbridge:ASP:39    0
Name: 73, dtype: object

>  <hydroph_interaction:ASP:39>  (74) 
hydroph_interaction:ASP:39    0
hydroph_interaction:ASP:39    0
Name: 73, dtype: object

>  <halogenbond:ASP:39>  (74) 
halogenbond:ASP:39    0
halogenbond:ASP:39    0
Name: 73, dtype: object

>  <hydroph_interaction:LEU:40>  (74) 
hydroph_interaction:LEU:40    0
hydroph_interaction:LEU:40    0
Name: 73, dtype: object

>  <hydroph_interaction:TYR:63>  (74) 
hydroph_interaction:TYR:63    0
hydroph_interaction:TYR:63    0
Name: 73, dtype: object

>  <pistack:TYR:63>  (74) 
pistack:TYR:63    0
pistack:TYR:63    0
Name: 73, dtype: object

>  <hbond:TYR:63>  (74) 
hbond:TYR:63    0
hbond:TYR:63    0
Name: 73, dtype: object

>  <hbond:TYR:64>  (74) 
hbond:TYR:64    0
hbond:TYR:64    0
Name: 73, dtype: object

>  <halogenbond:TYR:64>  (74) 
halogenbond:TYR:64    0
halogenbond:TYR:64    0
Name: 73, dtype: object

>  <hydroph_interaction:TYR:64>  (74) 
hydroph_interaction:TYR:64    0
hydroph_interaction:TYR:64    0
Name: 73, dtype: object

>  <hbond:CYS:65>  (74) 
hbond:CYS:65    0
hbond:CYS:65    0
Name: 73, dtype: object

>  <halogenbond:CYS:65>  (74) 
halogenbond:CYS:65    0
halogenbond:CYS:65    0
Name: 73, dtype: object

>  <hbond:SER:66>  (74) 
hbond:SER:66    0
hbond:SER:66    0
Name: 73, dtype: object

>  <hbond:SER:67>  (74) 
hbond:SER:67    0
hbond:SER:67    0
Name: 73, dtype: object

>  <halogenbond:SER:67>  (74) 
halogenbond:SER:67    0
halogenbond:SER:67    0
Name: 73, dtype: object

>  <hydroph_interaction:ARG:68>  (74) 
hydroph_interaction:ARG:68    0
hydroph_interaction:ARG:68    0
Name: 73, dtype: object

>  <hbond:ARG:68>  (74) 
hbond:ARG:68    0
hbond:ARG:68    0
Name: 73, dtype: object

>  <saltbridge:ARG:68>  (74) 
saltbridge:ARG:68    0
saltbridge:ARG:68    0
Name: 73, dtype: object

>  <pication:ARG:68>  (74) 
pication:ARG:68    0
pication:ARG:68    0
Name: 73, dtype: object

>  <hydroph_interaction:TYR:72>  (74) 
hydroph_interaction:TYR:72    0
hydroph_interaction:TYR:72    0
Name: 73, dtype: object

>  <hydroph_interaction:VAL:74>  (74) 
hydroph_interaction:VAL:74    0
hydroph_interaction:VAL:74    0
Name: 73, dtype: object

>  <hydroph_interaction:PHE:76>  (74) 
hydroph_interaction:PHE:76    0
hydroph_interaction:PHE:76    0
Name: 73, dtype: object

>  <hbond:SER:77>  (74) 
hbond:SER:77    0
hbond:SER:77    0
Name: 73, dtype: object

>  <hbond:SER:80>  (74) 
hbond:SER:80    0
hbond:SER:80    0
Name: 73, dtype: object

>  <hbond:LEU:81>  (74) 
hbond:LEU:81    0
hbond:LEU:81    0
Name: 73, dtype: object

>  <halogenbond:LEU:81>  (74) 
halogenbond:LEU:81    0
halogenbond:LEU:81    0
Name: 73, dtype: object

>  <hydroph_interaction:LEU:81>  (74) 
hydroph_interaction:LEU:81    0
hydroph_interaction:LEU:81    0
Name: 73, dtype: object

>  <hydroph_interaction:ILE:82>  (74) 
hydroph_interaction:ILE:82    0
hydroph_interaction:ILE:82    0
Name: 73, dtype: object

>  <hbond:ILE:82>  (74) 
hbond:ILE:82    0
hbond:ILE:82    0
Name: 73, dtype: object

>  <hydroph_interaction:PHE:83>  (74) 
hydroph_interaction:PHE:83    0
hydroph_interaction:PHE:83    0
Name: 73, dtype: object

>  <hbond:PHE:83>  (74) 
hbond:PHE:83    0
hbond:PHE:83    0
Name: 73, dtype: object

>  <halogenbond:PHE:83>  (74) 
halogenbond:PHE:83    0
halogenbond:PHE:83    0
Name: 73, dtype: object

>  <pistack:PHE:83>  (74) 
pistack:PHE:83    0
pistack:PHE:83    0
Name: 73, dtype: object

>  <hydroph_interaction:VAL:84>  (74) 
hydroph_interaction:VAL:84    0
hydroph_interaction:VAL:84    0
Name: 73, dtype: object

>  <hbond:VAL:84>  (74) 
hbond:VAL:84    0
hbond:VAL:84    0
Name: 73, dtype: object

>  <halogenbond:VAL:84>  (74) 
halogenbond:VAL:84    0
halogenbond:VAL:84    0
Name: 73, dtype: object

>  <hydroph_interaction:GLU:85>  (74) 
hydroph_interaction:GLU:85    0
hydroph_interaction:GLU:85    0
Name: 73, dtype: object

>  <hbond:GLU:85>  (74) 
hbond:GLU:85    0
hbond:GLU:85    0
Name: 73, dtype: object

>  <saltbridge:GLU:85>  (74) 
saltbridge:GLU:85    0
saltbridge:GLU:85    0
Name: 73, dtype: object

>  <halogenbond:GLU:85>  (74) 
halogenbond:GLU:85    0
halogenbond:GLU:85    0
Name: 73, dtype: object

>  <hbond:ALA:86>  (74) 
hbond:ALA:86    0
hbond:ALA:86    0
Name: 73, dtype: object

>  <halogenbond:ALA:86>  (74) 
halogenbond:ALA:86    0
halogenbond:ALA:86    0
Name: 73, dtype: object

>  <hydroph_interaction:ALA:86>  (74) 
hydroph_interaction:ALA:86    0
hydroph_interaction:ALA:86    0
Name: 73, dtype: object

>  <hbond:SER:87>  (74) 
hbond:SER:87    0
hbond:SER:87    0
Name: 73, dtype: object

>  <halogenbond:SER:87>  (74) 
halogenbond:SER:87    0
halogenbond:SER:87    0
Name: 73, dtype: object

>  <hbond:GLU:88>  (74) 
hbond:GLU:88    0
hbond:GLU:88    0
Name: 73, dtype: object

>  <hydroph_interaction:GLU:88>  (74) 
hydroph_interaction:GLU:88    1
hydroph_interaction:GLU:88    1
Name: 73, dtype: object

>  <halogenbond:GLU:88>  (74) 
halogenbond:GLU:88    0
halogenbond:GLU:88    0
Name: 73, dtype: object

>  <saltbridge:GLU:88>  (74) 
saltbridge:GLU:88    0
saltbridge:GLU:88    0
Name: 73, dtype: object

>  <hydroph_interaction:TYR:89>  (74) 
hydroph_interaction:TYR:89    0
hydroph_interaction:TYR:89    0
Name: 73, dtype: object

>  <pistack:TYR:89>  (74) 
pistack:TYR:89    0
pistack:TYR:89    0
Name: 73, dtype: object

>  <hbond:TYR:89>  (74) 
hbond:TYR:89    0
hbond:TYR:89    0
Name: 73, dtype: object

>  <halogenbond:TYR:89>  (74) 
halogenbond:TYR:89    0
halogenbond:TYR:89    0
Name: 73, dtype: object

>  <hbond:TYR:90>  (74) 
hbond:TYR:90    0
hbond:TYR:90    0
Name: 73, dtype: object

>  <hydroph_interaction:TYR:90>  (74) 
hydroph_interaction:TYR:90    0
hydroph_interaction:TYR:90    0
Name: 73, dtype: object

>  <pistack:TYR:90>  (74) 
pistack:TYR:90    0
pistack:TYR:90    0
Name: 73, dtype: object

>  <halogenbond:TYR:90>  (74) 
halogenbond:TYR:90    0
halogenbond:TYR:90    0
Name: 73, dtype: object

>  <pication:TYR:90>  (74) 
pication:TYR:90    0
pication:TYR:90    0
Name: 73, dtype: object

>  <hydroph_interaction:PRO:91>  (74) 
hydroph_interaction:PRO:91    0
hydroph_interaction:PRO:91    0
Name: 73, dtype: object

>  <halogenbond:PRO:91>  (74) 
halogenbond:PRO:91    0
halogenbond:PRO:91    0
Name: 73, dtype: object

>  <hbond:PRO:91>  (74) 
hbond:PRO:91    0
hbond:PRO:91    0
Name: 73, dtype: object

>  <hydroph_interaction:ALA:92>  (74) 
hydroph_interaction:ALA:92    0
hydroph_interaction:ALA:92    0
Name: 73, dtype: object

>  <hbond:ARG:93>  (74) 
hbond:ARG:93    0
hbond:ARG:93    0
Name: 73, dtype: object

>  <pication:ARG:93>  (74) 
pication:ARG:93    0
pication:ARG:93    0
Name: 73, dtype: object

>  <saltbridge:ARG:93>  (74) 
saltbridge:ARG:93    0
saltbridge:ARG:93    0
Name: 73, dtype: object

>  <hydroph_interaction:ARG:93>  (74) 
hydroph_interaction:ARG:93    0
hydroph_interaction:ARG:93    0
Name: 73, dtype: object

>  <halogenbond:ARG:93>  (74) 
halogenbond:ARG:93    0
halogenbond:ARG:93    0
Name: 73, dtype: object

>  <hydroph_interaction:TYR:94>  (74) 
hydroph_interaction:TYR:94    0
hydroph_interaction:TYR:94    0
Name: 73, dtype: object

>  <hbond:TYR:94>  (74) 
hbond:TYR:94    0
hbond:TYR:94    0
Name: 73, dtype: object

>  <halogenbond:GLN:95>  (74) 
halogenbond:GLN:95    0
halogenbond:GLN:95    0
Name: 73, dtype: object

>  <hbond:GLN:95>  (74) 
hbond:GLN:95    0
hbond:GLN:95    0
Name: 73, dtype: object

>  <hydroph_interaction:GLN:95>  (74) 
hydroph_interaction:GLN:95    0
hydroph_interaction:GLN:95    0
Name: 73, dtype: object

>  <hbond:SER:96>  (74) 
hbond:SER:96    0
hbond:SER:96    0
Name: 73, dtype: object

>  <hydroph_interaction:LEU:98>  (74) 
hydroph_interaction:LEU:98    0
hydroph_interaction:LEU:98    0
Name: 73, dtype: object

>  <hbond:LEU:98>  (74) 
hbond:LEU:98    0
hbond:LEU:98    0
Name: 73, dtype: object

>  <hbond:MET:99>  (74) 
hbond:MET:99    0
hbond:MET:99    0
Name: 73, dtype: object

>  <hydroph_interaction:MET:99>  (74) 
hydroph_interaction:MET:99    0
hydroph_interaction:MET:99    0
Name: 73, dtype: object

>  <halogenbond:MET:99>  (74) 
halogenbond:MET:99    0
halogenbond:MET:99    0
Name: 73, dtype: object

>  <hydroph_interaction:LEU:100>  (74) 
hydroph_interaction:LEU:100    0
hydroph_interaction:LEU:100    0
Name: 73, dtype: object

>  <hbond:LEU:100>  (74) 
hbond:LEU:100    0
hbond:LEU:100    0
Name: 73, dtype: object

>  <hbond:ALA:101>  (74) 
hbond:ALA:101    0
hbond:ALA:101    0
Name: 73, dtype: object

>  <hydroph_interaction:ALA:101>  (74) 
hydroph_interaction:ALA:101    0
hydroph_interaction:ALA:101    0
Name: 73, dtype: object

>  <hydroph_interaction:VAL:102>  (74) 
hydroph_interaction:VAL:102    0
hydroph_interaction:VAL:102    0
Name: 73, dtype: object

>  <hbond:VAL:102>  (74) 
hbond:VAL:102    0
hbond:VAL:102    0
Name: 73, dtype: object

>  <hbond:GLY:103>  (74) 
hbond:GLY:103    0
hbond:GLY:103    0
Name: 73, dtype: object

>  <halogenbond:GLY:103>  (74) 
halogenbond:GLY:103    0
halogenbond:GLY:103    0
Name: 73, dtype: object

>  <hydroph_interaction:HIS:104>  (74) 
hydroph_interaction:HIS:104    0
hydroph_interaction:HIS:104    0
Name: 73, dtype: object

>  <hbond:HIS:104>  (74) 
hbond:HIS:104    0
hbond:HIS:104    0
Name: 73, dtype: object

>  <saltbridge:HIS:104>  (74) 
saltbridge:HIS:104    0
saltbridge:HIS:104    0
Name: 73, dtype: object

>  <pication:HIS:104>  (74) 
pication:HIS:104    0
pication:HIS:104    0
Name: 73, dtype: object

>  <pistack:HIS:104>  (74) 
pistack:HIS:104    0
pistack:HIS:104    0
Name: 73, dtype: object

>  <halogenbond:HIS:104>  (74) 
halogenbond:HIS:104    0
halogenbond:HIS:104    0
Name: 73, dtype: object

>  <hbond:SER:105>  (74) 
hbond:SER:105    0
hbond:SER:105    0
Name: 73, dtype: object

>  <halogenbond:SER:105>  (74) 
halogenbond:SER:105    0
halogenbond:SER:105    0
Name: 73, dtype: object

>  <hbond:GLU:106>  (74) 
hbond:GLU:106    0
hbond:GLU:106    0
Name: 73, dtype: object

>  <hydroph_interaction:GLU:106>  (74) 
hydroph_interaction:GLU:106    0
hydroph_interaction:GLU:106    0
Name: 73, dtype: object

>  <saltbridge:GLU:106>  (74) 
saltbridge:GLU:106    0
saltbridge:GLU:106    0
Name: 73, dtype: object

>  <halogenbond:GLU:106>  (74) 
halogenbond:GLU:106    0
halogenbond:GLU:106    0
Name: 73, dtype: object

>  <hydroph_interaction:PRO:107>  (74) 
hydroph_interaction:PRO:107    0
hydroph_interaction:PRO:107    0
Name: 73, dtype: object

>  <hbond:PRO:107>  (74) 
hbond:PRO:107    0
hbond:PRO:107    0
Name: 73, dtype: object

>  <halogenbond:PRO:107>  (74) 
halogenbond:PRO:107    0
halogenbond:PRO:107    0
Name: 73, dtype: object

>  <hbond:GLY:108>  (74) 
hbond:GLY:108    0
hbond:GLY:108    0
Name: 73, dtype: object

>  <halogenbond:GLY:108>  (74) 
halogenbond:GLY:108    0
halogenbond:GLY:108    0
Name: 73, dtype: object

>  <hbond:ASP:109>  (74) 
hbond:ASP:109    0
hbond:ASP:109    0
Name: 73, dtype: object

>  <hydroph_interaction:ASP:109>  (74) 
hydroph_interaction:ASP:109    0
hydroph_interaction:ASP:109    0
Name: 73, dtype: object

>  <saltbridge:ASP:109>  (74) 
saltbridge:ASP:109    0
saltbridge:ASP:109    0
Name: 73, dtype: object

>  <hbond:CYS:110>  (74) 
hbond:CYS:110    0
hbond:CYS:110    0
Name: 73, dtype: object

>  <halogenbond:CYS:110>  (74) 
halogenbond:CYS:110    0
halogenbond:CYS:110    0
Name: 73, dtype: object

>  <hbond:GLY:111>  (74) 
hbond:GLY:111    0
hbond:GLY:111    0
Name: 73, dtype: object

>  <hbond:GLY:112>  (74) 
hbond:GLY:112    0
hbond:GLY:112    0
Name: 73, dtype: object

>  <hbond:ILE:113>  (74) 
hbond:ILE:113    0
hbond:ILE:113    0
Name: 73, dtype: object

>  <hydroph_interaction:LEU:114>  (74) 
hydroph_interaction:LEU:114    0
hydroph_interaction:LEU:114    0
Name: 73, dtype: object

>  <hbond:LEU:114>  (74) 
hbond:LEU:114    0
hbond:LEU:114    0
Name: 73, dtype: object

>  <hydroph_interaction:ILE:123>  (74) 
hydroph_interaction:ILE:123    0
hydroph_interaction:ILE:123    0
Name: 73, dtype: object

>  <hbond:ILE:123>  (74) 
hbond:ILE:123    0
hbond:ILE:123    0
Name: 73, dtype: object

>  <hydroph_interaction:VAL:124>  (74) 
hydroph_interaction:VAL:124    1
hydroph_interaction:VAL:124    1
Name: 73, dtype: object

>  <hbond:VAL:124>  (74) 
hbond:VAL:124    0
hbond:VAL:124    0
Name: 73, dtype: object

>  <halogenbond:VAL:124>  (74) 
halogenbond:VAL:124    0
halogenbond:VAL:124    0
Name: 73, dtype: object

>  <hbond:SER:125>  (74) 
hbond:SER:125    0
hbond:SER:125    0
Name: 73, dtype: object

>  <halogenbond:SER:125>  (74) 
halogenbond:SER:125    0
halogenbond:SER:125    0
Name: 73, dtype: object

>  <hydroph_interaction:THR:126>  (74) 
hydroph_interaction:THR:126    0
hydroph_interaction:THR:126    0
Name: 73, dtype: object

>  <hbond:THR:126>  (74) 
hbond:THR:126    0
hbond:THR:126    0
Name: 73, dtype: object

>  <halogenbond:THR:126>  (74) 
halogenbond:THR:126    0
halogenbond:THR:126    0
Name: 73, dtype: object

>  <hbond:GLY:127>  (74) 
hbond:GLY:127    0
hbond:GLY:127    0
Name: 73, dtype: object

>  <halogenbond:GLY:127>  (74) 
halogenbond:GLY:127    0
halogenbond:GLY:127    0
Name: 73, dtype: object

>  <hydroph_interaction:GLY:127>  (74) 
hydroph_interaction:GLY:127    0
hydroph_interaction:GLY:127    0
Name: 73, dtype: object

>  <hbond:GLY:128>  (74) 
hbond:GLY:128    0
hbond:GLY:128    0
Name: 73, dtype: object

>  <halogenbond:GLY:128>  (74) 
halogenbond:GLY:128    0
halogenbond:GLY:128    0
Name: 73, dtype: object

>  <hydroph_interaction:GLY:128>  (74) 
hydroph_interaction:GLY:128    0
hydroph_interaction:GLY:128    0
Name: 73, dtype: object

>  <hbond:ASN:129>  (74) 
hbond:ASN:129    0
hbond:ASN:129    0
Name: 73, dtype: object

>  <hydroph_interaction:ASN:129>  (74) 
hydroph_interaction:ASN:129    0
hydroph_interaction:ASN:129    0
Name: 73, dtype: object

>  <halogenbond:ASN:129>  (74) 
halogenbond:ASN:129    0
halogenbond:ASN:129    0
Name: 73, dtype: object

>  <hbond:GLY:130>  (74) 
hbond:GLY:130    0
hbond:GLY:130    0
Name: 73, dtype: object

>  <hydroph_interaction:LEU:131>  (74) 
hydroph_interaction:LEU:131    0
hydroph_interaction:LEU:131    0
Name: 73, dtype: object

>  <hbond:LEU:131>  (74) 
hbond:LEU:131    0
hbond:LEU:131    0
Name: 73, dtype: object

>  <halogenbond:LEU:131>  (74) 
halogenbond:LEU:131    0
halogenbond:LEU:131    0
Name: 73, dtype: object

>  <hydroph_interaction:VAL:132>  (74) 
hydroph_interaction:VAL:132    0
hydroph_interaction:VAL:132    0
Name: 73, dtype: object

>  <hbond:VAL:132>  (74) 
hbond:VAL:132    0
hbond:VAL:132    0
Name: 73, dtype: object

>  <hbond:GLY:133>  (74) 
hbond:GLY:133    0
hbond:GLY:133    0
Name: 73, dtype: object

>  <halogenbond:GLY:133>  (74) 
halogenbond:GLY:133    0
halogenbond:GLY:133    0
Name: 73, dtype: object

>  <hydroph_interaction:PHE:134>  (74) 
hydroph_interaction:PHE:134    0
hydroph_interaction:PHE:134    0
Name: 73, dtype: object

>  <hbond:PHE:134>  (74) 
hbond:PHE:134    0
hbond:PHE:134    0
Name: 73, dtype: object

>  <pistack:PHE:134>  (74) 
pistack:PHE:134    0
pistack:PHE:134    0
Name: 73, dtype: object

>  <pication:PHE:134>  (74) 
pication:PHE:134    0
pication:PHE:134    0
Name: 73, dtype: object

>  <hydroph_interaction:ALA:135>  (74) 
hydroph_interaction:ALA:135    0
hydroph_interaction:ALA:135    0
Name: 73, dtype: object

>  <hbond:ALA:135>  (74) 
hbond:ALA:135    0
hbond:ALA:135    0
Name: 73, dtype: object

$$$$
PV_003685348047
     RDKit          3D

 31 32  0  0  0  0  0  0  0  0999 V2000
   12.1610   15.2320   21.9740 C   0  0  0  0  0  0  0  0  0  0  0  0
   11.4700   14.1720   22.7960 C   0  0  0  0  0  0  0  0  0  0  0  0
   11.9570   14.1590   24.2260 C   0  0  0  0  0  0  0  0  0  0  0  0
   10.5340   13.3220   22.3660 C   0  0  0  0  0  0  0  0  0  0  0  0
    9.8480   12.3040   23.0380 C   0  0  0  0  0  0  0  0  0  0  0  0
    8.8440   12.5420   23.9510 C   0  0  0  0  0  0  0  0  0  0  0  0
    8.3750   13.7480   24.3450 O   0  0  0  0  0  0  0  0  0  0  0  0
    7.3830   13.5050   25.2470 C   0  0  0  0  0  0  0  0  0  0  0  0
    6.6620   14.6660   25.8750 C   0  0  0  0  0  0  0  0  0  0  0  0
    7.0460   15.8180   25.7350 O   0  0  0  0  0  0  0  0  0  0  0  0
    5.5760   14.3400   26.6060 O   0  0  0  0  0  0  0  0  0  0  0  0
    7.2210   12.1390   25.4220 C   0  0  0  0  0  0  0  0  0  0  0  0
    6.2080   11.4470   26.3320 C   0  0  0  0  0  0  0  0  0  0  0  0
    8.1580   11.5220   24.6040 C   0  0  0  0  0  0  0  0  0  0  0  0
    8.4820   10.1940   24.3570 C   0  0  0  0  0  0  0  0  0  0  0  0
    9.4460    9.8980   23.4870 C   0  0  0  0  0  0  0  0  0  0  0  0
   10.1670   10.9750   22.7850 C   0  0  0  0  0  0  0  0  0  0  0  0
   12.3920   16.1130   22.5810 H   0  0  0  0  0  0  0  0  0  0  0  0
   13.1010   14.8340   21.5870 H   0  0  0  0  0  0  0  0  0  0  0  0
   11.5170   15.5170   21.1390 H   0  0  0  0  0  0  0  0  0  0  0  0
   11.1530   13.9290   24.9240 H   0  0  0  0  0  0  0  0  0  0  0  0
   12.3860   15.1300   24.5030 H   0  0  0  0  0  0  0  0  0  0  0  0
   12.7490   13.4050   24.3260 H   0  0  0  0  0  0  0  0  0  0  0  0
   10.2180   13.3950   21.3280 H   0  0  0  0  0  0  0  0  0  0  0  0
    4.8290   14.5800   26.0170 H   0  0  0  0  0  0  0  0  0  0  0  0
    6.1330   10.3820   26.0900 H   0  0  0  0  0  0  0  0  0  0  0  0
    5.2180   11.9010   26.2380 H   0  0  0  0  0  0  0  0  0  0  0  0
    6.5390   11.5520   27.3740 H   0  0  0  0  0  0  0  0  0  0  0  0
    7.9540    9.4030   24.8630 H   0  0  0  0  0  0  0  0  0  0  0  0
    9.7070    8.8720   23.2850 H   0  0  0  0  0  0  0  0  0  0  0  0
   10.9360   10.7210   22.0790 H   0  0  0  0  0  0  0  0  0  0  0  0
  1  2  1  0
  2  3  1  0
  2  4  2  3
  4  5  1  0
  5  6  2  0
  6  7  1  0
  7  8  1  0
  8  9  1  0
  9 10  2  0
  9 11  1  0
  8 12  2  0
 12 13  1  0
 12 14  1  0
 14 15  2  0
 15 16  1  0
 16 17  2  0
 17  5  1  0
 14  6  1  0
  1 18  1  0
  1 19  1  0
  1 20  1  0
  3 21  1  0
  3 22  1  0
  3 23  1  0
  4 24  1  0
 11 25  1  0
 13 26  1  0
 13 27  1  0
 13 28  1  0
 15 29  1  0
 16 30  1  0
 17 31  1  0
A    1
 C1 
A    2
 C2 
A    3
 C3 
A    4
 C4 
A    5
 C5 
A    6
 C6 
A    7
 O1 
A    8
 C7 
A    9
 C8 
A   10
 O2 
A   11
 O3 
A   12
 C9 
A   13
 C10
A   14
 C11
A   15
 C12
A   16
 C13
A   17
 C14
A   18
 H1 
A   19
 H2 
A   20
 H3 
A   21
 H4 
A   22
 H5 
A   23
 H6 
A   24
 H7 
A   25
 H8 
A   26
 H9 
A   27
 H10
A   28
 H11
A   29
 H12
A   30
 H13
A   31
 H14
M  END
>  <ref_pdb>  (75) 
x0310_0A

>  <ref_mols>  (75) 
x0554_0A,x0416_0A,x0446_0A

>  <original SMILES>  (75) 
CC(C)=Cc1cccc2c(C)c(C(=O)O)oc12

>  <rationale>  (75) 
info hydroph_interaction:P107; 

>  <intxn_cluster>  (75) 
208

>  <intxn_cluster_rank>  (75) 
444

>  <N_interactions>  (75) 
1

>  <∆∆G>  (75) 
-10.835201

>  <$/mg>  (75) 
nan

>  <comRMSD>  (75) 
0.887745

>  <N_rotatable_bonds>  (75) 
5

>  <hbond:SER:7>  (75) 
hbond:SER:7    0
hbond:SER:7    0
Name: 74, dtype: object

>  <halogenbond:SER:7>  (75) 
halogenbond:SER:7    0
halogenbond:SER:7    0
Name: 74, dtype: object

>  <hbond:GLY:8>  (75) 
hbond:GLY:8    0
hbond:GLY:8    0
Name: 74, dtype: object

>  <hydroph_interaction:ASN:19>  (75) 
hydroph_interaction:ASN:19    0
hydroph_interaction:ASN:19    0
Name: 74, dtype: object

>  <hbond:ASN:19>  (75) 
hbond:ASN:19    0
hbond:ASN:19    0
Name: 74, dtype: object

>  <halogenbond:ASN:19>  (75) 
halogenbond:ASN:19    0
halogenbond:ASN:19    0
Name: 74, dtype: object

>  <hbond:ARG:20>  (75) 
hbond:ARG:20    0
hbond:ARG:20    0
Name: 74, dtype: object

>  <hydroph_interaction:ARG:20>  (75) 
hydroph_interaction:ARG:20    0
hydroph_interaction:ARG:20    0
Name: 74, dtype: object

>  <saltbridge:ARG:20>  (75) 
saltbridge:ARG:20    0
saltbridge:ARG:20    0
Name: 74, dtype: object

>  <halogenbond:ARG:20>  (75) 
halogenbond:ARG:20    0
halogenbond:ARG:20    0
Name: 74, dtype: object

>  <pication:ARG:20>  (75) 
pication:ARG:20    0
pication:ARG:20    0
Name: 74, dtype: object

>  <hbond:HIS:21>  (75) 
hbond:HIS:21    0
hbond:HIS:21    0
Name: 74, dtype: object

>  <hydroph_interaction:HIS:21>  (75) 
hydroph_interaction:HIS:21    0
hydroph_interaction:HIS:21    0
Name: 74, dtype: object

>  <saltbridge:HIS:21>  (75) 
saltbridge:HIS:21    0
saltbridge:HIS:21    0
Name: 74, dtype: object

>  <pistack:HIS:21>  (75) 
pistack:HIS:21    0
pistack:HIS:21    0
Name: 74, dtype: object

>  <pication:HIS:21>  (75) 
pication:HIS:21    0
pication:HIS:21    0
Name: 74, dtype: object

>  <halogenbond:HIS:21>  (75) 
halogenbond:HIS:21    0
halogenbond:HIS:21    0
Name: 74, dtype: object

>  <hydroph_interaction:LEU:22>  (75) 
hydroph_interaction:LEU:22    0
hydroph_interaction:LEU:22    0
Name: 74, dtype: object

>  <hbond:LEU:22>  (75) 
hbond:LEU:22    0
hbond:LEU:22    0
Name: 74, dtype: object

>  <hydroph_interaction:TRP:28>  (75) 
hydroph_interaction:TRP:28    0
hydroph_interaction:TRP:28    0
Name: 74, dtype: object

>  <hbond:SER:36>  (75) 
hbond:SER:36    0
hbond:SER:36    0
Name: 74, dtype: object

>  <halogenbond:SER:36>  (75) 
halogenbond:SER:36    0
halogenbond:SER:36    0
Name: 74, dtype: object

>  <hbond:ARG:38>  (75) 
hbond:ARG:38    0
hbond:ARG:38    0
Name: 74, dtype: object

>  <halogenbond:ARG:38>  (75) 
halogenbond:ARG:38    0
halogenbond:ARG:38    0
Name: 74, dtype: object

>  <hbond:ASP:39>  (75) 
hbond:ASP:39    0
hbond:ASP:39    0
Name: 74, dtype: object

>  <saltbridge:ASP:39>  (75) 
saltbridge:ASP:39    0
saltbridge:ASP:39    0
Name: 74, dtype: object

>  <hydroph_interaction:ASP:39>  (75) 
hydroph_interaction:ASP:39    0
hydroph_interaction:ASP:39    0
Name: 74, dtype: object

>  <halogenbond:ASP:39>  (75) 
halogenbond:ASP:39    0
halogenbond:ASP:39    0
Name: 74, dtype: object

>  <hydroph_interaction:LEU:40>  (75) 
hydroph_interaction:LEU:40    0
hydroph_interaction:LEU:40    0
Name: 74, dtype: object

>  <hydroph_interaction:TYR:63>  (75) 
hydroph_interaction:TYR:63    0
hydroph_interaction:TYR:63    0
Name: 74, dtype: object

>  <pistack:TYR:63>  (75) 
pistack:TYR:63    0
pistack:TYR:63    0
Name: 74, dtype: object

>  <hbond:TYR:63>  (75) 
hbond:TYR:63    0
hbond:TYR:63    0
Name: 74, dtype: object

>  <hbond:TYR:64>  (75) 
hbond:TYR:64    0
hbond:TYR:64    0
Name: 74, dtype: object

>  <halogenbond:TYR:64>  (75) 
halogenbond:TYR:64    0
halogenbond:TYR:64    0
Name: 74, dtype: object

>  <hydroph_interaction:TYR:64>  (75) 
hydroph_interaction:TYR:64    0
hydroph_interaction:TYR:64    0
Name: 74, dtype: object

>  <hbond:CYS:65>  (75) 
hbond:CYS:65    0
hbond:CYS:65    0
Name: 74, dtype: object

>  <halogenbond:CYS:65>  (75) 
halogenbond:CYS:65    0
halogenbond:CYS:65    0
Name: 74, dtype: object

>  <hbond:SER:66>  (75) 
hbond:SER:66    0
hbond:SER:66    0
Name: 74, dtype: object

>  <hbond:SER:67>  (75) 
hbond:SER:67    0
hbond:SER:67    0
Name: 74, dtype: object

>  <halogenbond:SER:67>  (75) 
halogenbond:SER:67    0
halogenbond:SER:67    0
Name: 74, dtype: object

>  <hydroph_interaction:ARG:68>  (75) 
hydroph_interaction:ARG:68    0
hydroph_interaction:ARG:68    0
Name: 74, dtype: object

>  <hbond:ARG:68>  (75) 
hbond:ARG:68    0
hbond:ARG:68    0
Name: 74, dtype: object

>  <saltbridge:ARG:68>  (75) 
saltbridge:ARG:68    0
saltbridge:ARG:68    0
Name: 74, dtype: object

>  <pication:ARG:68>  (75) 
pication:ARG:68    0
pication:ARG:68    0
Name: 74, dtype: object

>  <hydroph_interaction:TYR:72>  (75) 
hydroph_interaction:TYR:72    0
hydroph_interaction:TYR:72    0
Name: 74, dtype: object

>  <hydroph_interaction:VAL:74>  (75) 
hydroph_interaction:VAL:74    0
hydroph_interaction:VAL:74    0
Name: 74, dtype: object

>  <hydroph_interaction:PHE:76>  (75) 
hydroph_interaction:PHE:76    0
hydroph_interaction:PHE:76    0
Name: 74, dtype: object

>  <hbond:SER:77>  (75) 
hbond:SER:77    0
hbond:SER:77    0
Name: 74, dtype: object

>  <hbond:SER:80>  (75) 
hbond:SER:80    0
hbond:SER:80    0
Name: 74, dtype: object

>  <hbond:LEU:81>  (75) 
hbond:LEU:81    0
hbond:LEU:81    0
Name: 74, dtype: object

>  <halogenbond:LEU:81>  (75) 
halogenbond:LEU:81    0
halogenbond:LEU:81    0
Name: 74, dtype: object

>  <hydroph_interaction:LEU:81>  (75) 
hydroph_interaction:LEU:81    0
hydroph_interaction:LEU:81    0
Name: 74, dtype: object

>  <hydroph_interaction:ILE:82>  (75) 
hydroph_interaction:ILE:82    0
hydroph_interaction:ILE:82    0
Name: 74, dtype: object

>  <hbond:ILE:82>  (75) 
hbond:ILE:82    0
hbond:ILE:82    0
Name: 74, dtype: object

>  <hydroph_interaction:PHE:83>  (75) 
hydroph_interaction:PHE:83    0
hydroph_interaction:PHE:83    0
Name: 74, dtype: object

>  <hbond:PHE:83>  (75) 
hbond:PHE:83    0
hbond:PHE:83    0
Name: 74, dtype: object

>  <halogenbond:PHE:83>  (75) 
halogenbond:PHE:83    0
halogenbond:PHE:83    0
Name: 74, dtype: object

>  <pistack:PHE:83>  (75) 
pistack:PHE:83    0
pistack:PHE:83    0
Name: 74, dtype: object

>  <hydroph_interaction:VAL:84>  (75) 
hydroph_interaction:VAL:84    0
hydroph_interaction:VAL:84    0
Name: 74, dtype: object

>  <hbond:VAL:84>  (75) 
hbond:VAL:84    0
hbond:VAL:84    0
Name: 74, dtype: object

>  <halogenbond:VAL:84>  (75) 
halogenbond:VAL:84    0
halogenbond:VAL:84    0
Name: 74, dtype: object

>  <hydroph_interaction:GLU:85>  (75) 
hydroph_interaction:GLU:85    0
hydroph_interaction:GLU:85    0
Name: 74, dtype: object

>  <hbond:GLU:85>  (75) 
hbond:GLU:85    0
hbond:GLU:85    0
Name: 74, dtype: object

>  <saltbridge:GLU:85>  (75) 
saltbridge:GLU:85    0
saltbridge:GLU:85    0
Name: 74, dtype: object

>  <halogenbond:GLU:85>  (75) 
halogenbond:GLU:85    0
halogenbond:GLU:85    0
Name: 74, dtype: object

>  <hbond:ALA:86>  (75) 
hbond:ALA:86    0
hbond:ALA:86    0
Name: 74, dtype: object

>  <halogenbond:ALA:86>  (75) 
halogenbond:ALA:86    0
halogenbond:ALA:86    0
Name: 74, dtype: object

>  <hydroph_interaction:ALA:86>  (75) 
hydroph_interaction:ALA:86    0
hydroph_interaction:ALA:86    0
Name: 74, dtype: object

>  <hbond:SER:87>  (75) 
hbond:SER:87    0
hbond:SER:87    0
Name: 74, dtype: object

>  <halogenbond:SER:87>  (75) 
halogenbond:SER:87    0
halogenbond:SER:87    0
Name: 74, dtype: object

>  <hbond:GLU:88>  (75) 
hbond:GLU:88    0
hbond:GLU:88    0
Name: 74, dtype: object

>  <hydroph_interaction:GLU:88>  (75) 
hydroph_interaction:GLU:88    0
hydroph_interaction:GLU:88    0
Name: 74, dtype: object

>  <halogenbond:GLU:88>  (75) 
halogenbond:GLU:88    0
halogenbond:GLU:88    0
Name: 74, dtype: object

>  <saltbridge:GLU:88>  (75) 
saltbridge:GLU:88    0
saltbridge:GLU:88    0
Name: 74, dtype: object

>  <hydroph_interaction:TYR:89>  (75) 
hydroph_interaction:TYR:89    0
hydroph_interaction:TYR:89    0
Name: 74, dtype: object

>  <pistack:TYR:89>  (75) 
pistack:TYR:89    0
pistack:TYR:89    0
Name: 74, dtype: object

>  <hbond:TYR:89>  (75) 
hbond:TYR:89    0
hbond:TYR:89    0
Name: 74, dtype: object

>  <halogenbond:TYR:89>  (75) 
halogenbond:TYR:89    0
halogenbond:TYR:89    0
Name: 74, dtype: object

>  <hbond:TYR:90>  (75) 
hbond:TYR:90    0
hbond:TYR:90    0
Name: 74, dtype: object

>  <hydroph_interaction:TYR:90>  (75) 
hydroph_interaction:TYR:90    0
hydroph_interaction:TYR:90    0
Name: 74, dtype: object

>  <pistack:TYR:90>  (75) 
pistack:TYR:90    0
pistack:TYR:90    0
Name: 74, dtype: object

>  <halogenbond:TYR:90>  (75) 
halogenbond:TYR:90    0
halogenbond:TYR:90    0
Name: 74, dtype: object

>  <pication:TYR:90>  (75) 
pication:TYR:90    0
pication:TYR:90    0
Name: 74, dtype: object

>  <hydroph_interaction:PRO:91>  (75) 
hydroph_interaction:PRO:91    0
hydroph_interaction:PRO:91    0
Name: 74, dtype: object

>  <halogenbond:PRO:91>  (75) 
halogenbond:PRO:91    0
halogenbond:PRO:91    0
Name: 74, dtype: object

>  <hbond:PRO:91>  (75) 
hbond:PRO:91    0
hbond:PRO:91    0
Name: 74, dtype: object

>  <hydroph_interaction:ALA:92>  (75) 
hydroph_interaction:ALA:92    0
hydroph_interaction:ALA:92    0
Name: 74, dtype: object

>  <hbond:ARG:93>  (75) 
hbond:ARG:93    0
hbond:ARG:93    0
Name: 74, dtype: object

>  <pication:ARG:93>  (75) 
pication:ARG:93    0
pication:ARG:93    0
Name: 74, dtype: object

>  <saltbridge:ARG:93>  (75) 
saltbridge:ARG:93    0
saltbridge:ARG:93    0
Name: 74, dtype: object

>  <hydroph_interaction:ARG:93>  (75) 
hydroph_interaction:ARG:93    0
hydroph_interaction:ARG:93    0
Name: 74, dtype: object

>  <halogenbond:ARG:93>  (75) 
halogenbond:ARG:93    0
halogenbond:ARG:93    0
Name: 74, dtype: object

>  <hydroph_interaction:TYR:94>  (75) 
hydroph_interaction:TYR:94    0
hydroph_interaction:TYR:94    0
Name: 74, dtype: object

>  <hbond:TYR:94>  (75) 
hbond:TYR:94    0
hbond:TYR:94    0
Name: 74, dtype: object

>  <halogenbond:GLN:95>  (75) 
halogenbond:GLN:95    0
halogenbond:GLN:95    0
Name: 74, dtype: object

>  <hbond:GLN:95>  (75) 
hbond:GLN:95    0
hbond:GLN:95    0
Name: 74, dtype: object

>  <hydroph_interaction:GLN:95>  (75) 
hydroph_interaction:GLN:95    0
hydroph_interaction:GLN:95    0
Name: 74, dtype: object

>  <hbond:SER:96>  (75) 
hbond:SER:96    0
hbond:SER:96    0
Name: 74, dtype: object

>  <hydroph_interaction:LEU:98>  (75) 
hydroph_interaction:LEU:98    0
hydroph_interaction:LEU:98    0
Name: 74, dtype: object

>  <hbond:LEU:98>  (75) 
hbond:LEU:98    0
hbond:LEU:98    0
Name: 74, dtype: object

>  <hbond:MET:99>  (75) 
hbond:MET:99    0
hbond:MET:99    0
Name: 74, dtype: object

>  <hydroph_interaction:MET:99>  (75) 
hydroph_interaction:MET:99    0
hydroph_interaction:MET:99    0
Name: 74, dtype: object

>  <halogenbond:MET:99>  (75) 
halogenbond:MET:99    0
halogenbond:MET:99    0
Name: 74, dtype: object

>  <hydroph_interaction:LEU:100>  (75) 
hydroph_interaction:LEU:100    0
hydroph_interaction:LEU:100    0
Name: 74, dtype: object

>  <hbond:LEU:100>  (75) 
hbond:LEU:100    0
hbond:LEU:100    0
Name: 74, dtype: object

>  <hbond:ALA:101>  (75) 
hbond:ALA:101    0
hbond:ALA:101    0
Name: 74, dtype: object

>  <hydroph_interaction:ALA:101>  (75) 
hydroph_interaction:ALA:101    0
hydroph_interaction:ALA:101    0
Name: 74, dtype: object

>  <hydroph_interaction:VAL:102>  (75) 
hydroph_interaction:VAL:102    0
hydroph_interaction:VAL:102    0
Name: 74, dtype: object

>  <hbond:VAL:102>  (75) 
hbond:VAL:102    0
hbond:VAL:102    0
Name: 74, dtype: object

>  <hbond:GLY:103>  (75) 
hbond:GLY:103    0
hbond:GLY:103    0
Name: 74, dtype: object

>  <halogenbond:GLY:103>  (75) 
halogenbond:GLY:103    0
halogenbond:GLY:103    0
Name: 74, dtype: object

>  <hydroph_interaction:HIS:104>  (75) 
hydroph_interaction:HIS:104    0
hydroph_interaction:HIS:104    0
Name: 74, dtype: object

>  <hbond:HIS:104>  (75) 
hbond:HIS:104    0
hbond:HIS:104    0
Name: 74, dtype: object

>  <saltbridge:HIS:104>  (75) 
saltbridge:HIS:104    0
saltbridge:HIS:104    0
Name: 74, dtype: object

>  <pication:HIS:104>  (75) 
pication:HIS:104    0
pication:HIS:104    0
Name: 74, dtype: object

>  <pistack:HIS:104>  (75) 
pistack:HIS:104    0
pistack:HIS:104    0
Name: 74, dtype: object

>  <halogenbond:HIS:104>  (75) 
halogenbond:HIS:104    0
halogenbond:HIS:104    0
Name: 74, dtype: object

>  <hbond:SER:105>  (75) 
hbond:SER:105    0
hbond:SER:105    0
Name: 74, dtype: object

>  <halogenbond:SER:105>  (75) 
halogenbond:SER:105    0
halogenbond:SER:105    0
Name: 74, dtype: object

>  <hbond:GLU:106>  (75) 
hbond:GLU:106    0
hbond:GLU:106    0
Name: 74, dtype: object

>  <hydroph_interaction:GLU:106>  (75) 
hydroph_interaction:GLU:106    0
hydroph_interaction:GLU:106    0
Name: 74, dtype: object

>  <saltbridge:GLU:106>  (75) 
saltbridge:GLU:106    0
saltbridge:GLU:106    0
Name: 74, dtype: object

>  <halogenbond:GLU:106>  (75) 
halogenbond:GLU:106    0
halogenbond:GLU:106    0
Name: 74, dtype: object

>  <hydroph_interaction:PRO:107>  (75) 
hydroph_interaction:PRO:107    1
hydroph_interaction:PRO:107    1
Name: 74, dtype: object

>  <hbond:PRO:107>  (75) 
hbond:PRO:107    0
hbond:PRO:107    0
Name: 74, dtype: object

>  <halogenbond:PRO:107>  (75) 
halogenbond:PRO:107    0
halogenbond:PRO:107    0
Name: 74, dtype: object

>  <hbond:GLY:108>  (75) 
hbond:GLY:108    0
hbond:GLY:108    0
Name: 74, dtype: object

>  <halogenbond:GLY:108>  (75) 
halogenbond:GLY:108    0
halogenbond:GLY:108    0
Name: 74, dtype: object

>  <hbond:ASP:109>  (75) 
hbond:ASP:109    0
hbond:ASP:109    0
Name: 74, dtype: object

>  <hydroph_interaction:ASP:109>  (75) 
hydroph_interaction:ASP:109    0
hydroph_interaction:ASP:109    0
Name: 74, dtype: object

>  <saltbridge:ASP:109>  (75) 
saltbridge:ASP:109    0
saltbridge:ASP:109    0
Name: 74, dtype: object

>  <hbond:CYS:110>  (75) 
hbond:CYS:110    0
hbond:CYS:110    0
Name: 74, dtype: object

>  <halogenbond:CYS:110>  (75) 
halogenbond:CYS:110    0
halogenbond:CYS:110    0
Name: 74, dtype: object

>  <hbond:GLY:111>  (75) 
hbond:GLY:111    0
hbond:GLY:111    0
Name: 74, dtype: object

>  <hbond:GLY:112>  (75) 
hbond:GLY:112    0
hbond:GLY:112    0
Name: 74, dtype: object

>  <hbond:ILE:113>  (75) 
hbond:ILE:113    0
hbond:ILE:113    0
Name: 74, dtype: object

>  <hydroph_interaction:LEU:114>  (75) 
hydroph_interaction:LEU:114    0
hydroph_interaction:LEU:114    0
Name: 74, dtype: object

>  <hbond:LEU:114>  (75) 
hbond:LEU:114    0
hbond:LEU:114    0
Name: 74, dtype: object

>  <hydroph_interaction:ILE:123>  (75) 
hydroph_interaction:ILE:123    0
hydroph_interaction:ILE:123    0
Name: 74, dtype: object

>  <hbond:ILE:123>  (75) 
hbond:ILE:123    0
hbond:ILE:123    0
Name: 74, dtype: object

>  <hydroph_interaction:VAL:124>  (75) 
hydroph_interaction:VAL:124    0
hydroph_interaction:VAL:124    0
Name: 74, dtype: object

>  <hbond:VAL:124>  (75) 
hbond:VAL:124    0
hbond:VAL:124    0
Name: 74, dtype: object

>  <halogenbond:VAL:124>  (75) 
halogenbond:VAL:124    0
halogenbond:VAL:124    0
Name: 74, dtype: object

>  <hbond:SER:125>  (75) 
hbond:SER:125    0
hbond:SER:125    0
Name: 74, dtype: object

>  <halogenbond:SER:125>  (75) 
halogenbond:SER:125    0
halogenbond:SER:125    0
Name: 74, dtype: object

>  <hydroph_interaction:THR:126>  (75) 
hydroph_interaction:THR:126    0
hydroph_interaction:THR:126    0
Name: 74, dtype: object

>  <hbond:THR:126>  (75) 
hbond:THR:126    0
hbond:THR:126    0
Name: 74, dtype: object

>  <halogenbond:THR:126>  (75) 
halogenbond:THR:126    0
halogenbond:THR:126    0
Name: 74, dtype: object

>  <hbond:GLY:127>  (75) 
hbond:GLY:127    0
hbond:GLY:127    0
Name: 74, dtype: object

>  <halogenbond:GLY:127>  (75) 
halogenbond:GLY:127    0
halogenbond:GLY:127    0
Name: 74, dtype: object

>  <hydroph_interaction:GLY:127>  (75) 
hydroph_interaction:GLY:127    0
hydroph_interaction:GLY:127    0
Name: 74, dtype: object

>  <hbond:GLY:128>  (75) 
hbond:GLY:128    0
hbond:GLY:128    0
Name: 74, dtype: object

>  <halogenbond:GLY:128>  (75) 
halogenbond:GLY:128    0
halogenbond:GLY:128    0
Name: 74, dtype: object

>  <hydroph_interaction:GLY:128>  (75) 
hydroph_interaction:GLY:128    0
hydroph_interaction:GLY:128    0
Name: 74, dtype: object

>  <hbond:ASN:129>  (75) 
hbond:ASN:129    0
hbond:ASN:129    0
Name: 74, dtype: object

>  <hydroph_interaction:ASN:129>  (75) 
hydroph_interaction:ASN:129    0
hydroph_interaction:ASN:129    0
Name: 74, dtype: object

>  <halogenbond:ASN:129>  (75) 
halogenbond:ASN:129    0
halogenbond:ASN:129    0
Name: 74, dtype: object

>  <hbond:GLY:130>  (75) 
hbond:GLY:130    0
hbond:GLY:130    0
Name: 74, dtype: object

>  <hydroph_interaction:LEU:131>  (75) 
hydroph_interaction:LEU:131    0
hydroph_interaction:LEU:131    0
Name: 74, dtype: object

>  <hbond:LEU:131>  (75) 
hbond:LEU:131    0
hbond:LEU:131    0
Name: 74, dtype: object

>  <halogenbond:LEU:131>  (75) 
halogenbond:LEU:131    0
halogenbond:LEU:131    0
Name: 74, dtype: object

>  <hydroph_interaction:VAL:132>  (75) 
hydroph_interaction:VAL:132    0
hydroph_interaction:VAL:132    0
Name: 74, dtype: object

>  <hbond:VAL:132>  (75) 
hbond:VAL:132    0
hbond:VAL:132    0
Name: 74, dtype: object

>  <hbond:GLY:133>  (75) 
hbond:GLY:133    0
hbond:GLY:133    0
Name: 74, dtype: object

>  <halogenbond:GLY:133>  (75) 
halogenbond:GLY:133    0
halogenbond:GLY:133    0
Name: 74, dtype: object

>  <hydroph_interaction:PHE:134>  (75) 
hydroph_interaction:PHE:134    0
hydroph_interaction:PHE:134    0
Name: 74, dtype: object

>  <hbond:PHE:134>  (75) 
hbond:PHE:134    0
hbond:PHE:134    0
Name: 74, dtype: object

>  <pistack:PHE:134>  (75) 
pistack:PHE:134    0
pistack:PHE:134    0
Name: 74, dtype: object

>  <pication:PHE:134>  (75) 
pication:PHE:134    0
pication:PHE:134    0
Name: 74, dtype: object

>  <hydroph_interaction:ALA:135>  (75) 
hydroph_interaction:ALA:135    0
hydroph_interaction:ALA:135    0
Name: 74, dtype: object

>  <hbond:ALA:135>  (75) 
hbond:ALA:135    0
hbond:ALA:135    0
Name: 74, dtype: object

$$$$
Z5458077676
     RDKit          3D

 38 39  0  0  0  0  0  0  0  0999 V2000
   10.1060    8.9870   22.5960 C   0  0  0  0  0  0  0  0  0  0  0  0
    9.5750   10.1660   23.3330 C   0  0  0  0  0  0  0  0  0  0  0  0
   10.1610   11.4050   23.1540 C   0  0  0  0  0  0  0  0  0  0  0  0
    9.6850   12.5210   23.8490 C   0  0  0  0  0  0  0  0  0  0  0  0
   10.4190   13.8120   23.6010 C   0  0  0  0  0  0  0  0  0  0  0  0
    8.5870   12.3500   24.7110 C   0  0  0  0  0  0  0  0  0  0  0  0
    7.9880   13.3810   25.4760 N   0  0  0  0  0  0  0  0  0  0  0  0
    7.3820   14.5320   25.0130 C   0  0  0  0  0  0  0  0  0  0  0  0
    7.0030   14.7430   23.8660 O   0  0  0  0  0  0  0  0  0  0  0  0
    7.2260   15.6000   26.0950 C   0  0  0  0  0  0  0  0  0  0  0  0
    6.3910   15.1550   27.2830 C   0  0  0  0  0  0  0  0  0  0  0  0
    6.5940   16.2010   28.3850 C   0  0  0  0  0  0  0  0  0  0  0  0
    7.9940   16.8370   28.2740 C   0  0  0  0  0  0  0  0  0  0  0  0
    7.9550   18.3320   27.9670 C   0  0  0  0  0  0  0  0  0  0  0  0
    8.8170   15.9980   26.8880 S   0  0  0  0  0  0  0  0  0  0  0  0
    8.0480   11.0570   24.8250 C   0  0  0  0  0  0  0  0  0  0  0  0
    6.8700   10.7840   25.7140 C   0  0  0  0  0  0  0  0  0  0  0  0
    8.5320    9.9750   24.1540 N   0  0  0  0  0  0  0  0  0  0  0  0
   10.6990    9.3260   21.7430 H   0  0  0  0  0  0  0  0  0  0  0  0
   10.7450    8.3710   23.2330 H   0  0  0  0  0  0  0  0  0  0  0  0
    9.2880    8.3680   22.2290 H   0  0  0  0  0  0  0  0  0  0  0  0
   11.0000   11.5080   22.4770 H   0  0  0  0  0  0  0  0  0  0  0  0
    9.9940   14.3370   22.7390 H   0  0  0  0  0  0  0  0  0  0  0  0
   11.4760   13.6130   23.3820 H   0  0  0  0  0  0  0  0  0  0  0  0
   10.4200   14.4580   24.4820 H   0  0  0  0  0  0  0  0  0  0  0  0
    7.6530   13.1270   26.3990 H   0  0  0  0  0  0  0  0  0  0  0  0
    6.8250   16.5150   25.6460 H   0  0  0  0  0  0  0  0  0  0  0  0
    6.6790   14.1570   27.6360 H   0  0  0  0  0  0  0  0  0  0  0  0
    5.3330   15.0880   27.0030 H   0  0  0  0  0  0  0  0  0  0  0  0
    6.4960   15.7120   29.3630 H   0  0  0  0  0  0  0  0  0  0  0  0
    5.8100   16.9640   28.3410 H   0  0  0  0  0  0  0  0  0  0  0  0
    8.5650   16.6710   29.1930 H   0  0  0  0  0  0  0  0  0  0  0  0
    8.9610   18.7160   27.7590 H   0  0  0  0  0  0  0  0  0  0  0  0
    7.5680   18.8850   28.8300 H   0  0  0  0  0  0  0  0  0  0  0  0
    7.3180   18.5720   27.1090 H   0  0  0  0  0  0  0  0  0  0  0  0
    7.1700   10.6340   26.7470 H   0  0  0  0  0  0  0  0  0  0  0  0
    6.3450    9.8860   25.3900 H   0  0  0  0  0  0  0  0  0  0  0  0
    6.1590   11.6150   25.6580 H   0  0  0  0  0  0  0  0  0  0  0  0
  1  2  1  0
  2  3  2  0
  3  4  1  0
  4  5  1  0
  4  6  2  0
  6  7  1  0
  7  8  1  0
  8  9  2  0
  8 10  1  0
 10 11  1  0
 11 12  1  0
 12 13  1  0
 13 14  1  0
 13 15  1  0
  6 16  1  0
 16 17  1  0
 16 18  2  0
 18  2  1  0
 15 10  1  0
  1 19  1  0
  1 20  1  0
  1 21  1  0
  3 22  1  0
  5 23  1  0
  5 24  1  0
  5 25  1  0
  7 26  1  0
 10 27  1  0
 11 28  1  0
 11 29  1  0
 12 30  1  0
 12 31  1  0
 13 32  1  0
 14 33  1  0
 14 34  1  0
 14 35  1  0
 17 36  1  0
 17 37  1  0
 17 38  1  0
A    1
 C1 
A    2
 C2 
A    3
 C3 
A    4
 C4 
A    5
 C5 
A    6
 C6 
A    7
 N1 
A    8
 C7 
A    9
 O1 
A   10
 C8 
A   11
 C9 
A   12
 C10
A   13
 C11
A   14
 C12
A   15
 S1 
A   16
 C13
A   17
 C14
A   18
 N2 
A   19
 H1 
A   20
 H2 
A   21
 H3 
A   22
 H4 
A   23
 H5 
A   24
 H6 
A   25
 H7 
A   26
 H8 
A   27
 H9 
A   28
 H10
A   29
 H11
A   30
 H12
A   31
 H13
A   32
 H14
A   33
 H15
A   34
 H16
A   35
 H17
A   36
 H18
A   37
 H19
A   38
 H20
M  END
>  <ref_pdb>  (76) 
x0310_0A

>  <ref_mols>  (76) 
x0554_0A,x0812_0A,x0416_0A

>  <original SMILES>  (76) 
Cc1cc(C)c(NC(=O)C2CCC(C)S2)c(C)n1

>  <rationale>  (76) 
info hydroph_interaction:P107+V124; 

>  <intxn_cluster>  (76) 
103

>  <intxn_cluster_rank>  (76) 
452

>  <N_interactions>  (76) 
2

>  <∆∆G>  (76) 
-11.03632

>  <$/mg>  (76) 
nan

>  <comRMSD>  (76) 
0.828405

>  <N_rotatable_bonds>  (76) 
6

>  <hbond:SER:7>  (76) 
hbond:SER:7    0
hbond:SER:7    0
Name: 75, dtype: object

>  <halogenbond:SER:7>  (76) 
halogenbond:SER:7    0
halogenbond:SER:7    0
Name: 75, dtype: object

>  <hbond:GLY:8>  (76) 
hbond:GLY:8    0
hbond:GLY:8    0
Name: 75, dtype: object

>  <hydroph_interaction:ASN:19>  (76) 
hydroph_interaction:ASN:19    0
hydroph_interaction:ASN:19    0
Name: 75, dtype: object

>  <hbond:ASN:19>  (76) 
hbond:ASN:19    0
hbond:ASN:19    0
Name: 75, dtype: object

>  <halogenbond:ASN:19>  (76) 
halogenbond:ASN:19    0
halogenbond:ASN:19    0
Name: 75, dtype: object

>  <hbond:ARG:20>  (76) 
hbond:ARG:20    0
hbond:ARG:20    0
Name: 75, dtype: object

>  <hydroph_interaction:ARG:20>  (76) 
hydroph_interaction:ARG:20    0
hydroph_interaction:ARG:20    0
Name: 75, dtype: object

>  <saltbridge:ARG:20>  (76) 
saltbridge:ARG:20    0
saltbridge:ARG:20    0
Name: 75, dtype: object

>  <halogenbond:ARG:20>  (76) 
halogenbond:ARG:20    0
halogenbond:ARG:20    0
Name: 75, dtype: object

>  <pication:ARG:20>  (76) 
pication:ARG:20    0
pication:ARG:20    0
Name: 75, dtype: object

>  <hbond:HIS:21>  (76) 
hbond:HIS:21    0
hbond:HIS:21    0
Name: 75, dtype: object

>  <hydroph_interaction:HIS:21>  (76) 
hydroph_interaction:HIS:21    0
hydroph_interaction:HIS:21    0
Name: 75, dtype: object

>  <saltbridge:HIS:21>  (76) 
saltbridge:HIS:21    0
saltbridge:HIS:21    0
Name: 75, dtype: object

>  <pistack:HIS:21>  (76) 
pistack:HIS:21    0
pistack:HIS:21    0
Name: 75, dtype: object

>  <pication:HIS:21>  (76) 
pication:HIS:21    0
pication:HIS:21    0
Name: 75, dtype: object

>  <halogenbond:HIS:21>  (76) 
halogenbond:HIS:21    0
halogenbond:HIS:21    0
Name: 75, dtype: object

>  <hydroph_interaction:LEU:22>  (76) 
hydroph_interaction:LEU:22    0
hydroph_interaction:LEU:22    0
Name: 75, dtype: object

>  <hbond:LEU:22>  (76) 
hbond:LEU:22    0
hbond:LEU:22    0
Name: 75, dtype: object

>  <hydroph_interaction:TRP:28>  (76) 
hydroph_interaction:TRP:28    0
hydroph_interaction:TRP:28    0
Name: 75, dtype: object

>  <hbond:SER:36>  (76) 
hbond:SER:36    0
hbond:SER:36    0
Name: 75, dtype: object

>  <halogenbond:SER:36>  (76) 
halogenbond:SER:36    0
halogenbond:SER:36    0
Name: 75, dtype: object

>  <hbond:ARG:38>  (76) 
hbond:ARG:38    0
hbond:ARG:38    0
Name: 75, dtype: object

>  <halogenbond:ARG:38>  (76) 
halogenbond:ARG:38    0
halogenbond:ARG:38    0
Name: 75, dtype: object

>  <hbond:ASP:39>  (76) 
hbond:ASP:39    0
hbond:ASP:39    0
Name: 75, dtype: object

>  <saltbridge:ASP:39>  (76) 
saltbridge:ASP:39    0
saltbridge:ASP:39    0
Name: 75, dtype: object

>  <hydroph_interaction:ASP:39>  (76) 
hydroph_interaction:ASP:39    0
hydroph_interaction:ASP:39    0
Name: 75, dtype: object

>  <halogenbond:ASP:39>  (76) 
halogenbond:ASP:39    0
halogenbond:ASP:39    0
Name: 75, dtype: object

>  <hydroph_interaction:LEU:40>  (76) 
hydroph_interaction:LEU:40    0
hydroph_interaction:LEU:40    0
Name: 75, dtype: object

>  <hydroph_interaction:TYR:63>  (76) 
hydroph_interaction:TYR:63    0
hydroph_interaction:TYR:63    0
Name: 75, dtype: object

>  <pistack:TYR:63>  (76) 
pistack:TYR:63    0
pistack:TYR:63    0
Name: 75, dtype: object

>  <hbond:TYR:63>  (76) 
hbond:TYR:63    0
hbond:TYR:63    0
Name: 75, dtype: object

>  <hbond:TYR:64>  (76) 
hbond:TYR:64    0
hbond:TYR:64    0
Name: 75, dtype: object

>  <halogenbond:TYR:64>  (76) 
halogenbond:TYR:64    0
halogenbond:TYR:64    0
Name: 75, dtype: object

>  <hydroph_interaction:TYR:64>  (76) 
hydroph_interaction:TYR:64    0
hydroph_interaction:TYR:64    0
Name: 75, dtype: object

>  <hbond:CYS:65>  (76) 
hbond:CYS:65    0
hbond:CYS:65    0
Name: 75, dtype: object

>  <halogenbond:CYS:65>  (76) 
halogenbond:CYS:65    0
halogenbond:CYS:65    0
Name: 75, dtype: object

>  <hbond:SER:66>  (76) 
hbond:SER:66    0
hbond:SER:66    0
Name: 75, dtype: object

>  <hbond:SER:67>  (76) 
hbond:SER:67    0
hbond:SER:67    0
Name: 75, dtype: object

>  <halogenbond:SER:67>  (76) 
halogenbond:SER:67    0
halogenbond:SER:67    0
Name: 75, dtype: object

>  <hydroph_interaction:ARG:68>  (76) 
hydroph_interaction:ARG:68    0
hydroph_interaction:ARG:68    0
Name: 75, dtype: object

>  <hbond:ARG:68>  (76) 
hbond:ARG:68    0
hbond:ARG:68    0
Name: 75, dtype: object

>  <saltbridge:ARG:68>  (76) 
saltbridge:ARG:68    0
saltbridge:ARG:68    0
Name: 75, dtype: object

>  <pication:ARG:68>  (76) 
pication:ARG:68    0
pication:ARG:68    0
Name: 75, dtype: object

>  <hydroph_interaction:TYR:72>  (76) 
hydroph_interaction:TYR:72    0
hydroph_interaction:TYR:72    0
Name: 75, dtype: object

>  <hydroph_interaction:VAL:74>  (76) 
hydroph_interaction:VAL:74    0
hydroph_interaction:VAL:74    0
Name: 75, dtype: object

>  <hydroph_interaction:PHE:76>  (76) 
hydroph_interaction:PHE:76    0
hydroph_interaction:PHE:76    0
Name: 75, dtype: object

>  <hbond:SER:77>  (76) 
hbond:SER:77    0
hbond:SER:77    0
Name: 75, dtype: object

>  <hbond:SER:80>  (76) 
hbond:SER:80    0
hbond:SER:80    0
Name: 75, dtype: object

>  <hbond:LEU:81>  (76) 
hbond:LEU:81    0
hbond:LEU:81    0
Name: 75, dtype: object

>  <halogenbond:LEU:81>  (76) 
halogenbond:LEU:81    0
halogenbond:LEU:81    0
Name: 75, dtype: object

>  <hydroph_interaction:LEU:81>  (76) 
hydroph_interaction:LEU:81    0
hydroph_interaction:LEU:81    0
Name: 75, dtype: object

>  <hydroph_interaction:ILE:82>  (76) 
hydroph_interaction:ILE:82    0
hydroph_interaction:ILE:82    0
Name: 75, dtype: object

>  <hbond:ILE:82>  (76) 
hbond:ILE:82    0
hbond:ILE:82    0
Name: 75, dtype: object

>  <hydroph_interaction:PHE:83>  (76) 
hydroph_interaction:PHE:83    0
hydroph_interaction:PHE:83    0
Name: 75, dtype: object

>  <hbond:PHE:83>  (76) 
hbond:PHE:83    0
hbond:PHE:83    0
Name: 75, dtype: object

>  <halogenbond:PHE:83>  (76) 
halogenbond:PHE:83    0
halogenbond:PHE:83    0
Name: 75, dtype: object

>  <pistack:PHE:83>  (76) 
pistack:PHE:83    0
pistack:PHE:83    0
Name: 75, dtype: object

>  <hydroph_interaction:VAL:84>  (76) 
hydroph_interaction:VAL:84    0
hydroph_interaction:VAL:84    0
Name: 75, dtype: object

>  <hbond:VAL:84>  (76) 
hbond:VAL:84    0
hbond:VAL:84    0
Name: 75, dtype: object

>  <halogenbond:VAL:84>  (76) 
halogenbond:VAL:84    0
halogenbond:VAL:84    0
Name: 75, dtype: object

>  <hydroph_interaction:GLU:85>  (76) 
hydroph_interaction:GLU:85    0
hydroph_interaction:GLU:85    0
Name: 75, dtype: object

>  <hbond:GLU:85>  (76) 
hbond:GLU:85    0
hbond:GLU:85    0
Name: 75, dtype: object

>  <saltbridge:GLU:85>  (76) 
saltbridge:GLU:85    0
saltbridge:GLU:85    0
Name: 75, dtype: object

>  <halogenbond:GLU:85>  (76) 
halogenbond:GLU:85    0
halogenbond:GLU:85    0
Name: 75, dtype: object

>  <hbond:ALA:86>  (76) 
hbond:ALA:86    0
hbond:ALA:86    0
Name: 75, dtype: object

>  <halogenbond:ALA:86>  (76) 
halogenbond:ALA:86    0
halogenbond:ALA:86    0
Name: 75, dtype: object

>  <hydroph_interaction:ALA:86>  (76) 
hydroph_interaction:ALA:86    0
hydroph_interaction:ALA:86    0
Name: 75, dtype: object

>  <hbond:SER:87>  (76) 
hbond:SER:87    0
hbond:SER:87    0
Name: 75, dtype: object

>  <halogenbond:SER:87>  (76) 
halogenbond:SER:87    0
halogenbond:SER:87    0
Name: 75, dtype: object

>  <hbond:GLU:88>  (76) 
hbond:GLU:88    0
hbond:GLU:88    0
Name: 75, dtype: object

>  <hydroph_interaction:GLU:88>  (76) 
hydroph_interaction:GLU:88    0
hydroph_interaction:GLU:88    0
Name: 75, dtype: object

>  <halogenbond:GLU:88>  (76) 
halogenbond:GLU:88    0
halogenbond:GLU:88    0
Name: 75, dtype: object

>  <saltbridge:GLU:88>  (76) 
saltbridge:GLU:88    0
saltbridge:GLU:88    0
Name: 75, dtype: object

>  <hydroph_interaction:TYR:89>  (76) 
hydroph_interaction:TYR:89    0
hydroph_interaction:TYR:89    0
Name: 75, dtype: object

>  <pistack:TYR:89>  (76) 
pistack:TYR:89    0
pistack:TYR:89    0
Name: 75, dtype: object

>  <hbond:TYR:89>  (76) 
hbond:TYR:89    0
hbond:TYR:89    0
Name: 75, dtype: object

>  <halogenbond:TYR:89>  (76) 
halogenbond:TYR:89    0
halogenbond:TYR:89    0
Name: 75, dtype: object

>  <hbond:TYR:90>  (76) 
hbond:TYR:90    0
hbond:TYR:90    0
Name: 75, dtype: object

>  <hydroph_interaction:TYR:90>  (76) 
hydroph_interaction:TYR:90    0
hydroph_interaction:TYR:90    0
Name: 75, dtype: object

>  <pistack:TYR:90>  (76) 
pistack:TYR:90    0
pistack:TYR:90    0
Name: 75, dtype: object

>  <halogenbond:TYR:90>  (76) 
halogenbond:TYR:90    0
halogenbond:TYR:90    0
Name: 75, dtype: object

>  <pication:TYR:90>  (76) 
pication:TYR:90    0
pication:TYR:90    0
Name: 75, dtype: object

>  <hydroph_interaction:PRO:91>  (76) 
hydroph_interaction:PRO:91    0
hydroph_interaction:PRO:91    0
Name: 75, dtype: object

>  <halogenbond:PRO:91>  (76) 
halogenbond:PRO:91    0
halogenbond:PRO:91    0
Name: 75, dtype: object

>  <hbond:PRO:91>  (76) 
hbond:PRO:91    0
hbond:PRO:91    0
Name: 75, dtype: object

>  <hydroph_interaction:ALA:92>  (76) 
hydroph_interaction:ALA:92    0
hydroph_interaction:ALA:92    0
Name: 75, dtype: object

>  <hbond:ARG:93>  (76) 
hbond:ARG:93    0
hbond:ARG:93    0
Name: 75, dtype: object

>  <pication:ARG:93>  (76) 
pication:ARG:93    0
pication:ARG:93    0
Name: 75, dtype: object

>  <saltbridge:ARG:93>  (76) 
saltbridge:ARG:93    0
saltbridge:ARG:93    0
Name: 75, dtype: object

>  <hydroph_interaction:ARG:93>  (76) 
hydroph_interaction:ARG:93    0
hydroph_interaction:ARG:93    0
Name: 75, dtype: object

>  <halogenbond:ARG:93>  (76) 
halogenbond:ARG:93    0
halogenbond:ARG:93    0
Name: 75, dtype: object

>  <hydroph_interaction:TYR:94>  (76) 
hydroph_interaction:TYR:94    0
hydroph_interaction:TYR:94    0
Name: 75, dtype: object

>  <hbond:TYR:94>  (76) 
hbond:TYR:94    0
hbond:TYR:94    0
Name: 75, dtype: object

>  <halogenbond:GLN:95>  (76) 
halogenbond:GLN:95    0
halogenbond:GLN:95    0
Name: 75, dtype: object

>  <hbond:GLN:95>  (76) 
hbond:GLN:95    0
hbond:GLN:95    0
Name: 75, dtype: object

>  <hydroph_interaction:GLN:95>  (76) 
hydroph_interaction:GLN:95    0
hydroph_interaction:GLN:95    0
Name: 75, dtype: object

>  <hbond:SER:96>  (76) 
hbond:SER:96    0
hbond:SER:96    0
Name: 75, dtype: object

>  <hydroph_interaction:LEU:98>  (76) 
hydroph_interaction:LEU:98    0
hydroph_interaction:LEU:98    0
Name: 75, dtype: object

>  <hbond:LEU:98>  (76) 
hbond:LEU:98    0
hbond:LEU:98    0
Name: 75, dtype: object

>  <hbond:MET:99>  (76) 
hbond:MET:99    0
hbond:MET:99    0
Name: 75, dtype: object

>  <hydroph_interaction:MET:99>  (76) 
hydroph_interaction:MET:99    0
hydroph_interaction:MET:99    0
Name: 75, dtype: object

>  <halogenbond:MET:99>  (76) 
halogenbond:MET:99    0
halogenbond:MET:99    0
Name: 75, dtype: object

>  <hydroph_interaction:LEU:100>  (76) 
hydroph_interaction:LEU:100    0
hydroph_interaction:LEU:100    0
Name: 75, dtype: object

>  <hbond:LEU:100>  (76) 
hbond:LEU:100    0
hbond:LEU:100    0
Name: 75, dtype: object

>  <hbond:ALA:101>  (76) 
hbond:ALA:101    0
hbond:ALA:101    0
Name: 75, dtype: object

>  <hydroph_interaction:ALA:101>  (76) 
hydroph_interaction:ALA:101    0
hydroph_interaction:ALA:101    0
Name: 75, dtype: object

>  <hydroph_interaction:VAL:102>  (76) 
hydroph_interaction:VAL:102    0
hydroph_interaction:VAL:102    0
Name: 75, dtype: object

>  <hbond:VAL:102>  (76) 
hbond:VAL:102    0
hbond:VAL:102    0
Name: 75, dtype: object

>  <hbond:GLY:103>  (76) 
hbond:GLY:103    0
hbond:GLY:103    0
Name: 75, dtype: object

>  <halogenbond:GLY:103>  (76) 
halogenbond:GLY:103    0
halogenbond:GLY:103    0
Name: 75, dtype: object

>  <hydroph_interaction:HIS:104>  (76) 
hydroph_interaction:HIS:104    0
hydroph_interaction:HIS:104    0
Name: 75, dtype: object

>  <hbond:HIS:104>  (76) 
hbond:HIS:104    0
hbond:HIS:104    0
Name: 75, dtype: object

>  <saltbridge:HIS:104>  (76) 
saltbridge:HIS:104    0
saltbridge:HIS:104    0
Name: 75, dtype: object

>  <pication:HIS:104>  (76) 
pication:HIS:104    0
pication:HIS:104    0
Name: 75, dtype: object

>  <pistack:HIS:104>  (76) 
pistack:HIS:104    0
pistack:HIS:104    0
Name: 75, dtype: object

>  <halogenbond:HIS:104>  (76) 
halogenbond:HIS:104    0
halogenbond:HIS:104    0
Name: 75, dtype: object

>  <hbond:SER:105>  (76) 
hbond:SER:105    0
hbond:SER:105    0
Name: 75, dtype: object

>  <halogenbond:SER:105>  (76) 
halogenbond:SER:105    0
halogenbond:SER:105    0
Name: 75, dtype: object

>  <hbond:GLU:106>  (76) 
hbond:GLU:106    0
hbond:GLU:106    0
Name: 75, dtype: object

>  <hydroph_interaction:GLU:106>  (76) 
hydroph_interaction:GLU:106    0
hydroph_interaction:GLU:106    0
Name: 75, dtype: object

>  <saltbridge:GLU:106>  (76) 
saltbridge:GLU:106    0
saltbridge:GLU:106    0
Name: 75, dtype: object

>  <halogenbond:GLU:106>  (76) 
halogenbond:GLU:106    0
halogenbond:GLU:106    0
Name: 75, dtype: object

>  <hydroph_interaction:PRO:107>  (76) 
hydroph_interaction:PRO:107    1
hydroph_interaction:PRO:107    1
Name: 75, dtype: object

>  <hbond:PRO:107>  (76) 
hbond:PRO:107    0
hbond:PRO:107    0
Name: 75, dtype: object

>  <halogenbond:PRO:107>  (76) 
halogenbond:PRO:107    0
halogenbond:PRO:107    0
Name: 75, dtype: object

>  <hbond:GLY:108>  (76) 
hbond:GLY:108    0
hbond:GLY:108    0
Name: 75, dtype: object

>  <halogenbond:GLY:108>  (76) 
halogenbond:GLY:108    0
halogenbond:GLY:108    0
Name: 75, dtype: object

>  <hbond:ASP:109>  (76) 
hbond:ASP:109    0
hbond:ASP:109    0
Name: 75, dtype: object

>  <hydroph_interaction:ASP:109>  (76) 
hydroph_interaction:ASP:109    0
hydroph_interaction:ASP:109    0
Name: 75, dtype: object

>  <saltbridge:ASP:109>  (76) 
saltbridge:ASP:109    0
saltbridge:ASP:109    0
Name: 75, dtype: object

>  <hbond:CYS:110>  (76) 
hbond:CYS:110    0
hbond:CYS:110    0
Name: 75, dtype: object

>  <halogenbond:CYS:110>  (76) 
halogenbond:CYS:110    0
halogenbond:CYS:110    0
Name: 75, dtype: object

>  <hbond:GLY:111>  (76) 
hbond:GLY:111    0
hbond:GLY:111    0
Name: 75, dtype: object

>  <hbond:GLY:112>  (76) 
hbond:GLY:112    0
hbond:GLY:112    0
Name: 75, dtype: object

>  <hbond:ILE:113>  (76) 
hbond:ILE:113    0
hbond:ILE:113    0
Name: 75, dtype: object

>  <hydroph_interaction:LEU:114>  (76) 
hydroph_interaction:LEU:114    0
hydroph_interaction:LEU:114    0
Name: 75, dtype: object

>  <hbond:LEU:114>  (76) 
hbond:LEU:114    0
hbond:LEU:114    0
Name: 75, dtype: object

>  <hydroph_interaction:ILE:123>  (76) 
hydroph_interaction:ILE:123    0
hydroph_interaction:ILE:123    0
Name: 75, dtype: object

>  <hbond:ILE:123>  (76) 
hbond:ILE:123    0
hbond:ILE:123    0
Name: 75, dtype: object

>  <hydroph_interaction:VAL:124>  (76) 
hydroph_interaction:VAL:124    1
hydroph_interaction:VAL:124    1
Name: 75, dtype: object

>  <hbond:VAL:124>  (76) 
hbond:VAL:124    0
hbond:VAL:124    0
Name: 75, dtype: object

>  <halogenbond:VAL:124>  (76) 
halogenbond:VAL:124    0
halogenbond:VAL:124    0
Name: 75, dtype: object

>  <hbond:SER:125>  (76) 
hbond:SER:125    0
hbond:SER:125    0
Name: 75, dtype: object

>  <halogenbond:SER:125>  (76) 
halogenbond:SER:125    0
halogenbond:SER:125    0
Name: 75, dtype: object

>  <hydroph_interaction:THR:126>  (76) 
hydroph_interaction:THR:126    0
hydroph_interaction:THR:126    0
Name: 75, dtype: object

>  <hbond:THR:126>  (76) 
hbond:THR:126    0
hbond:THR:126    0
Name: 75, dtype: object

>  <halogenbond:THR:126>  (76) 
halogenbond:THR:126    0
halogenbond:THR:126    0
Name: 75, dtype: object

>  <hbond:GLY:127>  (76) 
hbond:GLY:127    0
hbond:GLY:127    0
Name: 75, dtype: object

>  <halogenbond:GLY:127>  (76) 
halogenbond:GLY:127    0
halogenbond:GLY:127    0
Name: 75, dtype: object

>  <hydroph_interaction:GLY:127>  (76) 
hydroph_interaction:GLY:127    0
hydroph_interaction:GLY:127    0
Name: 75, dtype: object

>  <hbond:GLY:128>  (76) 
hbond:GLY:128    0
hbond:GLY:128    0
Name: 75, dtype: object

>  <halogenbond:GLY:128>  (76) 
halogenbond:GLY:128    0
halogenbond:GLY:128    0
Name: 75, dtype: object

>  <hydroph_interaction:GLY:128>  (76) 
hydroph_interaction:GLY:128    0
hydroph_interaction:GLY:128    0
Name: 75, dtype: object

>  <hbond:ASN:129>  (76) 
hbond:ASN:129    0
hbond:ASN:129    0
Name: 75, dtype: object

>  <hydroph_interaction:ASN:129>  (76) 
hydroph_interaction:ASN:129    0
hydroph_interaction:ASN:129    0
Name: 75, dtype: object

>  <halogenbond:ASN:129>  (76) 
halogenbond:ASN:129    0
halogenbond:ASN:129    0
Name: 75, dtype: object

>  <hbond:GLY:130>  (76) 
hbond:GLY:130    0
hbond:GLY:130    0
Name: 75, dtype: object

>  <hydroph_interaction:LEU:131>  (76) 
hydroph_interaction:LEU:131    0
hydroph_interaction:LEU:131    0
Name: 75, dtype: object

>  <hbond:LEU:131>  (76) 
hbond:LEU:131    0
hbond:LEU:131    0
Name: 75, dtype: object

>  <halogenbond:LEU:131>  (76) 
halogenbond:LEU:131    0
halogenbond:LEU:131    0
Name: 75, dtype: object

>  <hydroph_interaction:VAL:132>  (76) 
hydroph_interaction:VAL:132    0
hydroph_interaction:VAL:132    0
Name: 75, dtype: object

>  <hbond:VAL:132>  (76) 
hbond:VAL:132    0
hbond:VAL:132    0
Name: 75, dtype: object

>  <hbond:GLY:133>  (76) 
hbond:GLY:133    0
hbond:GLY:133    0
Name: 75, dtype: object

>  <halogenbond:GLY:133>  (76) 
halogenbond:GLY:133    0
halogenbond:GLY:133    0
Name: 75, dtype: object

>  <hydroph_interaction:PHE:134>  (76) 
hydroph_interaction:PHE:134    0
hydroph_interaction:PHE:134    0
Name: 75, dtype: object

>  <hbond:PHE:134>  (76) 
hbond:PHE:134    0
hbond:PHE:134    0
Name: 75, dtype: object

>  <pistack:PHE:134>  (76) 
pistack:PHE:134    0
pistack:PHE:134    0
Name: 75, dtype: object

>  <pication:PHE:134>  (76) 
pication:PHE:134    0
pication:PHE:134    0
Name: 75, dtype: object

>  <hydroph_interaction:ALA:135>  (76) 
hydroph_interaction:ALA:135    0
hydroph_interaction:ALA:135    0
Name: 75, dtype: object

>  <hbond:ALA:135>  (76) 
hbond:ALA:135    0
hbond:ALA:135    0
Name: 75, dtype: object

$$$$
PV_002886912804
     RDKit          3D

 26 26  0  0  0  0  0  0  0  0999 V2000
   12.1720   15.2230   21.8450 C   0  0  0  0  0  0  0  0  0  0  0  0
   11.5290   14.2120   22.7840 C   0  0  0  0  0  0  0  0  0  0  0  0
   12.1410   14.2200   24.1860 C   0  0  0  0  0  0  0  0  0  0  0  0
   10.4840   13.3770   22.3490 C   0  0  0  0  0  0  0  0  0  0  0  0
    9.7430   12.2970   23.1390 C   0  0  0  0  0  0  0  0  0  0  0  0
   10.0700   10.9740   22.8590 C   0  0  0  0  0  0  0  0  0  0  0  0
    9.4140    9.9950   23.5590 C   0  0  0  0  0  0  0  0  0  0  0  0
    8.4480   10.2870   24.5190 C   0  0  0  0  0  0  0  0  0  0  0  0
    8.1330   11.5970   24.7880 C   0  0  0  0  0  0  0  0  0  0  0  0
    8.7730   12.6030   24.1060 C   0  0  0  0  0  0  0  0  0  0  0  0
    8.3570   14.0230   24.4700 C   0  0  0  0  0  0  0  0  0  0  0  0
    7.3020   13.9790   25.4240 O   0  0  0  0  0  0  0  0  0  0  0  0
   11.4100   15.7430   21.2590 H   0  0  0  0  0  0  0  0  0  0  0  0
   12.8680   14.7490   21.1450 H   0  0  0  0  0  0  0  0  0  0  0  0
   12.7350   15.9770   22.4100 H   0  0  0  0  0  0  0  0  0  0  0  0
   12.9870   13.5750   24.4030 H   0  0  0  0  0  0  0  0  0  0  0  0
   12.4540   15.2360   24.4620 H   0  0  0  0  0  0  0  0  0  0  0  0
   11.3420   13.9520   24.8840 H   0  0  0  0  0  0  0  0  0  0  0  0
   10.0990   13.4400   21.3320 H   0  0  0  0  0  0  0  0  0  0  0  0
   10.8070   10.7110   22.1210 H   0  0  0  0  0  0  0  0  0  0  0  0
    9.6500    8.9650   23.3630 H   0  0  0  0  0  0  0  0  0  0  0  0
    7.9680    9.4700   25.0310 H   0  0  0  0  0  0  0  0  0  0  0  0
    7.3830   11.8360   25.5350 H   0  0  0  0  0  0  0  0  0  0  0  0
    7.9350   14.5030   23.5800 H   0  0  0  0  0  0  0  0  0  0  0  0
    9.1200   14.6740   24.8910 H   0  0  0  0  0  0  0  0  0  0  0  0
    6.4860   14.1930   24.9370 H   0  0  0  0  0  0  0  0  0  0  0  0
  1  2  1  0
  2  3  1  0
  2  4  2  3
  4  5  1  0
  5  6  2  0
  6  7  1  0
  7  8  2  0
  8  9  1  0
  9 10  2  0
 10 11  1  0
 11 12  1  0
 10  5  1  0
  1 13  1  0
  1 14  1  0
  1 15  1  0
  3 16  1  0
  3 17  1  0
  3 18  1  0
  4 19  1  0
  6 20  1  0
  7 21  1  0
  8 22  1  0
  9 23  1  0
 11 24  1  0
 11 25  1  0
 12 26  1  0
A    1
 C1 
A    2
 C2 
A    3
 C3 
A    4
 C4 
A    5
 C5 
A    6
 C6 
A    7
 C7 
A    8
 C8 
A    9
 C9 
A   10
 C10
A   11
 C11
A   12
 O1 
A   13
 H1 
A   14
 H2 
A   15
 H3 
A   16
 H4 
A   17
 H5 
A   18
 H6 
A   19
 H7 
A   20
 H8 
A   21
 H9 
A   22
 H10
A   23
 H11
A   24
 H12
A   25
 H13
A   26
 H14
M  END
>  <ref_pdb>  (77) 
x0310_0A

>  <ref_mols>  (77) 
x0554_0A,x0739_0A,x0416_0A

>  <original SMILES>  (77) 
CC(C)=Cc1ccccc1CO

>  <rationale>  (77) 
info hydroph_interaction:P107; 

>  <intxn_cluster>  (77) 
208

>  <intxn_cluster_rank>  (77) 
454

>  <N_interactions>  (77) 
2

>  <∆∆G>  (77) 
-9.026159

>  <$/mg>  (77) 
nan

>  <comRMSD>  (77) 
0.763522

>  <N_rotatable_bonds>  (77) 
5

>  <hbond:SER:7>  (77) 
hbond:SER:7    0
hbond:SER:7    0
Name: 76, dtype: object

>  <halogenbond:SER:7>  (77) 
halogenbond:SER:7    0
halogenbond:SER:7    0
Name: 76, dtype: object

>  <hbond:GLY:8>  (77) 
hbond:GLY:8    0
hbond:GLY:8    0
Name: 76, dtype: object

>  <hydroph_interaction:ASN:19>  (77) 
hydroph_interaction:ASN:19    0
hydroph_interaction:ASN:19    0
Name: 76, dtype: object

>  <hbond:ASN:19>  (77) 
hbond:ASN:19    0
hbond:ASN:19    0
Name: 76, dtype: object

>  <halogenbond:ASN:19>  (77) 
halogenbond:ASN:19    0
halogenbond:ASN:19    0
Name: 76, dtype: object

>  <hbond:ARG:20>  (77) 
hbond:ARG:20    0
hbond:ARG:20    0
Name: 76, dtype: object

>  <hydroph_interaction:ARG:20>  (77) 
hydroph_interaction:ARG:20    0
hydroph_interaction:ARG:20    0
Name: 76, dtype: object

>  <saltbridge:ARG:20>  (77) 
saltbridge:ARG:20    0
saltbridge:ARG:20    0
Name: 76, dtype: object

>  <halogenbond:ARG:20>  (77) 
halogenbond:ARG:20    0
halogenbond:ARG:20    0
Name: 76, dtype: object

>  <pication:ARG:20>  (77) 
pication:ARG:20    0
pication:ARG:20    0
Name: 76, dtype: object

>  <hbond:HIS:21>  (77) 
hbond:HIS:21    0
hbond:HIS:21    0
Name: 76, dtype: object

>  <hydroph_interaction:HIS:21>  (77) 
hydroph_interaction:HIS:21    0
hydroph_interaction:HIS:21    0
Name: 76, dtype: object

>  <saltbridge:HIS:21>  (77) 
saltbridge:HIS:21    0
saltbridge:HIS:21    0
Name: 76, dtype: object

>  <pistack:HIS:21>  (77) 
pistack:HIS:21    0
pistack:HIS:21    0
Name: 76, dtype: object

>  <pication:HIS:21>  (77) 
pication:HIS:21    0
pication:HIS:21    0
Name: 76, dtype: object

>  <halogenbond:HIS:21>  (77) 
halogenbond:HIS:21    0
halogenbond:HIS:21    0
Name: 76, dtype: object

>  <hydroph_interaction:LEU:22>  (77) 
hydroph_interaction:LEU:22    0
hydroph_interaction:LEU:22    0
Name: 76, dtype: object

>  <hbond:LEU:22>  (77) 
hbond:LEU:22    0
hbond:LEU:22    0
Name: 76, dtype: object

>  <hydroph_interaction:TRP:28>  (77) 
hydroph_interaction:TRP:28    0
hydroph_interaction:TRP:28    0
Name: 76, dtype: object

>  <hbond:SER:36>  (77) 
hbond:SER:36    0
hbond:SER:36    0
Name: 76, dtype: object

>  <halogenbond:SER:36>  (77) 
halogenbond:SER:36    0
halogenbond:SER:36    0
Name: 76, dtype: object

>  <hbond:ARG:38>  (77) 
hbond:ARG:38    0
hbond:ARG:38    0
Name: 76, dtype: object

>  <halogenbond:ARG:38>  (77) 
halogenbond:ARG:38    0
halogenbond:ARG:38    0
Name: 76, dtype: object

>  <hbond:ASP:39>  (77) 
hbond:ASP:39    0
hbond:ASP:39    0
Name: 76, dtype: object

>  <saltbridge:ASP:39>  (77) 
saltbridge:ASP:39    0
saltbridge:ASP:39    0
Name: 76, dtype: object

>  <hydroph_interaction:ASP:39>  (77) 
hydroph_interaction:ASP:39    0
hydroph_interaction:ASP:39    0
Name: 76, dtype: object

>  <halogenbond:ASP:39>  (77) 
halogenbond:ASP:39    0
halogenbond:ASP:39    0
Name: 76, dtype: object

>  <hydroph_interaction:LEU:40>  (77) 
hydroph_interaction:LEU:40    0
hydroph_interaction:LEU:40    0
Name: 76, dtype: object

>  <hydroph_interaction:TYR:63>  (77) 
hydroph_interaction:TYR:63    0
hydroph_interaction:TYR:63    0
Name: 76, dtype: object

>  <pistack:TYR:63>  (77) 
pistack:TYR:63    0
pistack:TYR:63    0
Name: 76, dtype: object

>  <hbond:TYR:63>  (77) 
hbond:TYR:63    0
hbond:TYR:63    0
Name: 76, dtype: object

>  <hbond:TYR:64>  (77) 
hbond:TYR:64    0
hbond:TYR:64    0
Name: 76, dtype: object

>  <halogenbond:TYR:64>  (77) 
halogenbond:TYR:64    0
halogenbond:TYR:64    0
Name: 76, dtype: object

>  <hydroph_interaction:TYR:64>  (77) 
hydroph_interaction:TYR:64    0
hydroph_interaction:TYR:64    0
Name: 76, dtype: object

>  <hbond:CYS:65>  (77) 
hbond:CYS:65    0
hbond:CYS:65    0
Name: 76, dtype: object

>  <halogenbond:CYS:65>  (77) 
halogenbond:CYS:65    0
halogenbond:CYS:65    0
Name: 76, dtype: object

>  <hbond:SER:66>  (77) 
hbond:SER:66    0
hbond:SER:66    0
Name: 76, dtype: object

>  <hbond:SER:67>  (77) 
hbond:SER:67    0
hbond:SER:67    0
Name: 76, dtype: object

>  <halogenbond:SER:67>  (77) 
halogenbond:SER:67    0
halogenbond:SER:67    0
Name: 76, dtype: object

>  <hydroph_interaction:ARG:68>  (77) 
hydroph_interaction:ARG:68    0
hydroph_interaction:ARG:68    0
Name: 76, dtype: object

>  <hbond:ARG:68>  (77) 
hbond:ARG:68    0
hbond:ARG:68    0
Name: 76, dtype: object

>  <saltbridge:ARG:68>  (77) 
saltbridge:ARG:68    0
saltbridge:ARG:68    0
Name: 76, dtype: object

>  <pication:ARG:68>  (77) 
pication:ARG:68    0
pication:ARG:68    0
Name: 76, dtype: object

>  <hydroph_interaction:TYR:72>  (77) 
hydroph_interaction:TYR:72    0
hydroph_interaction:TYR:72    0
Name: 76, dtype: object

>  <hydroph_interaction:VAL:74>  (77) 
hydroph_interaction:VAL:74    0
hydroph_interaction:VAL:74    0
Name: 76, dtype: object

>  <hydroph_interaction:PHE:76>  (77) 
hydroph_interaction:PHE:76    0
hydroph_interaction:PHE:76    0
Name: 76, dtype: object

>  <hbond:SER:77>  (77) 
hbond:SER:77    0
hbond:SER:77    0
Name: 76, dtype: object

>  <hbond:SER:80>  (77) 
hbond:SER:80    0
hbond:SER:80    0
Name: 76, dtype: object

>  <hbond:LEU:81>  (77) 
hbond:LEU:81    0
hbond:LEU:81    0
Name: 76, dtype: object

>  <halogenbond:LEU:81>  (77) 
halogenbond:LEU:81    0
halogenbond:LEU:81    0
Name: 76, dtype: object

>  <hydroph_interaction:LEU:81>  (77) 
hydroph_interaction:LEU:81    0
hydroph_interaction:LEU:81    0
Name: 76, dtype: object

>  <hydroph_interaction:ILE:82>  (77) 
hydroph_interaction:ILE:82    0
hydroph_interaction:ILE:82    0
Name: 76, dtype: object

>  <hbond:ILE:82>  (77) 
hbond:ILE:82    0
hbond:ILE:82    0
Name: 76, dtype: object

>  <hydroph_interaction:PHE:83>  (77) 
hydroph_interaction:PHE:83    0
hydroph_interaction:PHE:83    0
Name: 76, dtype: object

>  <hbond:PHE:83>  (77) 
hbond:PHE:83    0
hbond:PHE:83    0
Name: 76, dtype: object

>  <halogenbond:PHE:83>  (77) 
halogenbond:PHE:83    0
halogenbond:PHE:83    0
Name: 76, dtype: object

>  <pistack:PHE:83>  (77) 
pistack:PHE:83    0
pistack:PHE:83    0
Name: 76, dtype: object

>  <hydroph_interaction:VAL:84>  (77) 
hydroph_interaction:VAL:84    0
hydroph_interaction:VAL:84    0
Name: 76, dtype: object

>  <hbond:VAL:84>  (77) 
hbond:VAL:84    0
hbond:VAL:84    0
Name: 76, dtype: object

>  <halogenbond:VAL:84>  (77) 
halogenbond:VAL:84    0
halogenbond:VAL:84    0
Name: 76, dtype: object

>  <hydroph_interaction:GLU:85>  (77) 
hydroph_interaction:GLU:85    0
hydroph_interaction:GLU:85    0
Name: 76, dtype: object

>  <hbond:GLU:85>  (77) 
hbond:GLU:85    0
hbond:GLU:85    0
Name: 76, dtype: object

>  <saltbridge:GLU:85>  (77) 
saltbridge:GLU:85    0
saltbridge:GLU:85    0
Name: 76, dtype: object

>  <halogenbond:GLU:85>  (77) 
halogenbond:GLU:85    0
halogenbond:GLU:85    0
Name: 76, dtype: object

>  <hbond:ALA:86>  (77) 
hbond:ALA:86    0
hbond:ALA:86    0
Name: 76, dtype: object

>  <halogenbond:ALA:86>  (77) 
halogenbond:ALA:86    0
halogenbond:ALA:86    0
Name: 76, dtype: object

>  <hydroph_interaction:ALA:86>  (77) 
hydroph_interaction:ALA:86    0
hydroph_interaction:ALA:86    0
Name: 76, dtype: object

>  <hbond:SER:87>  (77) 
hbond:SER:87    0
hbond:SER:87    0
Name: 76, dtype: object

>  <halogenbond:SER:87>  (77) 
halogenbond:SER:87    0
halogenbond:SER:87    0
Name: 76, dtype: object

>  <hbond:GLU:88>  (77) 
hbond:GLU:88    0
hbond:GLU:88    0
Name: 76, dtype: object

>  <hydroph_interaction:GLU:88>  (77) 
hydroph_interaction:GLU:88    0
hydroph_interaction:GLU:88    0
Name: 76, dtype: object

>  <halogenbond:GLU:88>  (77) 
halogenbond:GLU:88    0
halogenbond:GLU:88    0
Name: 76, dtype: object

>  <saltbridge:GLU:88>  (77) 
saltbridge:GLU:88    0
saltbridge:GLU:88    0
Name: 76, dtype: object

>  <hydroph_interaction:TYR:89>  (77) 
hydroph_interaction:TYR:89    0
hydroph_interaction:TYR:89    0
Name: 76, dtype: object

>  <pistack:TYR:89>  (77) 
pistack:TYR:89    0
pistack:TYR:89    0
Name: 76, dtype: object

>  <hbond:TYR:89>  (77) 
hbond:TYR:89    0
hbond:TYR:89    0
Name: 76, dtype: object

>  <halogenbond:TYR:89>  (77) 
halogenbond:TYR:89    0
halogenbond:TYR:89    0
Name: 76, dtype: object

>  <hbond:TYR:90>  (77) 
hbond:TYR:90    0
hbond:TYR:90    0
Name: 76, dtype: object

>  <hydroph_interaction:TYR:90>  (77) 
hydroph_interaction:TYR:90    0
hydroph_interaction:TYR:90    0
Name: 76, dtype: object

>  <pistack:TYR:90>  (77) 
pistack:TYR:90    0
pistack:TYR:90    0
Name: 76, dtype: object

>  <halogenbond:TYR:90>  (77) 
halogenbond:TYR:90    0
halogenbond:TYR:90    0
Name: 76, dtype: object

>  <pication:TYR:90>  (77) 
pication:TYR:90    0
pication:TYR:90    0
Name: 76, dtype: object

>  <hydroph_interaction:PRO:91>  (77) 
hydroph_interaction:PRO:91    0
hydroph_interaction:PRO:91    0
Name: 76, dtype: object

>  <halogenbond:PRO:91>  (77) 
halogenbond:PRO:91    0
halogenbond:PRO:91    0
Name: 76, dtype: object

>  <hbond:PRO:91>  (77) 
hbond:PRO:91    0
hbond:PRO:91    0
Name: 76, dtype: object

>  <hydroph_interaction:ALA:92>  (77) 
hydroph_interaction:ALA:92    0
hydroph_interaction:ALA:92    0
Name: 76, dtype: object

>  <hbond:ARG:93>  (77) 
hbond:ARG:93    0
hbond:ARG:93    0
Name: 76, dtype: object

>  <pication:ARG:93>  (77) 
pication:ARG:93    0
pication:ARG:93    0
Name: 76, dtype: object

>  <saltbridge:ARG:93>  (77) 
saltbridge:ARG:93    0
saltbridge:ARG:93    0
Name: 76, dtype: object

>  <hydroph_interaction:ARG:93>  (77) 
hydroph_interaction:ARG:93    0
hydroph_interaction:ARG:93    0
Name: 76, dtype: object

>  <halogenbond:ARG:93>  (77) 
halogenbond:ARG:93    0
halogenbond:ARG:93    0
Name: 76, dtype: object

>  <hydroph_interaction:TYR:94>  (77) 
hydroph_interaction:TYR:94    0
hydroph_interaction:TYR:94    0
Name: 76, dtype: object

>  <hbond:TYR:94>  (77) 
hbond:TYR:94    0
hbond:TYR:94    0
Name: 76, dtype: object

>  <halogenbond:GLN:95>  (77) 
halogenbond:GLN:95    0
halogenbond:GLN:95    0
Name: 76, dtype: object

>  <hbond:GLN:95>  (77) 
hbond:GLN:95    0
hbond:GLN:95    0
Name: 76, dtype: object

>  <hydroph_interaction:GLN:95>  (77) 
hydroph_interaction:GLN:95    0
hydroph_interaction:GLN:95    0
Name: 76, dtype: object

>  <hbond:SER:96>  (77) 
hbond:SER:96    0
hbond:SER:96    0
Name: 76, dtype: object

>  <hydroph_interaction:LEU:98>  (77) 
hydroph_interaction:LEU:98    0
hydroph_interaction:LEU:98    0
Name: 76, dtype: object

>  <hbond:LEU:98>  (77) 
hbond:LEU:98    0
hbond:LEU:98    0
Name: 76, dtype: object

>  <hbond:MET:99>  (77) 
hbond:MET:99    0
hbond:MET:99    0
Name: 76, dtype: object

>  <hydroph_interaction:MET:99>  (77) 
hydroph_interaction:MET:99    0
hydroph_interaction:MET:99    0
Name: 76, dtype: object

>  <halogenbond:MET:99>  (77) 
halogenbond:MET:99    0
halogenbond:MET:99    0
Name: 76, dtype: object

>  <hydroph_interaction:LEU:100>  (77) 
hydroph_interaction:LEU:100    0
hydroph_interaction:LEU:100    0
Name: 76, dtype: object

>  <hbond:LEU:100>  (77) 
hbond:LEU:100    0
hbond:LEU:100    0
Name: 76, dtype: object

>  <hbond:ALA:101>  (77) 
hbond:ALA:101    0
hbond:ALA:101    0
Name: 76, dtype: object

>  <hydroph_interaction:ALA:101>  (77) 
hydroph_interaction:ALA:101    0
hydroph_interaction:ALA:101    0
Name: 76, dtype: object

>  <hydroph_interaction:VAL:102>  (77) 
hydroph_interaction:VAL:102    0
hydroph_interaction:VAL:102    0
Name: 76, dtype: object

>  <hbond:VAL:102>  (77) 
hbond:VAL:102    0
hbond:VAL:102    0
Name: 76, dtype: object

>  <hbond:GLY:103>  (77) 
hbond:GLY:103    0
hbond:GLY:103    0
Name: 76, dtype: object

>  <halogenbond:GLY:103>  (77) 
halogenbond:GLY:103    0
halogenbond:GLY:103    0
Name: 76, dtype: object

>  <hydroph_interaction:HIS:104>  (77) 
hydroph_interaction:HIS:104    0
hydroph_interaction:HIS:104    0
Name: 76, dtype: object

>  <hbond:HIS:104>  (77) 
hbond:HIS:104    0
hbond:HIS:104    0
Name: 76, dtype: object

>  <saltbridge:HIS:104>  (77) 
saltbridge:HIS:104    0
saltbridge:HIS:104    0
Name: 76, dtype: object

>  <pication:HIS:104>  (77) 
pication:HIS:104    0
pication:HIS:104    0
Name: 76, dtype: object

>  <pistack:HIS:104>  (77) 
pistack:HIS:104    0
pistack:HIS:104    0
Name: 76, dtype: object

>  <halogenbond:HIS:104>  (77) 
halogenbond:HIS:104    0
halogenbond:HIS:104    0
Name: 76, dtype: object

>  <hbond:SER:105>  (77) 
hbond:SER:105    0
hbond:SER:105    0
Name: 76, dtype: object

>  <halogenbond:SER:105>  (77) 
halogenbond:SER:105    0
halogenbond:SER:105    0
Name: 76, dtype: object

>  <hbond:GLU:106>  (77) 
hbond:GLU:106    0
hbond:GLU:106    0
Name: 76, dtype: object

>  <hydroph_interaction:GLU:106>  (77) 
hydroph_interaction:GLU:106    0
hydroph_interaction:GLU:106    0
Name: 76, dtype: object

>  <saltbridge:GLU:106>  (77) 
saltbridge:GLU:106    0
saltbridge:GLU:106    0
Name: 76, dtype: object

>  <halogenbond:GLU:106>  (77) 
halogenbond:GLU:106    0
halogenbond:GLU:106    0
Name: 76, dtype: object

>  <hydroph_interaction:PRO:107>  (77) 
hydroph_interaction:PRO:107    2
hydroph_interaction:PRO:107    2
Name: 76, dtype: object

>  <hbond:PRO:107>  (77) 
hbond:PRO:107    0
hbond:PRO:107    0
Name: 76, dtype: object

>  <halogenbond:PRO:107>  (77) 
halogenbond:PRO:107    0
halogenbond:PRO:107    0
Name: 76, dtype: object

>  <hbond:GLY:108>  (77) 
hbond:GLY:108    0
hbond:GLY:108    0
Name: 76, dtype: object

>  <halogenbond:GLY:108>  (77) 
halogenbond:GLY:108    0
halogenbond:GLY:108    0
Name: 76, dtype: object

>  <hbond:ASP:109>  (77) 
hbond:ASP:109    0
hbond:ASP:109    0
Name: 76, dtype: object

>  <hydroph_interaction:ASP:109>  (77) 
hydroph_interaction:ASP:109    0
hydroph_interaction:ASP:109    0
Name: 76, dtype: object

>  <saltbridge:ASP:109>  (77) 
saltbridge:ASP:109    0
saltbridge:ASP:109    0
Name: 76, dtype: object

>  <hbond:CYS:110>  (77) 
hbond:CYS:110    0
hbond:CYS:110    0
Name: 76, dtype: object

>  <halogenbond:CYS:110>  (77) 
halogenbond:CYS:110    0
halogenbond:CYS:110    0
Name: 76, dtype: object

>  <hbond:GLY:111>  (77) 
hbond:GLY:111    0
hbond:GLY:111    0
Name: 76, dtype: object

>  <hbond:GLY:112>  (77) 
hbond:GLY:112    0
hbond:GLY:112    0
Name: 76, dtype: object

>  <hbond:ILE:113>  (77) 
hbond:ILE:113    0
hbond:ILE:113    0
Name: 76, dtype: object

>  <hydroph_interaction:LEU:114>  (77) 
hydroph_interaction:LEU:114    0
hydroph_interaction:LEU:114    0
Name: 76, dtype: object

>  <hbond:LEU:114>  (77) 
hbond:LEU:114    0
hbond:LEU:114    0
Name: 76, dtype: object

>  <hydroph_interaction:ILE:123>  (77) 
hydroph_interaction:ILE:123    0
hydroph_interaction:ILE:123    0
Name: 76, dtype: object

>  <hbond:ILE:123>  (77) 
hbond:ILE:123    0
hbond:ILE:123    0
Name: 76, dtype: object

>  <hydroph_interaction:VAL:124>  (77) 
hydroph_interaction:VAL:124    0
hydroph_interaction:VAL:124    0
Name: 76, dtype: object

>  <hbond:VAL:124>  (77) 
hbond:VAL:124    0
hbond:VAL:124    0
Name: 76, dtype: object

>  <halogenbond:VAL:124>  (77) 
halogenbond:VAL:124    0
halogenbond:VAL:124    0
Name: 76, dtype: object

>  <hbond:SER:125>  (77) 
hbond:SER:125    0
hbond:SER:125    0
Name: 76, dtype: object

>  <halogenbond:SER:125>  (77) 
halogenbond:SER:125    0
halogenbond:SER:125    0
Name: 76, dtype: object

>  <hydroph_interaction:THR:126>  (77) 
hydroph_interaction:THR:126    0
hydroph_interaction:THR:126    0
Name: 76, dtype: object

>  <hbond:THR:126>  (77) 
hbond:THR:126    0
hbond:THR:126    0
Name: 76, dtype: object

>  <halogenbond:THR:126>  (77) 
halogenbond:THR:126    0
halogenbond:THR:126    0
Name: 76, dtype: object

>  <hbond:GLY:127>  (77) 
hbond:GLY:127    0
hbond:GLY:127    0
Name: 76, dtype: object

>  <halogenbond:GLY:127>  (77) 
halogenbond:GLY:127    0
halogenbond:GLY:127    0
Name: 76, dtype: object

>  <hydroph_interaction:GLY:127>  (77) 
hydroph_interaction:GLY:127    0
hydroph_interaction:GLY:127    0
Name: 76, dtype: object

>  <hbond:GLY:128>  (77) 
hbond:GLY:128    0
hbond:GLY:128    0
Name: 76, dtype: object

>  <halogenbond:GLY:128>  (77) 
halogenbond:GLY:128    0
halogenbond:GLY:128    0
Name: 76, dtype: object

>  <hydroph_interaction:GLY:128>  (77) 
hydroph_interaction:GLY:128    0
hydroph_interaction:GLY:128    0
Name: 76, dtype: object

>  <hbond:ASN:129>  (77) 
hbond:ASN:129    0
hbond:ASN:129    0
Name: 76, dtype: object

>  <hydroph_interaction:ASN:129>  (77) 
hydroph_interaction:ASN:129    0
hydroph_interaction:ASN:129    0
Name: 76, dtype: object

>  <halogenbond:ASN:129>  (77) 
halogenbond:ASN:129    0
halogenbond:ASN:129    0
Name: 76, dtype: object

>  <hbond:GLY:130>  (77) 
hbond:GLY:130    0
hbond:GLY:130    0
Name: 76, dtype: object

>  <hydroph_interaction:LEU:131>  (77) 
hydroph_interaction:LEU:131    0
hydroph_interaction:LEU:131    0
Name: 76, dtype: object

>  <hbond:LEU:131>  (77) 
hbond:LEU:131    0
hbond:LEU:131    0
Name: 76, dtype: object

>  <halogenbond:LEU:131>  (77) 
halogenbond:LEU:131    0
halogenbond:LEU:131    0
Name: 76, dtype: object

>  <hydroph_interaction:VAL:132>  (77) 
hydroph_interaction:VAL:132    0
hydroph_interaction:VAL:132    0
Name: 76, dtype: object

>  <hbond:VAL:132>  (77) 
hbond:VAL:132    0
hbond:VAL:132    0
Name: 76, dtype: object

>  <hbond:GLY:133>  (77) 
hbond:GLY:133    0
hbond:GLY:133    0
Name: 76, dtype: object

>  <halogenbond:GLY:133>  (77) 
halogenbond:GLY:133    0
halogenbond:GLY:133    0
Name: 76, dtype: object

>  <hydroph_interaction:PHE:134>  (77) 
hydroph_interaction:PHE:134    0
hydroph_interaction:PHE:134    0
Name: 76, dtype: object

>  <hbond:PHE:134>  (77) 
hbond:PHE:134    0
hbond:PHE:134    0
Name: 76, dtype: object

>  <pistack:PHE:134>  (77) 
pistack:PHE:134    0
pistack:PHE:134    0
Name: 76, dtype: object

>  <pication:PHE:134>  (77) 
pication:PHE:134    0
pication:PHE:134    0
Name: 76, dtype: object

>  <hydroph_interaction:ALA:135>  (77) 
hydroph_interaction:ALA:135    0
hydroph_interaction:ALA:135    0
Name: 76, dtype: object

>  <hbond:ALA:135>  (77) 
hbond:ALA:135    0
hbond:ALA:135    0
Name: 76, dtype: object

$$$$
Z4209640018
     RDKit          3D

 33 34  0  0  0  0  0  0  0  0999 V2000
   12.2280   15.0290   21.8860 C   0  0  0  0  0  0  0  0  0  0  0  0
   11.6510   14.1770   22.7530 C   0  0  0  0  0  0  0  0  0  0  0  0
   12.0650   14.1240   24.1770 C   0  0  0  0  0  0  0  0  0  0  0  0
   10.5600   13.2330   22.3450 C   0  0  0  0  0  0  0  0  0  0  0  0
    9.8490   12.2720   23.0810 C   0  0  0  0  0  0  0  0  0  0  0  0
   10.0370   10.8840   22.9210 C   0  0  0  0  0  0  0  0  0  0  0  0
    9.3080    9.9660   23.6640 C   0  0  0  0  0  0  0  0  0  0  0  0
    8.3640   10.3990   24.5900 C   0  0  0  0  0  0  0  0  0  0  0  0
    8.1670   11.7600   24.7600 C   0  0  0  0  0  0  0  0  0  0  0  0
    8.8960   12.6650   24.0220 C   0  0  0  0  0  0  0  0  0  0  0  0
    8.6820   13.9810   24.2010 O   0  0  0  0  0  0  0  0  0  0  0  0
    7.3010   14.3030   24.1620 C   0  0  0  0  0  0  0  0  0  0  0  0
    6.4440   13.5330   25.1560 C   0  0  0  0  0  0  0  0  0  0  0  0
    5.8880   14.5050   26.1360 C   0  0  0  0  0  0  0  0  0  0  0  0
    5.0390   14.2550   26.9670 O   0  0  0  0  0  0  0  0  0  0  0  0
    6.3960   15.7460   26.0320 O   0  0  0  0  0  0  0  0  0  0  0  0
    7.1650   12.3080   25.7320 C   0  0  0  0  0  0  0  0  0  0  0  0
   12.3000   14.6700   20.8620 H   0  0  0  0  0  0  0  0  0  0  0  0
   11.8730   16.0520   21.9160 H   0  0  0  0  0  0  0  0  0  0  0  0
   13.2670   15.0880   22.2220 H   0  0  0  0  0  0  0  0  0  0  0  0
   12.8410   13.3610   24.3030 H   0  0  0  0  0  0  0  0  0  0  0  0
   12.4760   15.0900   24.4910 H   0  0  0  0  0  0  0  0  0  0  0  0
   11.2390   13.8780   24.8510 H   0  0  0  0  0  0  0  0  0  0  0  0
   10.3110   13.3600   21.2950 H   0  0  0  0  0  0  0  0  0  0  0  0
   10.7610   10.5150   22.2040 H   0  0  0  0  0  0  0  0  0  0  0  0
    9.4860    8.9150   23.5100 H   0  0  0  0  0  0  0  0  0  0  0  0
    7.7890    9.6870   25.1700 H   0  0  0  0  0  0  0  0  0  0  0  0
    6.9410   14.1400   23.1380 H   0  0  0  0  0  0  0  0  0  0  0  0
    7.2150   15.3780   24.3470 H   0  0  0  0  0  0  0  0  0  0  0  0
    5.5490   13.1840   24.6610 H   0  0  0  0  0  0  0  0  0  0  0  0
    5.8960   16.1300   25.2730 H   0  0  0  0  0  0  0  0  0  0  0  0
    6.4280   11.5140   25.9190 H   0  0  0  0  0  0  0  0  0  0  0  0
    7.6400   12.5370   26.6900 H   0  0  0  0  0  0  0  0  0  0  0  0
  1  2  1  0
  2  3  1  0
  2  4  2  3
  4  5  1  0
  5  6  2  0
  6  7  1  0
  7  8  2  0
  8  9  1  0
  9 10  2  0
 10 11  1  0
 11 12  1  0
 12 13  1  0
 13 14  1  0
 14 15  2  0
 14 16  1  0
 13 17  1  0
 10  5  1  0
 17  9  1  0
  1 18  1  0
  1 19  1  0
  1 20  1  0
  3 21  1  0
  3 22  1  0
  3 23  1  0
  4 24  1  0
  6 25  1  0
  7 26  1  0
  8 27  1  0
 12 28  1  0
 12 29  1  0
 13 30  1  0
 16 31  1  0
 17 32  1  0
 17 33  1  0
A    1
 C1 
A    2
 C2 
A    3
 C3 
A    4
 C4 
A    5
 C5 
A    6
 C6 
A    7
 C7 
A    8
 C8 
A    9
 C9 
A   10
 C10
A   11
 O1 
A   12
 C11
A   13
 C12
A   14
 C13
A   15
 O2 
A   16
 O3 
A   17
 C14
A   18
 H1 
A   19
 H2 
A   20
 H3 
A   21
 H4 
A   22
 H5 
A   23
 H6 
A   24
 H7 
A   25
 H8 
A   26
 H9 
A   27
 H10
A   28
 H11
A   29
 H12
A   30
 H13
A   31
 H14
A   32
 H15
A   33
 H16
M  END
>  <ref_pdb>  (78) 
x0310_0A

>  <ref_mols>  (78) 
x0554_0A,x0416_0A,x0446_0A

>  <original SMILES>  (78) 
CC(C)=Cc1cccc2c1OCC(C(=O)O)C2

>  <rationale>  (78) 
info hydroph_interaction:P107; 

>  <intxn_cluster>  (78) 
208

>  <intxn_cluster_rank>  (78) 
493

>  <N_interactions>  (78) 
2

>  <∆∆G>  (78) 
-10.054722

>  <$/mg>  (78) 
nan

>  <comRMSD>  (78) 
0.830465

>  <N_rotatable_bonds>  (78) 
4

>  <hbond:SER:7>  (78) 
hbond:SER:7    0
hbond:SER:7    0
Name: 77, dtype: object

>  <halogenbond:SER:7>  (78) 
halogenbond:SER:7    0
halogenbond:SER:7    0
Name: 77, dtype: object

>  <hbond:GLY:8>  (78) 
hbond:GLY:8    0
hbond:GLY:8    0
Name: 77, dtype: object

>  <hydroph_interaction:ASN:19>  (78) 
hydroph_interaction:ASN:19    0
hydroph_interaction:ASN:19    0
Name: 77, dtype: object

>  <hbond:ASN:19>  (78) 
hbond:ASN:19    0
hbond:ASN:19    0
Name: 77, dtype: object

>  <halogenbond:ASN:19>  (78) 
halogenbond:ASN:19    0
halogenbond:ASN:19    0
Name: 77, dtype: object

>  <hbond:ARG:20>  (78) 
hbond:ARG:20    0
hbond:ARG:20    0
Name: 77, dtype: object

>  <hydroph_interaction:ARG:20>  (78) 
hydroph_interaction:ARG:20    0
hydroph_interaction:ARG:20    0
Name: 77, dtype: object

>  <saltbridge:ARG:20>  (78) 
saltbridge:ARG:20    0
saltbridge:ARG:20    0
Name: 77, dtype: object

>  <halogenbond:ARG:20>  (78) 
halogenbond:ARG:20    0
halogenbond:ARG:20    0
Name: 77, dtype: object

>  <pication:ARG:20>  (78) 
pication:ARG:20    0
pication:ARG:20    0
Name: 77, dtype: object

>  <hbond:HIS:21>  (78) 
hbond:HIS:21    0
hbond:HIS:21    0
Name: 77, dtype: object

>  <hydroph_interaction:HIS:21>  (78) 
hydroph_interaction:HIS:21    0
hydroph_interaction:HIS:21    0
Name: 77, dtype: object

>  <saltbridge:HIS:21>  (78) 
saltbridge:HIS:21    0
saltbridge:HIS:21    0
Name: 77, dtype: object

>  <pistack:HIS:21>  (78) 
pistack:HIS:21    0
pistack:HIS:21    0
Name: 77, dtype: object

>  <pication:HIS:21>  (78) 
pication:HIS:21    0
pication:HIS:21    0
Name: 77, dtype: object

>  <halogenbond:HIS:21>  (78) 
halogenbond:HIS:21    0
halogenbond:HIS:21    0
Name: 77, dtype: object

>  <hydroph_interaction:LEU:22>  (78) 
hydroph_interaction:LEU:22    0
hydroph_interaction:LEU:22    0
Name: 77, dtype: object

>  <hbond:LEU:22>  (78) 
hbond:LEU:22    0
hbond:LEU:22    0
Name: 77, dtype: object

>  <hydroph_interaction:TRP:28>  (78) 
hydroph_interaction:TRP:28    0
hydroph_interaction:TRP:28    0
Name: 77, dtype: object

>  <hbond:SER:36>  (78) 
hbond:SER:36    0
hbond:SER:36    0
Name: 77, dtype: object

>  <halogenbond:SER:36>  (78) 
halogenbond:SER:36    0
halogenbond:SER:36    0
Name: 77, dtype: object

>  <hbond:ARG:38>  (78) 
hbond:ARG:38    0
hbond:ARG:38    0
Name: 77, dtype: object

>  <halogenbond:ARG:38>  (78) 
halogenbond:ARG:38    0
halogenbond:ARG:38    0
Name: 77, dtype: object

>  <hbond:ASP:39>  (78) 
hbond:ASP:39    0
hbond:ASP:39    0
Name: 77, dtype: object

>  <saltbridge:ASP:39>  (78) 
saltbridge:ASP:39    0
saltbridge:ASP:39    0
Name: 77, dtype: object

>  <hydroph_interaction:ASP:39>  (78) 
hydroph_interaction:ASP:39    0
hydroph_interaction:ASP:39    0
Name: 77, dtype: object

>  <halogenbond:ASP:39>  (78) 
halogenbond:ASP:39    0
halogenbond:ASP:39    0
Name: 77, dtype: object

>  <hydroph_interaction:LEU:40>  (78) 
hydroph_interaction:LEU:40    0
hydroph_interaction:LEU:40    0
Name: 77, dtype: object

>  <hydroph_interaction:TYR:63>  (78) 
hydroph_interaction:TYR:63    0
hydroph_interaction:TYR:63    0
Name: 77, dtype: object

>  <pistack:TYR:63>  (78) 
pistack:TYR:63    0
pistack:TYR:63    0
Name: 77, dtype: object

>  <hbond:TYR:63>  (78) 
hbond:TYR:63    0
hbond:TYR:63    0
Name: 77, dtype: object

>  <hbond:TYR:64>  (78) 
hbond:TYR:64    0
hbond:TYR:64    0
Name: 77, dtype: object

>  <halogenbond:TYR:64>  (78) 
halogenbond:TYR:64    0
halogenbond:TYR:64    0
Name: 77, dtype: object

>  <hydroph_interaction:TYR:64>  (78) 
hydroph_interaction:TYR:64    0
hydroph_interaction:TYR:64    0
Name: 77, dtype: object

>  <hbond:CYS:65>  (78) 
hbond:CYS:65    0
hbond:CYS:65    0
Name: 77, dtype: object

>  <halogenbond:CYS:65>  (78) 
halogenbond:CYS:65    0
halogenbond:CYS:65    0
Name: 77, dtype: object

>  <hbond:SER:66>  (78) 
hbond:SER:66    0
hbond:SER:66    0
Name: 77, dtype: object

>  <hbond:SER:67>  (78) 
hbond:SER:67    0
hbond:SER:67    0
Name: 77, dtype: object

>  <halogenbond:SER:67>  (78) 
halogenbond:SER:67    0
halogenbond:SER:67    0
Name: 77, dtype: object

>  <hydroph_interaction:ARG:68>  (78) 
hydroph_interaction:ARG:68    0
hydroph_interaction:ARG:68    0
Name: 77, dtype: object

>  <hbond:ARG:68>  (78) 
hbond:ARG:68    0
hbond:ARG:68    0
Name: 77, dtype: object

>  <saltbridge:ARG:68>  (78) 
saltbridge:ARG:68    0
saltbridge:ARG:68    0
Name: 77, dtype: object

>  <pication:ARG:68>  (78) 
pication:ARG:68    0
pication:ARG:68    0
Name: 77, dtype: object

>  <hydroph_interaction:TYR:72>  (78) 
hydroph_interaction:TYR:72    0
hydroph_interaction:TYR:72    0
Name: 77, dtype: object

>  <hydroph_interaction:VAL:74>  (78) 
hydroph_interaction:VAL:74    0
hydroph_interaction:VAL:74    0
Name: 77, dtype: object

>  <hydroph_interaction:PHE:76>  (78) 
hydroph_interaction:PHE:76    0
hydroph_interaction:PHE:76    0
Name: 77, dtype: object

>  <hbond:SER:77>  (78) 
hbond:SER:77    0
hbond:SER:77    0
Name: 77, dtype: object

>  <hbond:SER:80>  (78) 
hbond:SER:80    0
hbond:SER:80    0
Name: 77, dtype: object

>  <hbond:LEU:81>  (78) 
hbond:LEU:81    0
hbond:LEU:81    0
Name: 77, dtype: object

>  <halogenbond:LEU:81>  (78) 
halogenbond:LEU:81    0
halogenbond:LEU:81    0
Name: 77, dtype: object

>  <hydroph_interaction:LEU:81>  (78) 
hydroph_interaction:LEU:81    0
hydroph_interaction:LEU:81    0
Name: 77, dtype: object

>  <hydroph_interaction:ILE:82>  (78) 
hydroph_interaction:ILE:82    0
hydroph_interaction:ILE:82    0
Name: 77, dtype: object

>  <hbond:ILE:82>  (78) 
hbond:ILE:82    0
hbond:ILE:82    0
Name: 77, dtype: object

>  <hydroph_interaction:PHE:83>  (78) 
hydroph_interaction:PHE:83    0
hydroph_interaction:PHE:83    0
Name: 77, dtype: object

>  <hbond:PHE:83>  (78) 
hbond:PHE:83    0
hbond:PHE:83    0
Name: 77, dtype: object

>  <halogenbond:PHE:83>  (78) 
halogenbond:PHE:83    0
halogenbond:PHE:83    0
Name: 77, dtype: object

>  <pistack:PHE:83>  (78) 
pistack:PHE:83    0
pistack:PHE:83    0
Name: 77, dtype: object

>  <hydroph_interaction:VAL:84>  (78) 
hydroph_interaction:VAL:84    0
hydroph_interaction:VAL:84    0
Name: 77, dtype: object

>  <hbond:VAL:84>  (78) 
hbond:VAL:84    0
hbond:VAL:84    0
Name: 77, dtype: object

>  <halogenbond:VAL:84>  (78) 
halogenbond:VAL:84    0
halogenbond:VAL:84    0
Name: 77, dtype: object

>  <hydroph_interaction:GLU:85>  (78) 
hydroph_interaction:GLU:85    0
hydroph_interaction:GLU:85    0
Name: 77, dtype: object

>  <hbond:GLU:85>  (78) 
hbond:GLU:85    0
hbond:GLU:85    0
Name: 77, dtype: object

>  <saltbridge:GLU:85>  (78) 
saltbridge:GLU:85    0
saltbridge:GLU:85    0
Name: 77, dtype: object

>  <halogenbond:GLU:85>  (78) 
halogenbond:GLU:85    0
halogenbond:GLU:85    0
Name: 77, dtype: object

>  <hbond:ALA:86>  (78) 
hbond:ALA:86    0
hbond:ALA:86    0
Name: 77, dtype: object

>  <halogenbond:ALA:86>  (78) 
halogenbond:ALA:86    0
halogenbond:ALA:86    0
Name: 77, dtype: object

>  <hydroph_interaction:ALA:86>  (78) 
hydroph_interaction:ALA:86    0
hydroph_interaction:ALA:86    0
Name: 77, dtype: object

>  <hbond:SER:87>  (78) 
hbond:SER:87    0
hbond:SER:87    0
Name: 77, dtype: object

>  <halogenbond:SER:87>  (78) 
halogenbond:SER:87    0
halogenbond:SER:87    0
Name: 77, dtype: object

>  <hbond:GLU:88>  (78) 
hbond:GLU:88    0
hbond:GLU:88    0
Name: 77, dtype: object

>  <hydroph_interaction:GLU:88>  (78) 
hydroph_interaction:GLU:88    0
hydroph_interaction:GLU:88    0
Name: 77, dtype: object

>  <halogenbond:GLU:88>  (78) 
halogenbond:GLU:88    0
halogenbond:GLU:88    0
Name: 77, dtype: object

>  <saltbridge:GLU:88>  (78) 
saltbridge:GLU:88    0
saltbridge:GLU:88    0
Name: 77, dtype: object

>  <hydroph_interaction:TYR:89>  (78) 
hydroph_interaction:TYR:89    0
hydroph_interaction:TYR:89    0
Name: 77, dtype: object

>  <pistack:TYR:89>  (78) 
pistack:TYR:89    0
pistack:TYR:89    0
Name: 77, dtype: object

>  <hbond:TYR:89>  (78) 
hbond:TYR:89    0
hbond:TYR:89    0
Name: 77, dtype: object

>  <halogenbond:TYR:89>  (78) 
halogenbond:TYR:89    0
halogenbond:TYR:89    0
Name: 77, dtype: object

>  <hbond:TYR:90>  (78) 
hbond:TYR:90    0
hbond:TYR:90    0
Name: 77, dtype: object

>  <hydroph_interaction:TYR:90>  (78) 
hydroph_interaction:TYR:90    0
hydroph_interaction:TYR:90    0
Name: 77, dtype: object

>  <pistack:TYR:90>  (78) 
pistack:TYR:90    0
pistack:TYR:90    0
Name: 77, dtype: object

>  <halogenbond:TYR:90>  (78) 
halogenbond:TYR:90    0
halogenbond:TYR:90    0
Name: 77, dtype: object

>  <pication:TYR:90>  (78) 
pication:TYR:90    0
pication:TYR:90    0
Name: 77, dtype: object

>  <hydroph_interaction:PRO:91>  (78) 
hydroph_interaction:PRO:91    0
hydroph_interaction:PRO:91    0
Name: 77, dtype: object

>  <halogenbond:PRO:91>  (78) 
halogenbond:PRO:91    0
halogenbond:PRO:91    0
Name: 77, dtype: object

>  <hbond:PRO:91>  (78) 
hbond:PRO:91    0
hbond:PRO:91    0
Name: 77, dtype: object

>  <hydroph_interaction:ALA:92>  (78) 
hydroph_interaction:ALA:92    0
hydroph_interaction:ALA:92    0
Name: 77, dtype: object

>  <hbond:ARG:93>  (78) 
hbond:ARG:93    0
hbond:ARG:93    0
Name: 77, dtype: object

>  <pication:ARG:93>  (78) 
pication:ARG:93    0
pication:ARG:93    0
Name: 77, dtype: object

>  <saltbridge:ARG:93>  (78) 
saltbridge:ARG:93    0
saltbridge:ARG:93    0
Name: 77, dtype: object

>  <hydroph_interaction:ARG:93>  (78) 
hydroph_interaction:ARG:93    0
hydroph_interaction:ARG:93    0
Name: 77, dtype: object

>  <halogenbond:ARG:93>  (78) 
halogenbond:ARG:93    0
halogenbond:ARG:93    0
Name: 77, dtype: object

>  <hydroph_interaction:TYR:94>  (78) 
hydroph_interaction:TYR:94    0
hydroph_interaction:TYR:94    0
Name: 77, dtype: object

>  <hbond:TYR:94>  (78) 
hbond:TYR:94    0
hbond:TYR:94    0
Name: 77, dtype: object

>  <halogenbond:GLN:95>  (78) 
halogenbond:GLN:95    0
halogenbond:GLN:95    0
Name: 77, dtype: object

>  <hbond:GLN:95>  (78) 
hbond:GLN:95    0
hbond:GLN:95    0
Name: 77, dtype: object

>  <hydroph_interaction:GLN:95>  (78) 
hydroph_interaction:GLN:95    0
hydroph_interaction:GLN:95    0
Name: 77, dtype: object

>  <hbond:SER:96>  (78) 
hbond:SER:96    0
hbond:SER:96    0
Name: 77, dtype: object

>  <hydroph_interaction:LEU:98>  (78) 
hydroph_interaction:LEU:98    0
hydroph_interaction:LEU:98    0
Name: 77, dtype: object

>  <hbond:LEU:98>  (78) 
hbond:LEU:98    0
hbond:LEU:98    0
Name: 77, dtype: object

>  <hbond:MET:99>  (78) 
hbond:MET:99    0
hbond:MET:99    0
Name: 77, dtype: object

>  <hydroph_interaction:MET:99>  (78) 
hydroph_interaction:MET:99    0
hydroph_interaction:MET:99    0
Name: 77, dtype: object

>  <halogenbond:MET:99>  (78) 
halogenbond:MET:99    0
halogenbond:MET:99    0
Name: 77, dtype: object

>  <hydroph_interaction:LEU:100>  (78) 
hydroph_interaction:LEU:100    0
hydroph_interaction:LEU:100    0
Name: 77, dtype: object

>  <hbond:LEU:100>  (78) 
hbond:LEU:100    0
hbond:LEU:100    0
Name: 77, dtype: object

>  <hbond:ALA:101>  (78) 
hbond:ALA:101    0
hbond:ALA:101    0
Name: 77, dtype: object

>  <hydroph_interaction:ALA:101>  (78) 
hydroph_interaction:ALA:101    0
hydroph_interaction:ALA:101    0
Name: 77, dtype: object

>  <hydroph_interaction:VAL:102>  (78) 
hydroph_interaction:VAL:102    0
hydroph_interaction:VAL:102    0
Name: 77, dtype: object

>  <hbond:VAL:102>  (78) 
hbond:VAL:102    0
hbond:VAL:102    0
Name: 77, dtype: object

>  <hbond:GLY:103>  (78) 
hbond:GLY:103    0
hbond:GLY:103    0
Name: 77, dtype: object

>  <halogenbond:GLY:103>  (78) 
halogenbond:GLY:103    0
halogenbond:GLY:103    0
Name: 77, dtype: object

>  <hydroph_interaction:HIS:104>  (78) 
hydroph_interaction:HIS:104    0
hydroph_interaction:HIS:104    0
Name: 77, dtype: object

>  <hbond:HIS:104>  (78) 
hbond:HIS:104    0
hbond:HIS:104    0
Name: 77, dtype: object

>  <saltbridge:HIS:104>  (78) 
saltbridge:HIS:104    0
saltbridge:HIS:104    0
Name: 77, dtype: object

>  <pication:HIS:104>  (78) 
pication:HIS:104    0
pication:HIS:104    0
Name: 77, dtype: object

>  <pistack:HIS:104>  (78) 
pistack:HIS:104    0
pistack:HIS:104    0
Name: 77, dtype: object

>  <halogenbond:HIS:104>  (78) 
halogenbond:HIS:104    0
halogenbond:HIS:104    0
Name: 77, dtype: object

>  <hbond:SER:105>  (78) 
hbond:SER:105    0
hbond:SER:105    0
Name: 77, dtype: object

>  <halogenbond:SER:105>  (78) 
halogenbond:SER:105    0
halogenbond:SER:105    0
Name: 77, dtype: object

>  <hbond:GLU:106>  (78) 
hbond:GLU:106    0
hbond:GLU:106    0
Name: 77, dtype: object

>  <hydroph_interaction:GLU:106>  (78) 
hydroph_interaction:GLU:106    0
hydroph_interaction:GLU:106    0
Name: 77, dtype: object

>  <saltbridge:GLU:106>  (78) 
saltbridge:GLU:106    0
saltbridge:GLU:106    0
Name: 77, dtype: object

>  <halogenbond:GLU:106>  (78) 
halogenbond:GLU:106    0
halogenbond:GLU:106    0
Name: 77, dtype: object

>  <hydroph_interaction:PRO:107>  (78) 
hydroph_interaction:PRO:107    2
hydroph_interaction:PRO:107    2
Name: 77, dtype: object

>  <hbond:PRO:107>  (78) 
hbond:PRO:107    0
hbond:PRO:107    0
Name: 77, dtype: object

>  <halogenbond:PRO:107>  (78) 
halogenbond:PRO:107    0
halogenbond:PRO:107    0
Name: 77, dtype: object

>  <hbond:GLY:108>  (78) 
hbond:GLY:108    0
hbond:GLY:108    0
Name: 77, dtype: object

>  <halogenbond:GLY:108>  (78) 
halogenbond:GLY:108    0
halogenbond:GLY:108    0
Name: 77, dtype: object

>  <hbond:ASP:109>  (78) 
hbond:ASP:109    0
hbond:ASP:109    0
Name: 77, dtype: object

>  <hydroph_interaction:ASP:109>  (78) 
hydroph_interaction:ASP:109    0
hydroph_interaction:ASP:109    0
Name: 77, dtype: object

>  <saltbridge:ASP:109>  (78) 
saltbridge:ASP:109    0
saltbridge:ASP:109    0
Name: 77, dtype: object

>  <hbond:CYS:110>  (78) 
hbond:CYS:110    0
hbond:CYS:110    0
Name: 77, dtype: object

>  <halogenbond:CYS:110>  (78) 
halogenbond:CYS:110    0
halogenbond:CYS:110    0
Name: 77, dtype: object

>  <hbond:GLY:111>  (78) 
hbond:GLY:111    0
hbond:GLY:111    0
Name: 77, dtype: object

>  <hbond:GLY:112>  (78) 
hbond:GLY:112    0
hbond:GLY:112    0
Name: 77, dtype: object

>  <hbond:ILE:113>  (78) 
hbond:ILE:113    0
hbond:ILE:113    0
Name: 77, dtype: object

>  <hydroph_interaction:LEU:114>  (78) 
hydroph_interaction:LEU:114    0
hydroph_interaction:LEU:114    0
Name: 77, dtype: object

>  <hbond:LEU:114>  (78) 
hbond:LEU:114    0
hbond:LEU:114    0
Name: 77, dtype: object

>  <hydroph_interaction:ILE:123>  (78) 
hydroph_interaction:ILE:123    0
hydroph_interaction:ILE:123    0
Name: 77, dtype: object

>  <hbond:ILE:123>  (78) 
hbond:ILE:123    0
hbond:ILE:123    0
Name: 77, dtype: object

>  <hydroph_interaction:VAL:124>  (78) 
hydroph_interaction:VAL:124    0
hydroph_interaction:VAL:124    0
Name: 77, dtype: object

>  <hbond:VAL:124>  (78) 
hbond:VAL:124    0
hbond:VAL:124    0
Name: 77, dtype: object

>  <halogenbond:VAL:124>  (78) 
halogenbond:VAL:124    0
halogenbond:VAL:124    0
Name: 77, dtype: object

>  <hbond:SER:125>  (78) 
hbond:SER:125    0
hbond:SER:125    0
Name: 77, dtype: object

>  <halogenbond:SER:125>  (78) 
halogenbond:SER:125    0
halogenbond:SER:125    0
Name: 77, dtype: object

>  <hydroph_interaction:THR:126>  (78) 
hydroph_interaction:THR:126    0
hydroph_interaction:THR:126    0
Name: 77, dtype: object

>  <hbond:THR:126>  (78) 
hbond:THR:126    0
hbond:THR:126    0
Name: 77, dtype: object

>  <halogenbond:THR:126>  (78) 
halogenbond:THR:126    0
halogenbond:THR:126    0
Name: 77, dtype: object

>  <hbond:GLY:127>  (78) 
hbond:GLY:127    0
hbond:GLY:127    0
Name: 77, dtype: object

>  <halogenbond:GLY:127>  (78) 
halogenbond:GLY:127    0
halogenbond:GLY:127    0
Name: 77, dtype: object

>  <hydroph_interaction:GLY:127>  (78) 
hydroph_interaction:GLY:127    0
hydroph_interaction:GLY:127    0
Name: 77, dtype: object

>  <hbond:GLY:128>  (78) 
hbond:GLY:128    0
hbond:GLY:128    0
Name: 77, dtype: object

>  <halogenbond:GLY:128>  (78) 
halogenbond:GLY:128    0
halogenbond:GLY:128    0
Name: 77, dtype: object

>  <hydroph_interaction:GLY:128>  (78) 
hydroph_interaction:GLY:128    0
hydroph_interaction:GLY:128    0
Name: 77, dtype: object

>  <hbond:ASN:129>  (78) 
hbond:ASN:129    0
hbond:ASN:129    0
Name: 77, dtype: object

>  <hydroph_interaction:ASN:129>  (78) 
hydroph_interaction:ASN:129    0
hydroph_interaction:ASN:129    0
Name: 77, dtype: object

>  <halogenbond:ASN:129>  (78) 
halogenbond:ASN:129    0
halogenbond:ASN:129    0
Name: 77, dtype: object

>  <hbond:GLY:130>  (78) 
hbond:GLY:130    0
hbond:GLY:130    0
Name: 77, dtype: object

>  <hydroph_interaction:LEU:131>  (78) 
hydroph_interaction:LEU:131    0
hydroph_interaction:LEU:131    0
Name: 77, dtype: object

>  <hbond:LEU:131>  (78) 
hbond:LEU:131    0
hbond:LEU:131    0
Name: 77, dtype: object

>  <halogenbond:LEU:131>  (78) 
halogenbond:LEU:131    0
halogenbond:LEU:131    0
Name: 77, dtype: object

>  <hydroph_interaction:VAL:132>  (78) 
hydroph_interaction:VAL:132    0
hydroph_interaction:VAL:132    0
Name: 77, dtype: object

>  <hbond:VAL:132>  (78) 
hbond:VAL:132    0
hbond:VAL:132    0
Name: 77, dtype: object

>  <hbond:GLY:133>  (78) 
hbond:GLY:133    0
hbond:GLY:133    0
Name: 77, dtype: object

>  <halogenbond:GLY:133>  (78) 
halogenbond:GLY:133    0
halogenbond:GLY:133    0
Name: 77, dtype: object

>  <hydroph_interaction:PHE:134>  (78) 
hydroph_interaction:PHE:134    0
hydroph_interaction:PHE:134    0
Name: 77, dtype: object

>  <hbond:PHE:134>  (78) 
hbond:PHE:134    0
hbond:PHE:134    0
Name: 77, dtype: object

>  <pistack:PHE:134>  (78) 
pistack:PHE:134    0
pistack:PHE:134    0
Name: 77, dtype: object

>  <pication:PHE:134>  (78) 
pication:PHE:134    0
pication:PHE:134    0
Name: 77, dtype: object

>  <hydroph_interaction:ALA:135>  (78) 
hydroph_interaction:ALA:135    0
hydroph_interaction:ALA:135    0
Name: 77, dtype: object

>  <hbond:ALA:135>  (78) 
hbond:ALA:135    0
hbond:ALA:135    0
Name: 77, dtype: object

$$$$
PV_002909633550
     RDKit          3D

 20 20  0  0  0  0  0  0  0  0999 V2000
   10.2800    9.3050   22.4960 C   0  0  0  0  0  0  0  0  0  0  0  0
    9.5730   10.3460   23.3340 C   0  0  0  0  0  0  0  0  0  0  0  0
    8.6200    9.9410   24.2410 C   0  0  0  0  0  0  0  0  0  0  0  0
    7.9460   10.8550   25.0360 C   0  0  0  0  0  0  0  0  0  0  0  0
    8.2260   12.2000   24.9300 C   0  0  0  0  0  0  0  0  0  0  0  0
    7.3080   13.2990   26.0140 S   0  0  0  0  0  4  0  0  0  0  0  0
    7.0860   14.6820   24.8730 C   0  0  0  0  0  0  0  0  0  0  0  0
    5.9880   12.6220   26.2510 O   0  0  0  0  0  0  0  0  0  0  0  0
    9.1890   12.6330   24.0100 C   0  0  0  0  0  0  0  0  0  0  0  0
    9.4840   13.9350   23.8790 F   0  0  0  0  0  0  0  0  0  0  0  0
    9.8470   11.7030   23.2250 C   0  0  0  0  0  0  0  0  0  0  0  0
   10.9730    8.7000   23.0910 H   0  0  0  0  0  0  0  0  0  0  0  0
    9.5560    8.6400   22.0270 H   0  0  0  0  0  0  0  0  0  0  0  0
   10.8500    9.7750   21.7000 H   0  0  0  0  0  0  0  0  0  0  0  0
    8.4080    8.8930   24.3180 H   0  0  0  0  0  0  0  0  0  0  0  0
    7.1970   10.5470   25.7520 H   0  0  0  0  0  0  0  0  0  0  0  0
    7.8200   15.4660   25.0690 H   0  0  0  0  0  0  0  0  0  0  0  0
    6.0890   15.0920   25.0180 H   0  0  0  0  0  0  0  0  0  0  0  0
    7.1770   14.3270   23.8400 H   0  0  0  0  0  0  0  0  0  0  0  0
   10.5830   12.1320   22.5360 H   0  0  0  0  0  0  0  0  0  0  0  0
  1  2  1  0
  2  3  2  0
  3  4  1  0
  4  5  2  0
  5  6  1  0
  6  7  1  0
  6  8  2  0
  5  9  1  0
  9 10  1  0
  9 11  2  0
 11  2  1  0
  1 12  1  0
  1 13  1  0
  1 14  1  0
  3 15  1  0
  4 16  1  0
  7 17  1  0
  7 18  1  0
  7 19  1  0
 11 20  1  0
A    1
 C1 
A    2
 C2 
A    3
 C3 
A    4
 C4 
A    5
 C5 
A    6
 S1 
A    7
 C6 
A    8
 O1 
A    9
 C7 
A   10
 F1 
A   11
 C8 
A   12
 H1 
A   13
 H2 
A   14
 H3 
A   15
 H4 
A   16
 H5 
A   17
 H6 
A   18
 H7 
A   19
 H8 
A   20
 H9 
M  END
>  <ref_pdb>  (79) 
x0310_0A

>  <ref_mols>  (79) 
x0416_0A,x0515_0A,x0528_0A

>  <original SMILES>  (79) 
Cc1ccc(S(C)=O)c(F)c1

>  <rationale>  (79) 
info hydroph_interaction:V124; 

>  <intxn_cluster>  (79) 
103

>  <intxn_cluster_rank>  (79) 
495

>  <N_interactions>  (79) 
1

>  <∆∆G>  (79) 
-8.645028

>  <$/mg>  (79) 
nan

>  <comRMSD>  (79) 
0.865443

>  <N_rotatable_bonds>  (79) 
3

>  <hbond:SER:7>  (79) 
hbond:SER:7    0
hbond:SER:7    0
Name: 78, dtype: object

>  <halogenbond:SER:7>  (79) 
halogenbond:SER:7    0
halogenbond:SER:7    0
Name: 78, dtype: object

>  <hbond:GLY:8>  (79) 
hbond:GLY:8    0
hbond:GLY:8    0
Name: 78, dtype: object

>  <hydroph_interaction:ASN:19>  (79) 
hydroph_interaction:ASN:19    0
hydroph_interaction:ASN:19    0
Name: 78, dtype: object

>  <hbond:ASN:19>  (79) 
hbond:ASN:19    0
hbond:ASN:19    0
Name: 78, dtype: object

>  <halogenbond:ASN:19>  (79) 
halogenbond:ASN:19    0
halogenbond:ASN:19    0
Name: 78, dtype: object

>  <hbond:ARG:20>  (79) 
hbond:ARG:20    0
hbond:ARG:20    0
Name: 78, dtype: object

>  <hydroph_interaction:ARG:20>  (79) 
hydroph_interaction:ARG:20    0
hydroph_interaction:ARG:20    0
Name: 78, dtype: object

>  <saltbridge:ARG:20>  (79) 
saltbridge:ARG:20    0
saltbridge:ARG:20    0
Name: 78, dtype: object

>  <halogenbond:ARG:20>  (79) 
halogenbond:ARG:20    0
halogenbond:ARG:20    0
Name: 78, dtype: object

>  <pication:ARG:20>  (79) 
pication:ARG:20    0
pication:ARG:20    0
Name: 78, dtype: object

>  <hbond:HIS:21>  (79) 
hbond:HIS:21    0
hbond:HIS:21    0
Name: 78, dtype: object

>  <hydroph_interaction:HIS:21>  (79) 
hydroph_interaction:HIS:21    0
hydroph_interaction:HIS:21    0
Name: 78, dtype: object

>  <saltbridge:HIS:21>  (79) 
saltbridge:HIS:21    0
saltbridge:HIS:21    0
Name: 78, dtype: object

>  <pistack:HIS:21>  (79) 
pistack:HIS:21    0
pistack:HIS:21    0
Name: 78, dtype: object

>  <pication:HIS:21>  (79) 
pication:HIS:21    0
pication:HIS:21    0
Name: 78, dtype: object

>  <halogenbond:HIS:21>  (79) 
halogenbond:HIS:21    0
halogenbond:HIS:21    0
Name: 78, dtype: object

>  <hydroph_interaction:LEU:22>  (79) 
hydroph_interaction:LEU:22    0
hydroph_interaction:LEU:22    0
Name: 78, dtype: object

>  <hbond:LEU:22>  (79) 
hbond:LEU:22    0
hbond:LEU:22    0
Name: 78, dtype: object

>  <hydroph_interaction:TRP:28>  (79) 
hydroph_interaction:TRP:28    0
hydroph_interaction:TRP:28    0
Name: 78, dtype: object

>  <hbond:SER:36>  (79) 
hbond:SER:36    0
hbond:SER:36    0
Name: 78, dtype: object

>  <halogenbond:SER:36>  (79) 
halogenbond:SER:36    0
halogenbond:SER:36    0
Name: 78, dtype: object

>  <hbond:ARG:38>  (79) 
hbond:ARG:38    0
hbond:ARG:38    0
Name: 78, dtype: object

>  <halogenbond:ARG:38>  (79) 
halogenbond:ARG:38    0
halogenbond:ARG:38    0
Name: 78, dtype: object

>  <hbond:ASP:39>  (79) 
hbond:ASP:39    0
hbond:ASP:39    0
Name: 78, dtype: object

>  <saltbridge:ASP:39>  (79) 
saltbridge:ASP:39    0
saltbridge:ASP:39    0
Name: 78, dtype: object

>  <hydroph_interaction:ASP:39>  (79) 
hydroph_interaction:ASP:39    0
hydroph_interaction:ASP:39    0
Name: 78, dtype: object

>  <halogenbond:ASP:39>  (79) 
halogenbond:ASP:39    0
halogenbond:ASP:39    0
Name: 78, dtype: object

>  <hydroph_interaction:LEU:40>  (79) 
hydroph_interaction:LEU:40    0
hydroph_interaction:LEU:40    0
Name: 78, dtype: object

>  <hydroph_interaction:TYR:63>  (79) 
hydroph_interaction:TYR:63    0
hydroph_interaction:TYR:63    0
Name: 78, dtype: object

>  <pistack:TYR:63>  (79) 
pistack:TYR:63    0
pistack:TYR:63    0
Name: 78, dtype: object

>  <hbond:TYR:63>  (79) 
hbond:TYR:63    0
hbond:TYR:63    0
Name: 78, dtype: object

>  <hbond:TYR:64>  (79) 
hbond:TYR:64    0
hbond:TYR:64    0
Name: 78, dtype: object

>  <halogenbond:TYR:64>  (79) 
halogenbond:TYR:64    0
halogenbond:TYR:64    0
Name: 78, dtype: object

>  <hydroph_interaction:TYR:64>  (79) 
hydroph_interaction:TYR:64    0
hydroph_interaction:TYR:64    0
Name: 78, dtype: object

>  <hbond:CYS:65>  (79) 
hbond:CYS:65    0
hbond:CYS:65    0
Name: 78, dtype: object

>  <halogenbond:CYS:65>  (79) 
halogenbond:CYS:65    0
halogenbond:CYS:65    0
Name: 78, dtype: object

>  <hbond:SER:66>  (79) 
hbond:SER:66    0
hbond:SER:66    0
Name: 78, dtype: object

>  <hbond:SER:67>  (79) 
hbond:SER:67    0
hbond:SER:67    0
Name: 78, dtype: object

>  <halogenbond:SER:67>  (79) 
halogenbond:SER:67    0
halogenbond:SER:67    0
Name: 78, dtype: object

>  <hydroph_interaction:ARG:68>  (79) 
hydroph_interaction:ARG:68    0
hydroph_interaction:ARG:68    0
Name: 78, dtype: object

>  <hbond:ARG:68>  (79) 
hbond:ARG:68    0
hbond:ARG:68    0
Name: 78, dtype: object

>  <saltbridge:ARG:68>  (79) 
saltbridge:ARG:68    0
saltbridge:ARG:68    0
Name: 78, dtype: object

>  <pication:ARG:68>  (79) 
pication:ARG:68    0
pication:ARG:68    0
Name: 78, dtype: object

>  <hydroph_interaction:TYR:72>  (79) 
hydroph_interaction:TYR:72    0
hydroph_interaction:TYR:72    0
Name: 78, dtype: object

>  <hydroph_interaction:VAL:74>  (79) 
hydroph_interaction:VAL:74    0
hydroph_interaction:VAL:74    0
Name: 78, dtype: object

>  <hydroph_interaction:PHE:76>  (79) 
hydroph_interaction:PHE:76    0
hydroph_interaction:PHE:76    0
Name: 78, dtype: object

>  <hbond:SER:77>  (79) 
hbond:SER:77    0
hbond:SER:77    0
Name: 78, dtype: object

>  <hbond:SER:80>  (79) 
hbond:SER:80    0
hbond:SER:80    0
Name: 78, dtype: object

>  <hbond:LEU:81>  (79) 
hbond:LEU:81    0
hbond:LEU:81    0
Name: 78, dtype: object

>  <halogenbond:LEU:81>  (79) 
halogenbond:LEU:81    0
halogenbond:LEU:81    0
Name: 78, dtype: object

>  <hydroph_interaction:LEU:81>  (79) 
hydroph_interaction:LEU:81    0
hydroph_interaction:LEU:81    0
Name: 78, dtype: object

>  <hydroph_interaction:ILE:82>  (79) 
hydroph_interaction:ILE:82    0
hydroph_interaction:ILE:82    0
Name: 78, dtype: object

>  <hbond:ILE:82>  (79) 
hbond:ILE:82    0
hbond:ILE:82    0
Name: 78, dtype: object

>  <hydroph_interaction:PHE:83>  (79) 
hydroph_interaction:PHE:83    0
hydroph_interaction:PHE:83    0
Name: 78, dtype: object

>  <hbond:PHE:83>  (79) 
hbond:PHE:83    0
hbond:PHE:83    0
Name: 78, dtype: object

>  <halogenbond:PHE:83>  (79) 
halogenbond:PHE:83    0
halogenbond:PHE:83    0
Name: 78, dtype: object

>  <pistack:PHE:83>  (79) 
pistack:PHE:83    0
pistack:PHE:83    0
Name: 78, dtype: object

>  <hydroph_interaction:VAL:84>  (79) 
hydroph_interaction:VAL:84    0
hydroph_interaction:VAL:84    0
Name: 78, dtype: object

>  <hbond:VAL:84>  (79) 
hbond:VAL:84    0
hbond:VAL:84    0
Name: 78, dtype: object

>  <halogenbond:VAL:84>  (79) 
halogenbond:VAL:84    0
halogenbond:VAL:84    0
Name: 78, dtype: object

>  <hydroph_interaction:GLU:85>  (79) 
hydroph_interaction:GLU:85    0
hydroph_interaction:GLU:85    0
Name: 78, dtype: object

>  <hbond:GLU:85>  (79) 
hbond:GLU:85    0
hbond:GLU:85    0
Name: 78, dtype: object

>  <saltbridge:GLU:85>  (79) 
saltbridge:GLU:85    0
saltbridge:GLU:85    0
Name: 78, dtype: object

>  <halogenbond:GLU:85>  (79) 
halogenbond:GLU:85    0
halogenbond:GLU:85    0
Name: 78, dtype: object

>  <hbond:ALA:86>  (79) 
hbond:ALA:86    0
hbond:ALA:86    0
Name: 78, dtype: object

>  <halogenbond:ALA:86>  (79) 
halogenbond:ALA:86    0
halogenbond:ALA:86    0
Name: 78, dtype: object

>  <hydroph_interaction:ALA:86>  (79) 
hydroph_interaction:ALA:86    0
hydroph_interaction:ALA:86    0
Name: 78, dtype: object

>  <hbond:SER:87>  (79) 
hbond:SER:87    0
hbond:SER:87    0
Name: 78, dtype: object

>  <halogenbond:SER:87>  (79) 
halogenbond:SER:87    0
halogenbond:SER:87    0
Name: 78, dtype: object

>  <hbond:GLU:88>  (79) 
hbond:GLU:88    0
hbond:GLU:88    0
Name: 78, dtype: object

>  <hydroph_interaction:GLU:88>  (79) 
hydroph_interaction:GLU:88    0
hydroph_interaction:GLU:88    0
Name: 78, dtype: object

>  <halogenbond:GLU:88>  (79) 
halogenbond:GLU:88    0
halogenbond:GLU:88    0
Name: 78, dtype: object

>  <saltbridge:GLU:88>  (79) 
saltbridge:GLU:88    0
saltbridge:GLU:88    0
Name: 78, dtype: object

>  <hydroph_interaction:TYR:89>  (79) 
hydroph_interaction:TYR:89    0
hydroph_interaction:TYR:89    0
Name: 78, dtype: object

>  <pistack:TYR:89>  (79) 
pistack:TYR:89    0
pistack:TYR:89    0
Name: 78, dtype: object

>  <hbond:TYR:89>  (79) 
hbond:TYR:89    0
hbond:TYR:89    0
Name: 78, dtype: object

>  <halogenbond:TYR:89>  (79) 
halogenbond:TYR:89    0
halogenbond:TYR:89    0
Name: 78, dtype: object

>  <hbond:TYR:90>  (79) 
hbond:TYR:90    0
hbond:TYR:90    0
Name: 78, dtype: object

>  <hydroph_interaction:TYR:90>  (79) 
hydroph_interaction:TYR:90    0
hydroph_interaction:TYR:90    0
Name: 78, dtype: object

>  <pistack:TYR:90>  (79) 
pistack:TYR:90    0
pistack:TYR:90    0
Name: 78, dtype: object

>  <halogenbond:TYR:90>  (79) 
halogenbond:TYR:90    0
halogenbond:TYR:90    0
Name: 78, dtype: object

>  <pication:TYR:90>  (79) 
pication:TYR:90    0
pication:TYR:90    0
Name: 78, dtype: object

>  <hydroph_interaction:PRO:91>  (79) 
hydroph_interaction:PRO:91    0
hydroph_interaction:PRO:91    0
Name: 78, dtype: object

>  <halogenbond:PRO:91>  (79) 
halogenbond:PRO:91    0
halogenbond:PRO:91    0
Name: 78, dtype: object

>  <hbond:PRO:91>  (79) 
hbond:PRO:91    0
hbond:PRO:91    0
Name: 78, dtype: object

>  <hydroph_interaction:ALA:92>  (79) 
hydroph_interaction:ALA:92    0
hydroph_interaction:ALA:92    0
Name: 78, dtype: object

>  <hbond:ARG:93>  (79) 
hbond:ARG:93    0
hbond:ARG:93    0
Name: 78, dtype: object

>  <pication:ARG:93>  (79) 
pication:ARG:93    0
pication:ARG:93    0
Name: 78, dtype: object

>  <saltbridge:ARG:93>  (79) 
saltbridge:ARG:93    0
saltbridge:ARG:93    0
Name: 78, dtype: object

>  <hydroph_interaction:ARG:93>  (79) 
hydroph_interaction:ARG:93    0
hydroph_interaction:ARG:93    0
Name: 78, dtype: object

>  <halogenbond:ARG:93>  (79) 
halogenbond:ARG:93    0
halogenbond:ARG:93    0
Name: 78, dtype: object

>  <hydroph_interaction:TYR:94>  (79) 
hydroph_interaction:TYR:94    0
hydroph_interaction:TYR:94    0
Name: 78, dtype: object

>  <hbond:TYR:94>  (79) 
hbond:TYR:94    0
hbond:TYR:94    0
Name: 78, dtype: object

>  <halogenbond:GLN:95>  (79) 
halogenbond:GLN:95    0
halogenbond:GLN:95    0
Name: 78, dtype: object

>  <hbond:GLN:95>  (79) 
hbond:GLN:95    0
hbond:GLN:95    0
Name: 78, dtype: object

>  <hydroph_interaction:GLN:95>  (79) 
hydroph_interaction:GLN:95    0
hydroph_interaction:GLN:95    0
Name: 78, dtype: object

>  <hbond:SER:96>  (79) 
hbond:SER:96    0
hbond:SER:96    0
Name: 78, dtype: object

>  <hydroph_interaction:LEU:98>  (79) 
hydroph_interaction:LEU:98    0
hydroph_interaction:LEU:98    0
Name: 78, dtype: object

>  <hbond:LEU:98>  (79) 
hbond:LEU:98    0
hbond:LEU:98    0
Name: 78, dtype: object

>  <hbond:MET:99>  (79) 
hbond:MET:99    0
hbond:MET:99    0
Name: 78, dtype: object

>  <hydroph_interaction:MET:99>  (79) 
hydroph_interaction:MET:99    0
hydroph_interaction:MET:99    0
Name: 78, dtype: object

>  <halogenbond:MET:99>  (79) 
halogenbond:MET:99    0
halogenbond:MET:99    0
Name: 78, dtype: object

>  <hydroph_interaction:LEU:100>  (79) 
hydroph_interaction:LEU:100    0
hydroph_interaction:LEU:100    0
Name: 78, dtype: object

>  <hbond:LEU:100>  (79) 
hbond:LEU:100    0
hbond:LEU:100    0
Name: 78, dtype: object

>  <hbond:ALA:101>  (79) 
hbond:ALA:101    0
hbond:ALA:101    0
Name: 78, dtype: object

>  <hydroph_interaction:ALA:101>  (79) 
hydroph_interaction:ALA:101    0
hydroph_interaction:ALA:101    0
Name: 78, dtype: object

>  <hydroph_interaction:VAL:102>  (79) 
hydroph_interaction:VAL:102    0
hydroph_interaction:VAL:102    0
Name: 78, dtype: object

>  <hbond:VAL:102>  (79) 
hbond:VAL:102    0
hbond:VAL:102    0
Name: 78, dtype: object

>  <hbond:GLY:103>  (79) 
hbond:GLY:103    0
hbond:GLY:103    0
Name: 78, dtype: object

>  <halogenbond:GLY:103>  (79) 
halogenbond:GLY:103    0
halogenbond:GLY:103    0
Name: 78, dtype: object

>  <hydroph_interaction:HIS:104>  (79) 
hydroph_interaction:HIS:104    0
hydroph_interaction:HIS:104    0
Name: 78, dtype: object

>  <hbond:HIS:104>  (79) 
hbond:HIS:104    0
hbond:HIS:104    0
Name: 78, dtype: object

>  <saltbridge:HIS:104>  (79) 
saltbridge:HIS:104    0
saltbridge:HIS:104    0
Name: 78, dtype: object

>  <pication:HIS:104>  (79) 
pication:HIS:104    0
pication:HIS:104    0
Name: 78, dtype: object

>  <pistack:HIS:104>  (79) 
pistack:HIS:104    0
pistack:HIS:104    0
Name: 78, dtype: object

>  <halogenbond:HIS:104>  (79) 
halogenbond:HIS:104    0
halogenbond:HIS:104    0
Name: 78, dtype: object

>  <hbond:SER:105>  (79) 
hbond:SER:105    0
hbond:SER:105    0
Name: 78, dtype: object

>  <halogenbond:SER:105>  (79) 
halogenbond:SER:105    0
halogenbond:SER:105    0
Name: 78, dtype: object

>  <hbond:GLU:106>  (79) 
hbond:GLU:106    0
hbond:GLU:106    0
Name: 78, dtype: object

>  <hydroph_interaction:GLU:106>  (79) 
hydroph_interaction:GLU:106    0
hydroph_interaction:GLU:106    0
Name: 78, dtype: object

>  <saltbridge:GLU:106>  (79) 
saltbridge:GLU:106    0
saltbridge:GLU:106    0
Name: 78, dtype: object

>  <halogenbond:GLU:106>  (79) 
halogenbond:GLU:106    0
halogenbond:GLU:106    0
Name: 78, dtype: object

>  <hydroph_interaction:PRO:107>  (79) 
hydroph_interaction:PRO:107    0
hydroph_interaction:PRO:107    0
Name: 78, dtype: object

>  <hbond:PRO:107>  (79) 
hbond:PRO:107    0
hbond:PRO:107    0
Name: 78, dtype: object

>  <halogenbond:PRO:107>  (79) 
halogenbond:PRO:107    0
halogenbond:PRO:107    0
Name: 78, dtype: object

>  <hbond:GLY:108>  (79) 
hbond:GLY:108    0
hbond:GLY:108    0
Name: 78, dtype: object

>  <halogenbond:GLY:108>  (79) 
halogenbond:GLY:108    0
halogenbond:GLY:108    0
Name: 78, dtype: object

>  <hbond:ASP:109>  (79) 
hbond:ASP:109    0
hbond:ASP:109    0
Name: 78, dtype: object

>  <hydroph_interaction:ASP:109>  (79) 
hydroph_interaction:ASP:109    0
hydroph_interaction:ASP:109    0
Name: 78, dtype: object

>  <saltbridge:ASP:109>  (79) 
saltbridge:ASP:109    0
saltbridge:ASP:109    0
Name: 78, dtype: object

>  <hbond:CYS:110>  (79) 
hbond:CYS:110    0
hbond:CYS:110    0
Name: 78, dtype: object

>  <halogenbond:CYS:110>  (79) 
halogenbond:CYS:110    0
halogenbond:CYS:110    0
Name: 78, dtype: object

>  <hbond:GLY:111>  (79) 
hbond:GLY:111    0
hbond:GLY:111    0
Name: 78, dtype: object

>  <hbond:GLY:112>  (79) 
hbond:GLY:112    0
hbond:GLY:112    0
Name: 78, dtype: object

>  <hbond:ILE:113>  (79) 
hbond:ILE:113    0
hbond:ILE:113    0
Name: 78, dtype: object

>  <hydroph_interaction:LEU:114>  (79) 
hydroph_interaction:LEU:114    0
hydroph_interaction:LEU:114    0
Name: 78, dtype: object

>  <hbond:LEU:114>  (79) 
hbond:LEU:114    0
hbond:LEU:114    0
Name: 78, dtype: object

>  <hydroph_interaction:ILE:123>  (79) 
hydroph_interaction:ILE:123    0
hydroph_interaction:ILE:123    0
Name: 78, dtype: object

>  <hbond:ILE:123>  (79) 
hbond:ILE:123    0
hbond:ILE:123    0
Name: 78, dtype: object

>  <hydroph_interaction:VAL:124>  (79) 
hydroph_interaction:VAL:124    1
hydroph_interaction:VAL:124    1
Name: 78, dtype: object

>  <hbond:VAL:124>  (79) 
hbond:VAL:124    0
hbond:VAL:124    0
Name: 78, dtype: object

>  <halogenbond:VAL:124>  (79) 
halogenbond:VAL:124    0
halogenbond:VAL:124    0
Name: 78, dtype: object

>  <hbond:SER:125>  (79) 
hbond:SER:125    0
hbond:SER:125    0
Name: 78, dtype: object

>  <halogenbond:SER:125>  (79) 
halogenbond:SER:125    0
halogenbond:SER:125    0
Name: 78, dtype: object

>  <hydroph_interaction:THR:126>  (79) 
hydroph_interaction:THR:126    0
hydroph_interaction:THR:126    0
Name: 78, dtype: object

>  <hbond:THR:126>  (79) 
hbond:THR:126    0
hbond:THR:126    0
Name: 78, dtype: object

>  <halogenbond:THR:126>  (79) 
halogenbond:THR:126    0
halogenbond:THR:126    0
Name: 78, dtype: object

>  <hbond:GLY:127>  (79) 
hbond:GLY:127    0
hbond:GLY:127    0
Name: 78, dtype: object

>  <halogenbond:GLY:127>  (79) 
halogenbond:GLY:127    0
halogenbond:GLY:127    0
Name: 78, dtype: object

>  <hydroph_interaction:GLY:127>  (79) 
hydroph_interaction:GLY:127    0
hydroph_interaction:GLY:127    0
Name: 78, dtype: object

>  <hbond:GLY:128>  (79) 
hbond:GLY:128    0
hbond:GLY:128    0
Name: 78, dtype: object

>  <halogenbond:GLY:128>  (79) 
halogenbond:GLY:128    0
halogenbond:GLY:128    0
Name: 78, dtype: object

>  <hydroph_interaction:GLY:128>  (79) 
hydroph_interaction:GLY:128    0
hydroph_interaction:GLY:128    0
Name: 78, dtype: object

>  <hbond:ASN:129>  (79) 
hbond:ASN:129    0
hbond:ASN:129    0
Name: 78, dtype: object

>  <hydroph_interaction:ASN:129>  (79) 
hydroph_interaction:ASN:129    0
hydroph_interaction:ASN:129    0
Name: 78, dtype: object

>  <halogenbond:ASN:129>  (79) 
halogenbond:ASN:129    0
halogenbond:ASN:129    0
Name: 78, dtype: object

>  <hbond:GLY:130>  (79) 
hbond:GLY:130    0
hbond:GLY:130    0
Name: 78, dtype: object

>  <hydroph_interaction:LEU:131>  (79) 
hydroph_interaction:LEU:131    0
hydroph_interaction:LEU:131    0
Name: 78, dtype: object

>  <hbond:LEU:131>  (79) 
hbond:LEU:131    0
hbond:LEU:131    0
Name: 78, dtype: object

>  <halogenbond:LEU:131>  (79) 
halogenbond:LEU:131    0
halogenbond:LEU:131    0
Name: 78, dtype: object

>  <hydroph_interaction:VAL:132>  (79) 
hydroph_interaction:VAL:132    0
hydroph_interaction:VAL:132    0
Name: 78, dtype: object

>  <hbond:VAL:132>  (79) 
hbond:VAL:132    0
hbond:VAL:132    0
Name: 78, dtype: object

>  <hbond:GLY:133>  (79) 
hbond:GLY:133    0
hbond:GLY:133    0
Name: 78, dtype: object

>  <halogenbond:GLY:133>  (79) 
halogenbond:GLY:133    0
halogenbond:GLY:133    0
Name: 78, dtype: object

>  <hydroph_interaction:PHE:134>  (79) 
hydroph_interaction:PHE:134    0
hydroph_interaction:PHE:134    0
Name: 78, dtype: object

>  <hbond:PHE:134>  (79) 
hbond:PHE:134    0
hbond:PHE:134    0
Name: 78, dtype: object

>  <pistack:PHE:134>  (79) 
pistack:PHE:134    0
pistack:PHE:134    0
Name: 78, dtype: object

>  <pication:PHE:134>  (79) 
pication:PHE:134    0
pication:PHE:134    0
Name: 78, dtype: object

>  <hydroph_interaction:ALA:135>  (79) 
hydroph_interaction:ALA:135    0
hydroph_interaction:ALA:135    0
Name: 78, dtype: object

>  <hbond:ALA:135>  (79) 
hbond:ALA:135    0
hbond:ALA:135    0
Name: 78, dtype: object

$$$$
Z5452868429
     RDKit          3D

 39 40  0  0  0  0  0  0  0  0999 V2000
   10.1980    9.0460   22.5700 C   0  0  0  0  0  0  0  0  0  0  0  0
    9.6250   10.2130   23.3310 C   0  0  0  0  0  0  0  0  0  0  0  0
   10.1940   11.4730   23.1440 C   0  0  0  0  0  0  0  0  0  0  0  0
    9.6520   12.6640   23.9050 C   0  0  0  0  0  0  0  0  0  0  0  0
   10.2590   13.8960   23.7180 C   0  0  0  0  0  0  0  0  0  0  0  0
    8.5480   12.4520   24.7820 C   0  0  0  0  0  0  0  0  0  0  0  0
    8.0150   13.5440   25.5100 N   0  0  0  0  0  0  0  0  0  0  0  0
    7.3830   14.6770   25.0250 C   0  0  0  0  0  0  0  0  0  0  0  0
    7.0200   14.8730   23.8700 O   0  0  0  0  0  0  0  0  0  0  0  0
    7.1930   15.6900   26.1220 C   0  0  0  0  0  0  0  0  0  0  0  0
    6.3590   15.1950   27.3080 C   0  0  0  0  0  0  0  0  0  0  0  0
    6.6810   16.0040   28.4060 C   0  0  0  0  0  0  0  0  0  0  0  0
    8.0460   16.6340   28.4380 C   0  0  0  0  0  0  0  0  0  0  0  0
    8.7290   16.0590   29.6540 C   0  0  0  0  0  0  0  0  0  0  0  0
    8.8100   16.1100   26.8800 S   0  0  0  0  0  0  0  0  0  0  0  0
    8.0070   11.1590   24.9210 C   0  0  0  0  0  0  0  0  0  0  0  0
    6.8380   10.8590   25.8170 C   0  0  0  0  0  0  0  0  0  0  0  0
    8.5550   10.0760   24.2090 C   0  0  0  0  0  0  0  0  0  0  0  0
   10.8680    8.4540   23.1980 H   0  0  0  0  0  0  0  0  0  0  0  0
    9.4010    8.4060   22.1890 H   0  0  0  0  0  0  0  0  0  0  0  0
   10.7620    9.3900   21.7000 H   0  0  0  0  0  0  0  0  0  0  0  0
   11.0270   11.6010   22.4620 H   0  0  0  0  0  0  0  0  0  0  0  0
   10.2610   14.5930   24.5490 H   0  0  0  0  0  0  0  0  0  0  0  0
   11.3130   13.7380   23.4590 H   0  0  0  0  0  0  0  0  0  0  0  0
    9.7650   14.4030   22.8870 H   0  0  0  0  0  0  0  0  0  0  0  0
    7.8120   13.3560   26.4870 H   0  0  0  0  0  0  0  0  0  0  0  0
    6.7390   16.5940   25.6990 H   0  0  0  0  0  0  0  0  0  0  0  0
    6.5810   14.1400   27.5190 H   0  0  0  0  0  0  0  0  0  0  0  0
    5.2790   15.2570   27.1000 H   0  0  0  0  0  0  0  0  0  0  0  0
    6.5370   15.4120   29.3210 H   0  0  0  0  0  0  0  0  0  0  0  0
    5.9270   16.8040   28.4630 H   0  0  0  0  0  0  0  0  0  0  0  0
    7.9970   17.7320   28.4790 H   0  0  0  0  0  0  0  0  0  0  0  0
    8.5200   14.9830   29.7420 H   0  0  0  0  0  0  0  0  0  0  0  0
    8.3380   16.5290   30.5680 H   0  0  0  0  0  0  0  0  0  0  0  0
    9.8200   16.1990   29.6390 H   0  0  0  0  0  0  0  0  0  0  0  0
    7.1020   10.8000   26.8740 H   0  0  0  0  0  0  0  0  0  0  0  0
    6.1070   11.6720   25.7560 H   0  0  0  0  0  0  0  0  0  0  0  0
    6.3230    9.9480   25.5110 H   0  0  0  0  0  0  0  0  0  0  0  0
    8.1230    9.0930   24.3450 H   0  0  0  0  0  0  0  0  0  0  0  0
  1  2  1  0
  2  3  2  0
  3  4  1  0
  4  5  1  0
  4  6  2  0
  6  7  1  0
  7  8  1  0
  8  9  2  0
  8 10  1  0
 10 11  1  0
 11 12  1  0
 12 13  1  0
 13 14  1  0
 13 15  1  0
  6 16  1  0
 16 17  1  0
 16 18  2  0
 18  2  1  0
 15 10  1  0
  1 19  1  0
  1 20  1  0
  1 21  1  0
  3 22  1  0
  5 23  1  0
  5 24  1  0
  5 25  1  0
  7 26  1  0
 10 27  1  0
 11 28  1  0
 11 29  1  0
 12 30  1  0
 12 31  1  0
 13 32  1  0
 14 33  1  0
 14 34  1  0
 14 35  1  0
 17 36  1  0
 17 37  1  0
 17 38  1  0
 18 39  1  0
A    1
 C1 
A    2
 C2 
A    3
 C3 
A    4
 C4 
A    5
 C5 
A    6
 C6 
A    7
 N1 
A    8
 C7 
A    9
 O1 
A   10
 C8 
A   11
 C9 
A   12
 C10
A   13
 C11
A   14
 C12
A   15
 S1 
A   16
 C13
A   17
 C14
A   18
 C15
A   19
 H1 
A   20
 H2 
A   21
 H3 
A   22
 H4 
A   23
 H5 
A   24
 H6 
A   25
 H7 
A   26
 H8 
A   27
 H9 
A   28
 H10
A   29
 H11
A   30
 H12
A   31
 H13
A   32
 H14
A   33
 H15
A   34
 H16
A   35
 H17
A   36
 H18
A   37
 H19
A   38
 H20
A   39
 H21
M  END
>  <ref_pdb>  (80) 
x0310_0A

>  <ref_mols>  (80) 
x0554_0A,x0812_0A,x0416_0A

>  <original SMILES>  (80) 
Cc1cc(C)c(NC(=O)C2CCC(C)S2)c(C)c1

>  <rationale>  (80) 
info hydroph_interaction:P107+V124; 

>  <intxn_cluster>  (80) 
103

>  <intxn_cluster_rank>  (80) 
511

>  <N_interactions>  (80) 
2

>  <∆∆G>  (80) 
-11.91339

>  <$/mg>  (80) 
nan

>  <comRMSD>  (80) 
0.928993

>  <N_rotatable_bonds>  (80) 
6

>  <hbond:SER:7>  (80) 
hbond:SER:7    0
hbond:SER:7    0
Name: 79, dtype: object

>  <halogenbond:SER:7>  (80) 
halogenbond:SER:7    0
halogenbond:SER:7    0
Name: 79, dtype: object

>  <hbond:GLY:8>  (80) 
hbond:GLY:8    0
hbond:GLY:8    0
Name: 79, dtype: object

>  <hydroph_interaction:ASN:19>  (80) 
hydroph_interaction:ASN:19    0
hydroph_interaction:ASN:19    0
Name: 79, dtype: object

>  <hbond:ASN:19>  (80) 
hbond:ASN:19    0
hbond:ASN:19    0
Name: 79, dtype: object

>  <halogenbond:ASN:19>  (80) 
halogenbond:ASN:19    0
halogenbond:ASN:19    0
Name: 79, dtype: object

>  <hbond:ARG:20>  (80) 
hbond:ARG:20    0
hbond:ARG:20    0
Name: 79, dtype: object

>  <hydroph_interaction:ARG:20>  (80) 
hydroph_interaction:ARG:20    0
hydroph_interaction:ARG:20    0
Name: 79, dtype: object

>  <saltbridge:ARG:20>  (80) 
saltbridge:ARG:20    0
saltbridge:ARG:20    0
Name: 79, dtype: object

>  <halogenbond:ARG:20>  (80) 
halogenbond:ARG:20    0
halogenbond:ARG:20    0
Name: 79, dtype: object

>  <pication:ARG:20>  (80) 
pication:ARG:20    0
pication:ARG:20    0
Name: 79, dtype: object

>  <hbond:HIS:21>  (80) 
hbond:HIS:21    0
hbond:HIS:21    0
Name: 79, dtype: object

>  <hydroph_interaction:HIS:21>  (80) 
hydroph_interaction:HIS:21    0
hydroph_interaction:HIS:21    0
Name: 79, dtype: object

>  <saltbridge:HIS:21>  (80) 
saltbridge:HIS:21    0
saltbridge:HIS:21    0
Name: 79, dtype: object

>  <pistack:HIS:21>  (80) 
pistack:HIS:21    0
pistack:HIS:21    0
Name: 79, dtype: object

>  <pication:HIS:21>  (80) 
pication:HIS:21    0
pication:HIS:21    0
Name: 79, dtype: object

>  <halogenbond:HIS:21>  (80) 
halogenbond:HIS:21    0
halogenbond:HIS:21    0
Name: 79, dtype: object

>  <hydroph_interaction:LEU:22>  (80) 
hydroph_interaction:LEU:22    0
hydroph_interaction:LEU:22    0
Name: 79, dtype: object

>  <hbond:LEU:22>  (80) 
hbond:LEU:22    0
hbond:LEU:22    0
Name: 79, dtype: object

>  <hydroph_interaction:TRP:28>  (80) 
hydroph_interaction:TRP:28    0
hydroph_interaction:TRP:28    0
Name: 79, dtype: object

>  <hbond:SER:36>  (80) 
hbond:SER:36    0
hbond:SER:36    0
Name: 79, dtype: object

>  <halogenbond:SER:36>  (80) 
halogenbond:SER:36    0
halogenbond:SER:36    0
Name: 79, dtype: object

>  <hbond:ARG:38>  (80) 
hbond:ARG:38    0
hbond:ARG:38    0
Name: 79, dtype: object

>  <halogenbond:ARG:38>  (80) 
halogenbond:ARG:38    0
halogenbond:ARG:38    0
Name: 79, dtype: object

>  <hbond:ASP:39>  (80) 
hbond:ASP:39    0
hbond:ASP:39    0
Name: 79, dtype: object

>  <saltbridge:ASP:39>  (80) 
saltbridge:ASP:39    0
saltbridge:ASP:39    0
Name: 79, dtype: object

>  <hydroph_interaction:ASP:39>  (80) 
hydroph_interaction:ASP:39    0
hydroph_interaction:ASP:39    0
Name: 79, dtype: object

>  <halogenbond:ASP:39>  (80) 
halogenbond:ASP:39    0
halogenbond:ASP:39    0
Name: 79, dtype: object

>  <hydroph_interaction:LEU:40>  (80) 
hydroph_interaction:LEU:40    0
hydroph_interaction:LEU:40    0
Name: 79, dtype: object

>  <hydroph_interaction:TYR:63>  (80) 
hydroph_interaction:TYR:63    0
hydroph_interaction:TYR:63    0
Name: 79, dtype: object

>  <pistack:TYR:63>  (80) 
pistack:TYR:63    0
pistack:TYR:63    0
Name: 79, dtype: object

>  <hbond:TYR:63>  (80) 
hbond:TYR:63    0
hbond:TYR:63    0
Name: 79, dtype: object

>  <hbond:TYR:64>  (80) 
hbond:TYR:64    0
hbond:TYR:64    0
Name: 79, dtype: object

>  <halogenbond:TYR:64>  (80) 
halogenbond:TYR:64    0
halogenbond:TYR:64    0
Name: 79, dtype: object

>  <hydroph_interaction:TYR:64>  (80) 
hydroph_interaction:TYR:64    0
hydroph_interaction:TYR:64    0
Name: 79, dtype: object

>  <hbond:CYS:65>  (80) 
hbond:CYS:65    0
hbond:CYS:65    0
Name: 79, dtype: object

>  <halogenbond:CYS:65>  (80) 
halogenbond:CYS:65    0
halogenbond:CYS:65    0
Name: 79, dtype: object

>  <hbond:SER:66>  (80) 
hbond:SER:66    0
hbond:SER:66    0
Name: 79, dtype: object

>  <hbond:SER:67>  (80) 
hbond:SER:67    0
hbond:SER:67    0
Name: 79, dtype: object

>  <halogenbond:SER:67>  (80) 
halogenbond:SER:67    0
halogenbond:SER:67    0
Name: 79, dtype: object

>  <hydroph_interaction:ARG:68>  (80) 
hydroph_interaction:ARG:68    0
hydroph_interaction:ARG:68    0
Name: 79, dtype: object

>  <hbond:ARG:68>  (80) 
hbond:ARG:68    0
hbond:ARG:68    0
Name: 79, dtype: object

>  <saltbridge:ARG:68>  (80) 
saltbridge:ARG:68    0
saltbridge:ARG:68    0
Name: 79, dtype: object

>  <pication:ARG:68>  (80) 
pication:ARG:68    0
pication:ARG:68    0
Name: 79, dtype: object

>  <hydroph_interaction:TYR:72>  (80) 
hydroph_interaction:TYR:72    0
hydroph_interaction:TYR:72    0
Name: 79, dtype: object

>  <hydroph_interaction:VAL:74>  (80) 
hydroph_interaction:VAL:74    0
hydroph_interaction:VAL:74    0
Name: 79, dtype: object

>  <hydroph_interaction:PHE:76>  (80) 
hydroph_interaction:PHE:76    0
hydroph_interaction:PHE:76    0
Name: 79, dtype: object

>  <hbond:SER:77>  (80) 
hbond:SER:77    0
hbond:SER:77    0
Name: 79, dtype: object

>  <hbond:SER:80>  (80) 
hbond:SER:80    0
hbond:SER:80    0
Name: 79, dtype: object

>  <hbond:LEU:81>  (80) 
hbond:LEU:81    0
hbond:LEU:81    0
Name: 79, dtype: object

>  <halogenbond:LEU:81>  (80) 
halogenbond:LEU:81    0
halogenbond:LEU:81    0
Name: 79, dtype: object

>  <hydroph_interaction:LEU:81>  (80) 
hydroph_interaction:LEU:81    0
hydroph_interaction:LEU:81    0
Name: 79, dtype: object

>  <hydroph_interaction:ILE:82>  (80) 
hydroph_interaction:ILE:82    0
hydroph_interaction:ILE:82    0
Name: 79, dtype: object

>  <hbond:ILE:82>  (80) 
hbond:ILE:82    0
hbond:ILE:82    0
Name: 79, dtype: object

>  <hydroph_interaction:PHE:83>  (80) 
hydroph_interaction:PHE:83    0
hydroph_interaction:PHE:83    0
Name: 79, dtype: object

>  <hbond:PHE:83>  (80) 
hbond:PHE:83    0
hbond:PHE:83    0
Name: 79, dtype: object

>  <halogenbond:PHE:83>  (80) 
halogenbond:PHE:83    0
halogenbond:PHE:83    0
Name: 79, dtype: object

>  <pistack:PHE:83>  (80) 
pistack:PHE:83    0
pistack:PHE:83    0
Name: 79, dtype: object

>  <hydroph_interaction:VAL:84>  (80) 
hydroph_interaction:VAL:84    0
hydroph_interaction:VAL:84    0
Name: 79, dtype: object

>  <hbond:VAL:84>  (80) 
hbond:VAL:84    0
hbond:VAL:84    0
Name: 79, dtype: object

>  <halogenbond:VAL:84>  (80) 
halogenbond:VAL:84    0
halogenbond:VAL:84    0
Name: 79, dtype: object

>  <hydroph_interaction:GLU:85>  (80) 
hydroph_interaction:GLU:85    0
hydroph_interaction:GLU:85    0
Name: 79, dtype: object

>  <hbond:GLU:85>  (80) 
hbond:GLU:85    0
hbond:GLU:85    0
Name: 79, dtype: object

>  <saltbridge:GLU:85>  (80) 
saltbridge:GLU:85    0
saltbridge:GLU:85    0
Name: 79, dtype: object

>  <halogenbond:GLU:85>  (80) 
halogenbond:GLU:85    0
halogenbond:GLU:85    0
Name: 79, dtype: object

>  <hbond:ALA:86>  (80) 
hbond:ALA:86    0
hbond:ALA:86    0
Name: 79, dtype: object

>  <halogenbond:ALA:86>  (80) 
halogenbond:ALA:86    0
halogenbond:ALA:86    0
Name: 79, dtype: object

>  <hydroph_interaction:ALA:86>  (80) 
hydroph_interaction:ALA:86    0
hydroph_interaction:ALA:86    0
Name: 79, dtype: object

>  <hbond:SER:87>  (80) 
hbond:SER:87    0
hbond:SER:87    0
Name: 79, dtype: object

>  <halogenbond:SER:87>  (80) 
halogenbond:SER:87    0
halogenbond:SER:87    0
Name: 79, dtype: object

>  <hbond:GLU:88>  (80) 
hbond:GLU:88    0
hbond:GLU:88    0
Name: 79, dtype: object

>  <hydroph_interaction:GLU:88>  (80) 
hydroph_interaction:GLU:88    0
hydroph_interaction:GLU:88    0
Name: 79, dtype: object

>  <halogenbond:GLU:88>  (80) 
halogenbond:GLU:88    0
halogenbond:GLU:88    0
Name: 79, dtype: object

>  <saltbridge:GLU:88>  (80) 
saltbridge:GLU:88    0
saltbridge:GLU:88    0
Name: 79, dtype: object

>  <hydroph_interaction:TYR:89>  (80) 
hydroph_interaction:TYR:89    0
hydroph_interaction:TYR:89    0
Name: 79, dtype: object

>  <pistack:TYR:89>  (80) 
pistack:TYR:89    0
pistack:TYR:89    0
Name: 79, dtype: object

>  <hbond:TYR:89>  (80) 
hbond:TYR:89    0
hbond:TYR:89    0
Name: 79, dtype: object

>  <halogenbond:TYR:89>  (80) 
halogenbond:TYR:89    0
halogenbond:TYR:89    0
Name: 79, dtype: object

>  <hbond:TYR:90>  (80) 
hbond:TYR:90    0
hbond:TYR:90    0
Name: 79, dtype: object

>  <hydroph_interaction:TYR:90>  (80) 
hydroph_interaction:TYR:90    0
hydroph_interaction:TYR:90    0
Name: 79, dtype: object

>  <pistack:TYR:90>  (80) 
pistack:TYR:90    0
pistack:TYR:90    0
Name: 79, dtype: object

>  <halogenbond:TYR:90>  (80) 
halogenbond:TYR:90    0
halogenbond:TYR:90    0
Name: 79, dtype: object

>  <pication:TYR:90>  (80) 
pication:TYR:90    0
pication:TYR:90    0
Name: 79, dtype: object

>  <hydroph_interaction:PRO:91>  (80) 
hydroph_interaction:PRO:91    0
hydroph_interaction:PRO:91    0
Name: 79, dtype: object

>  <halogenbond:PRO:91>  (80) 
halogenbond:PRO:91    0
halogenbond:PRO:91    0
Name: 79, dtype: object

>  <hbond:PRO:91>  (80) 
hbond:PRO:91    0
hbond:PRO:91    0
Name: 79, dtype: object

>  <hydroph_interaction:ALA:92>  (80) 
hydroph_interaction:ALA:92    0
hydroph_interaction:ALA:92    0
Name: 79, dtype: object

>  <hbond:ARG:93>  (80) 
hbond:ARG:93    0
hbond:ARG:93    0
Name: 79, dtype: object

>  <pication:ARG:93>  (80) 
pication:ARG:93    0
pication:ARG:93    0
Name: 79, dtype: object

>  <saltbridge:ARG:93>  (80) 
saltbridge:ARG:93    0
saltbridge:ARG:93    0
Name: 79, dtype: object

>  <hydroph_interaction:ARG:93>  (80) 
hydroph_interaction:ARG:93    0
hydroph_interaction:ARG:93    0
Name: 79, dtype: object

>  <halogenbond:ARG:93>  (80) 
halogenbond:ARG:93    0
halogenbond:ARG:93    0
Name: 79, dtype: object

>  <hydroph_interaction:TYR:94>  (80) 
hydroph_interaction:TYR:94    0
hydroph_interaction:TYR:94    0
Name: 79, dtype: object

>  <hbond:TYR:94>  (80) 
hbond:TYR:94    0
hbond:TYR:94    0
Name: 79, dtype: object

>  <halogenbond:GLN:95>  (80) 
halogenbond:GLN:95    0
halogenbond:GLN:95    0
Name: 79, dtype: object

>  <hbond:GLN:95>  (80) 
hbond:GLN:95    0
hbond:GLN:95    0
Name: 79, dtype: object

>  <hydroph_interaction:GLN:95>  (80) 
hydroph_interaction:GLN:95    0
hydroph_interaction:GLN:95    0
Name: 79, dtype: object

>  <hbond:SER:96>  (80) 
hbond:SER:96    0
hbond:SER:96    0
Name: 79, dtype: object

>  <hydroph_interaction:LEU:98>  (80) 
hydroph_interaction:LEU:98    0
hydroph_interaction:LEU:98    0
Name: 79, dtype: object

>  <hbond:LEU:98>  (80) 
hbond:LEU:98    0
hbond:LEU:98    0
Name: 79, dtype: object

>  <hbond:MET:99>  (80) 
hbond:MET:99    0
hbond:MET:99    0
Name: 79, dtype: object

>  <hydroph_interaction:MET:99>  (80) 
hydroph_interaction:MET:99    0
hydroph_interaction:MET:99    0
Name: 79, dtype: object

>  <halogenbond:MET:99>  (80) 
halogenbond:MET:99    0
halogenbond:MET:99    0
Name: 79, dtype: object

>  <hydroph_interaction:LEU:100>  (80) 
hydroph_interaction:LEU:100    0
hydroph_interaction:LEU:100    0
Name: 79, dtype: object

>  <hbond:LEU:100>  (80) 
hbond:LEU:100    0
hbond:LEU:100    0
Name: 79, dtype: object

>  <hbond:ALA:101>  (80) 
hbond:ALA:101    0
hbond:ALA:101    0
Name: 79, dtype: object

>  <hydroph_interaction:ALA:101>  (80) 
hydroph_interaction:ALA:101    0
hydroph_interaction:ALA:101    0
Name: 79, dtype: object

>  <hydroph_interaction:VAL:102>  (80) 
hydroph_interaction:VAL:102    0
hydroph_interaction:VAL:102    0
Name: 79, dtype: object

>  <hbond:VAL:102>  (80) 
hbond:VAL:102    0
hbond:VAL:102    0
Name: 79, dtype: object

>  <hbond:GLY:103>  (80) 
hbond:GLY:103    0
hbond:GLY:103    0
Name: 79, dtype: object

>  <halogenbond:GLY:103>  (80) 
halogenbond:GLY:103    0
halogenbond:GLY:103    0
Name: 79, dtype: object

>  <hydroph_interaction:HIS:104>  (80) 
hydroph_interaction:HIS:104    0
hydroph_interaction:HIS:104    0
Name: 79, dtype: object

>  <hbond:HIS:104>  (80) 
hbond:HIS:104    0
hbond:HIS:104    0
Name: 79, dtype: object

>  <saltbridge:HIS:104>  (80) 
saltbridge:HIS:104    0
saltbridge:HIS:104    0
Name: 79, dtype: object

>  <pication:HIS:104>  (80) 
pication:HIS:104    0
pication:HIS:104    0
Name: 79, dtype: object

>  <pistack:HIS:104>  (80) 
pistack:HIS:104    0
pistack:HIS:104    0
Name: 79, dtype: object

>  <halogenbond:HIS:104>  (80) 
halogenbond:HIS:104    0
halogenbond:HIS:104    0
Name: 79, dtype: object

>  <hbond:SER:105>  (80) 
hbond:SER:105    0
hbond:SER:105    0
Name: 79, dtype: object

>  <halogenbond:SER:105>  (80) 
halogenbond:SER:105    0
halogenbond:SER:105    0
Name: 79, dtype: object

>  <hbond:GLU:106>  (80) 
hbond:GLU:106    0
hbond:GLU:106    0
Name: 79, dtype: object

>  <hydroph_interaction:GLU:106>  (80) 
hydroph_interaction:GLU:106    0
hydroph_interaction:GLU:106    0
Name: 79, dtype: object

>  <saltbridge:GLU:106>  (80) 
saltbridge:GLU:106    0
saltbridge:GLU:106    0
Name: 79, dtype: object

>  <halogenbond:GLU:106>  (80) 
halogenbond:GLU:106    0
halogenbond:GLU:106    0
Name: 79, dtype: object

>  <hydroph_interaction:PRO:107>  (80) 
hydroph_interaction:PRO:107    1
hydroph_interaction:PRO:107    1
Name: 79, dtype: object

>  <hbond:PRO:107>  (80) 
hbond:PRO:107    0
hbond:PRO:107    0
Name: 79, dtype: object

>  <halogenbond:PRO:107>  (80) 
halogenbond:PRO:107    0
halogenbond:PRO:107    0
Name: 79, dtype: object

>  <hbond:GLY:108>  (80) 
hbond:GLY:108    0
hbond:GLY:108    0
Name: 79, dtype: object

>  <halogenbond:GLY:108>  (80) 
halogenbond:GLY:108    0
halogenbond:GLY:108    0
Name: 79, dtype: object

>  <hbond:ASP:109>  (80) 
hbond:ASP:109    0
hbond:ASP:109    0
Name: 79, dtype: object

>  <hydroph_interaction:ASP:109>  (80) 
hydroph_interaction:ASP:109    0
hydroph_interaction:ASP:109    0
Name: 79, dtype: object

>  <saltbridge:ASP:109>  (80) 
saltbridge:ASP:109    0
saltbridge:ASP:109    0
Name: 79, dtype: object

>  <hbond:CYS:110>  (80) 
hbond:CYS:110    0
hbond:CYS:110    0
Name: 79, dtype: object

>  <halogenbond:CYS:110>  (80) 
halogenbond:CYS:110    0
halogenbond:CYS:110    0
Name: 79, dtype: object

>  <hbond:GLY:111>  (80) 
hbond:GLY:111    0
hbond:GLY:111    0
Name: 79, dtype: object

>  <hbond:GLY:112>  (80) 
hbond:GLY:112    0
hbond:GLY:112    0
Name: 79, dtype: object

>  <hbond:ILE:113>  (80) 
hbond:ILE:113    0
hbond:ILE:113    0
Name: 79, dtype: object

>  <hydroph_interaction:LEU:114>  (80) 
hydroph_interaction:LEU:114    0
hydroph_interaction:LEU:114    0
Name: 79, dtype: object

>  <hbond:LEU:114>  (80) 
hbond:LEU:114    0
hbond:LEU:114    0
Name: 79, dtype: object

>  <hydroph_interaction:ILE:123>  (80) 
hydroph_interaction:ILE:123    0
hydroph_interaction:ILE:123    0
Name: 79, dtype: object

>  <hbond:ILE:123>  (80) 
hbond:ILE:123    0
hbond:ILE:123    0
Name: 79, dtype: object

>  <hydroph_interaction:VAL:124>  (80) 
hydroph_interaction:VAL:124    1
hydroph_interaction:VAL:124    1
Name: 79, dtype: object

>  <hbond:VAL:124>  (80) 
hbond:VAL:124    0
hbond:VAL:124    0
Name: 79, dtype: object

>  <halogenbond:VAL:124>  (80) 
halogenbond:VAL:124    0
halogenbond:VAL:124    0
Name: 79, dtype: object

>  <hbond:SER:125>  (80) 
hbond:SER:125    0
hbond:SER:125    0
Name: 79, dtype: object

>  <halogenbond:SER:125>  (80) 
halogenbond:SER:125    0
halogenbond:SER:125    0
Name: 79, dtype: object

>  <hydroph_interaction:THR:126>  (80) 
hydroph_interaction:THR:126    0
hydroph_interaction:THR:126    0
Name: 79, dtype: object

>  <hbond:THR:126>  (80) 
hbond:THR:126    0
hbond:THR:126    0
Name: 79, dtype: object

>  <halogenbond:THR:126>  (80) 
halogenbond:THR:126    0
halogenbond:THR:126    0
Name: 79, dtype: object

>  <hbond:GLY:127>  (80) 
hbond:GLY:127    0
hbond:GLY:127    0
Name: 79, dtype: object

>  <halogenbond:GLY:127>  (80) 
halogenbond:GLY:127    0
halogenbond:GLY:127    0
Name: 79, dtype: object

>  <hydroph_interaction:GLY:127>  (80) 
hydroph_interaction:GLY:127    0
hydroph_interaction:GLY:127    0
Name: 79, dtype: object

>  <hbond:GLY:128>  (80) 
hbond:GLY:128    0
hbond:GLY:128    0
Name: 79, dtype: object

>  <halogenbond:GLY:128>  (80) 
halogenbond:GLY:128    0
halogenbond:GLY:128    0
Name: 79, dtype: object

>  <hydroph_interaction:GLY:128>  (80) 
hydroph_interaction:GLY:128    0
hydroph_interaction:GLY:128    0
Name: 79, dtype: object

>  <hbond:ASN:129>  (80) 
hbond:ASN:129    0
hbond:ASN:129    0
Name: 79, dtype: object

>  <hydroph_interaction:ASN:129>  (80) 
hydroph_interaction:ASN:129    0
hydroph_interaction:ASN:129    0
Name: 79, dtype: object

>  <halogenbond:ASN:129>  (80) 
halogenbond:ASN:129    0
halogenbond:ASN:129    0
Name: 79, dtype: object

>  <hbond:GLY:130>  (80) 
hbond:GLY:130    0
hbond:GLY:130    0
Name: 79, dtype: object

>  <hydroph_interaction:LEU:131>  (80) 
hydroph_interaction:LEU:131    0
hydroph_interaction:LEU:131    0
Name: 79, dtype: object

>  <hbond:LEU:131>  (80) 
hbond:LEU:131    0
hbond:LEU:131    0
Name: 79, dtype: object

>  <halogenbond:LEU:131>  (80) 
halogenbond:LEU:131    0
halogenbond:LEU:131    0
Name: 79, dtype: object

>  <hydroph_interaction:VAL:132>  (80) 
hydroph_interaction:VAL:132    0
hydroph_interaction:VAL:132    0
Name: 79, dtype: object

>  <hbond:VAL:132>  (80) 
hbond:VAL:132    0
hbond:VAL:132    0
Name: 79, dtype: object

>  <hbond:GLY:133>  (80) 
hbond:GLY:133    0
hbond:GLY:133    0
Name: 79, dtype: object

>  <halogenbond:GLY:133>  (80) 
halogenbond:GLY:133    0
halogenbond:GLY:133    0
Name: 79, dtype: object

>  <hydroph_interaction:PHE:134>  (80) 
hydroph_interaction:PHE:134    0
hydroph_interaction:PHE:134    0
Name: 79, dtype: object

>  <hbond:PHE:134>  (80) 
hbond:PHE:134    0
hbond:PHE:134    0
Name: 79, dtype: object

>  <pistack:PHE:134>  (80) 
pistack:PHE:134    0
pistack:PHE:134    0
Name: 79, dtype: object

>  <pication:PHE:134>  (80) 
pication:PHE:134    0
pication:PHE:134    0
Name: 79, dtype: object

>  <hydroph_interaction:ALA:135>  (80) 
hydroph_interaction:ALA:135    0
hydroph_interaction:ALA:135    0
Name: 79, dtype: object

>  <hbond:ALA:135>  (80) 
hbond:ALA:135    0
hbond:ALA:135    0
Name: 79, dtype: object

$$$$
Z3089472214
     RDKit          3D

 24 24  0  0  0  0  0  0  0  0999 V2000
   12.3410   14.4830   22.1900 C   0  0  0  0  0  0  0  0  0  0  0  0
   11.2970   14.1040   23.1810 C   0  0  0  0  0  0  0  0  0  0  0  0
   11.4410   14.2790   24.3810 O   0  0  0  0  0  0  0  0  0  0  0  0
   10.2020   13.5560   22.5390 O   0  0  0  0  0  0  0  0  0  0  0  0
    9.6630   12.4160   23.1420 C   0  0  0  0  0  0  0  0  0  0  0  0
   10.1550   11.2050   22.7470 C   0  0  0  0  0  0  0  0  0  0  0  0
    9.6460    9.9640   23.2980 C   0  0  0  0  0  0  0  0  0  0  0  0
   10.1970    8.7930   22.8260 C   0  0  0  0  0  0  0  0  0  0  0  0
    8.6380   10.0470   24.2540 C   0  0  0  0  0  0  0  0  0  0  0  0
    8.1390   11.2830   24.6620 C   0  0  0  0  0  0  0  0  0  0  0  0
    7.0460   11.3350   25.6940 C   0  0  0  0  0  0  0  0  0  0  0  0
    8.6550   12.4600   24.1010 C   0  0  0  0  0  0  0  0  0  0  0  0
    7.9620   14.1310   24.6550 Br  0  0  0  0  0  0  0  0  0  0  0  0
   13.2890   14.6850   22.7020 H   0  0  0  0  0  0  0  0  0  0  0  0
   12.0630   15.4050   21.6630 H   0  0  0  0  0  0  0  0  0  0  0  0
   12.4660   13.7020   21.4330 H   0  0  0  0  0  0  0  0  0  0  0  0
   10.9310   11.1710   22.0090 H   0  0  0  0  0  0  0  0  0  0  0  0
   11.1240    9.0400   22.3170 H   0  0  0  0  0  0  0  0  0  0  0  0
    9.5410    8.3790   22.0580 H   0  0  0  0  0  0  0  0  0  0  0  0
   10.4230    8.0040   23.5120 H   0  0  0  0  0  0  0  0  0  0  0  0
    8.2450    9.1370   24.6730 H   0  0  0  0  0  0  0  0  0  0  0  0
    7.2570   11.8160   26.6460 H   0  0  0  0  0  0  0  0  0  0  0  0
    6.1760   11.8290   25.2620 H   0  0  0  0  0  0  0  0  0  0  0  0
    6.7710   10.3130   25.9320 H   0  0  0  0  0  0  0  0  0  0  0  0
  1  2  1  0
  2  3  2  0
  2  4  1  0
  4  5  1  0
  5  6  2  0
  6  7  1  0
  7  8  1  0
  7  9  2  0
  9 10  1  0
 10 11  1  0
 10 12  2  0
 12 13  1  0
 12  5  1  0
  1 14  1  0
  1 15  1  0
  1 16  1  0
  6 17  1  0
  8 18  1  0
  8 19  1  0
  8 20  1  0
  9 21  1  0
 11 22  1  0
 11 23  1  0
 11 24  1  0
A    1
 C1 
A    2
 C2 
A    3
 O1 
A    4
 O2 
A    5
 C3 
A    6
 C4 
A    7
 C5 
A    8
 C6 
A    9
 C7 
A   10
 C8 
A   11
 C9 
A   12
 C10
A   13
BR1 
A   14
 H1 
A   15
 H2 
A   16
 H3 
A   17
 H4 
A   18
 H5 
A   19
 H6 
A   20
 H7 
A   21
 H8 
A   22
 H9 
A   23
 H10
A   24
 H11
M  END
>  <ref_pdb>  (81) 
x0310_0A

>  <ref_mols>  (81) 
x0554_0A,x0739_0A

>  <original SMILES>  (81) 
CC(=O)Oc1cc(C)cc(C)c1Br

>  <rationale>  (81) 
info hydroph_interaction:V124; 

>  <intxn_cluster>  (81) 
103

>  <intxn_cluster_rank>  (81) 
517

>  <N_interactions>  (81) 
1

>  <∆∆G>  (81) 
-10.63663

>  <$/mg>  (81) 
nan

>  <comRMSD>  (81) 
0.90641

>  <N_rotatable_bonds>  (81) 
4

>  <hbond:SER:7>  (81) 
hbond:SER:7    0
hbond:SER:7    0
Name: 80, dtype: object

>  <halogenbond:SER:7>  (81) 
halogenbond:SER:7    0
halogenbond:SER:7    0
Name: 80, dtype: object

>  <hbond:GLY:8>  (81) 
hbond:GLY:8    0
hbond:GLY:8    0
Name: 80, dtype: object

>  <hydroph_interaction:ASN:19>  (81) 
hydroph_interaction:ASN:19    0
hydroph_interaction:ASN:19    0
Name: 80, dtype: object

>  <hbond:ASN:19>  (81) 
hbond:ASN:19    0
hbond:ASN:19    0
Name: 80, dtype: object

>  <halogenbond:ASN:19>  (81) 
halogenbond:ASN:19    0
halogenbond:ASN:19    0
Name: 80, dtype: object

>  <hbond:ARG:20>  (81) 
hbond:ARG:20    0
hbond:ARG:20    0
Name: 80, dtype: object

>  <hydroph_interaction:ARG:20>  (81) 
hydroph_interaction:ARG:20    0
hydroph_interaction:ARG:20    0
Name: 80, dtype: object

>  <saltbridge:ARG:20>  (81) 
saltbridge:ARG:20    0
saltbridge:ARG:20    0
Name: 80, dtype: object

>  <halogenbond:ARG:20>  (81) 
halogenbond:ARG:20    0
halogenbond:ARG:20    0
Name: 80, dtype: object

>  <pication:ARG:20>  (81) 
pication:ARG:20    0
pication:ARG:20    0
Name: 80, dtype: object

>  <hbond:HIS:21>  (81) 
hbond:HIS:21    0
hbond:HIS:21    0
Name: 80, dtype: object

>  <hydroph_interaction:HIS:21>  (81) 
hydroph_interaction:HIS:21    0
hydroph_interaction:HIS:21    0
Name: 80, dtype: object

>  <saltbridge:HIS:21>  (81) 
saltbridge:HIS:21    0
saltbridge:HIS:21    0
Name: 80, dtype: object

>  <pistack:HIS:21>  (81) 
pistack:HIS:21    0
pistack:HIS:21    0
Name: 80, dtype: object

>  <pication:HIS:21>  (81) 
pication:HIS:21    0
pication:HIS:21    0
Name: 80, dtype: object

>  <halogenbond:HIS:21>  (81) 
halogenbond:HIS:21    0
halogenbond:HIS:21    0
Name: 80, dtype: object

>  <hydroph_interaction:LEU:22>  (81) 
hydroph_interaction:LEU:22    0
hydroph_interaction:LEU:22    0
Name: 80, dtype: object

>  <hbond:LEU:22>  (81) 
hbond:LEU:22    0
hbond:LEU:22    0
Name: 80, dtype: object

>  <hydroph_interaction:TRP:28>  (81) 
hydroph_interaction:TRP:28    0
hydroph_interaction:TRP:28    0
Name: 80, dtype: object

>  <hbond:SER:36>  (81) 
hbond:SER:36    0
hbond:SER:36    0
Name: 80, dtype: object

>  <halogenbond:SER:36>  (81) 
halogenbond:SER:36    0
halogenbond:SER:36    0
Name: 80, dtype: object

>  <hbond:ARG:38>  (81) 
hbond:ARG:38    0
hbond:ARG:38    0
Name: 80, dtype: object

>  <halogenbond:ARG:38>  (81) 
halogenbond:ARG:38    0
halogenbond:ARG:38    0
Name: 80, dtype: object

>  <hbond:ASP:39>  (81) 
hbond:ASP:39    0
hbond:ASP:39    0
Name: 80, dtype: object

>  <saltbridge:ASP:39>  (81) 
saltbridge:ASP:39    0
saltbridge:ASP:39    0
Name: 80, dtype: object

>  <hydroph_interaction:ASP:39>  (81) 
hydroph_interaction:ASP:39    0
hydroph_interaction:ASP:39    0
Name: 80, dtype: object

>  <halogenbond:ASP:39>  (81) 
halogenbond:ASP:39    0
halogenbond:ASP:39    0
Name: 80, dtype: object

>  <hydroph_interaction:LEU:40>  (81) 
hydroph_interaction:LEU:40    0
hydroph_interaction:LEU:40    0
Name: 80, dtype: object

>  <hydroph_interaction:TYR:63>  (81) 
hydroph_interaction:TYR:63    0
hydroph_interaction:TYR:63    0
Name: 80, dtype: object

>  <pistack:TYR:63>  (81) 
pistack:TYR:63    0
pistack:TYR:63    0
Name: 80, dtype: object

>  <hbond:TYR:63>  (81) 
hbond:TYR:63    0
hbond:TYR:63    0
Name: 80, dtype: object

>  <hbond:TYR:64>  (81) 
hbond:TYR:64    0
hbond:TYR:64    0
Name: 80, dtype: object

>  <halogenbond:TYR:64>  (81) 
halogenbond:TYR:64    0
halogenbond:TYR:64    0
Name: 80, dtype: object

>  <hydroph_interaction:TYR:64>  (81) 
hydroph_interaction:TYR:64    0
hydroph_interaction:TYR:64    0
Name: 80, dtype: object

>  <hbond:CYS:65>  (81) 
hbond:CYS:65    0
hbond:CYS:65    0
Name: 80, dtype: object

>  <halogenbond:CYS:65>  (81) 
halogenbond:CYS:65    0
halogenbond:CYS:65    0
Name: 80, dtype: object

>  <hbond:SER:66>  (81) 
hbond:SER:66    0
hbond:SER:66    0
Name: 80, dtype: object

>  <hbond:SER:67>  (81) 
hbond:SER:67    0
hbond:SER:67    0
Name: 80, dtype: object

>  <halogenbond:SER:67>  (81) 
halogenbond:SER:67    0
halogenbond:SER:67    0
Name: 80, dtype: object

>  <hydroph_interaction:ARG:68>  (81) 
hydroph_interaction:ARG:68    0
hydroph_interaction:ARG:68    0
Name: 80, dtype: object

>  <hbond:ARG:68>  (81) 
hbond:ARG:68    0
hbond:ARG:68    0
Name: 80, dtype: object

>  <saltbridge:ARG:68>  (81) 
saltbridge:ARG:68    0
saltbridge:ARG:68    0
Name: 80, dtype: object

>  <pication:ARG:68>  (81) 
pication:ARG:68    0
pication:ARG:68    0
Name: 80, dtype: object

>  <hydroph_interaction:TYR:72>  (81) 
hydroph_interaction:TYR:72    0
hydroph_interaction:TYR:72    0
Name: 80, dtype: object

>  <hydroph_interaction:VAL:74>  (81) 
hydroph_interaction:VAL:74    0
hydroph_interaction:VAL:74    0
Name: 80, dtype: object

>  <hydroph_interaction:PHE:76>  (81) 
hydroph_interaction:PHE:76    0
hydroph_interaction:PHE:76    0
Name: 80, dtype: object

>  <hbond:SER:77>  (81) 
hbond:SER:77    0
hbond:SER:77    0
Name: 80, dtype: object

>  <hbond:SER:80>  (81) 
hbond:SER:80    0
hbond:SER:80    0
Name: 80, dtype: object

>  <hbond:LEU:81>  (81) 
hbond:LEU:81    0
hbond:LEU:81    0
Name: 80, dtype: object

>  <halogenbond:LEU:81>  (81) 
halogenbond:LEU:81    0
halogenbond:LEU:81    0
Name: 80, dtype: object

>  <hydroph_interaction:LEU:81>  (81) 
hydroph_interaction:LEU:81    0
hydroph_interaction:LEU:81    0
Name: 80, dtype: object

>  <hydroph_interaction:ILE:82>  (81) 
hydroph_interaction:ILE:82    0
hydroph_interaction:ILE:82    0
Name: 80, dtype: object

>  <hbond:ILE:82>  (81) 
hbond:ILE:82    0
hbond:ILE:82    0
Name: 80, dtype: object

>  <hydroph_interaction:PHE:83>  (81) 
hydroph_interaction:PHE:83    0
hydroph_interaction:PHE:83    0
Name: 80, dtype: object

>  <hbond:PHE:83>  (81) 
hbond:PHE:83    0
hbond:PHE:83    0
Name: 80, dtype: object

>  <halogenbond:PHE:83>  (81) 
halogenbond:PHE:83    0
halogenbond:PHE:83    0
Name: 80, dtype: object

>  <pistack:PHE:83>  (81) 
pistack:PHE:83    0
pistack:PHE:83    0
Name: 80, dtype: object

>  <hydroph_interaction:VAL:84>  (81) 
hydroph_interaction:VAL:84    0
hydroph_interaction:VAL:84    0
Name: 80, dtype: object

>  <hbond:VAL:84>  (81) 
hbond:VAL:84    0
hbond:VAL:84    0
Name: 80, dtype: object

>  <halogenbond:VAL:84>  (81) 
halogenbond:VAL:84    0
halogenbond:VAL:84    0
Name: 80, dtype: object

>  <hydroph_interaction:GLU:85>  (81) 
hydroph_interaction:GLU:85    0
hydroph_interaction:GLU:85    0
Name: 80, dtype: object

>  <hbond:GLU:85>  (81) 
hbond:GLU:85    0
hbond:GLU:85    0
Name: 80, dtype: object

>  <saltbridge:GLU:85>  (81) 
saltbridge:GLU:85    0
saltbridge:GLU:85    0
Name: 80, dtype: object

>  <halogenbond:GLU:85>  (81) 
halogenbond:GLU:85    0
halogenbond:GLU:85    0
Name: 80, dtype: object

>  <hbond:ALA:86>  (81) 
hbond:ALA:86    0
hbond:ALA:86    0
Name: 80, dtype: object

>  <halogenbond:ALA:86>  (81) 
halogenbond:ALA:86    0
halogenbond:ALA:86    0
Name: 80, dtype: object

>  <hydroph_interaction:ALA:86>  (81) 
hydroph_interaction:ALA:86    0
hydroph_interaction:ALA:86    0
Name: 80, dtype: object

>  <hbond:SER:87>  (81) 
hbond:SER:87    0
hbond:SER:87    0
Name: 80, dtype: object

>  <halogenbond:SER:87>  (81) 
halogenbond:SER:87    0
halogenbond:SER:87    0
Name: 80, dtype: object

>  <hbond:GLU:88>  (81) 
hbond:GLU:88    0
hbond:GLU:88    0
Name: 80, dtype: object

>  <hydroph_interaction:GLU:88>  (81) 
hydroph_interaction:GLU:88    0
hydroph_interaction:GLU:88    0
Name: 80, dtype: object

>  <halogenbond:GLU:88>  (81) 
halogenbond:GLU:88    0
halogenbond:GLU:88    0
Name: 80, dtype: object

>  <saltbridge:GLU:88>  (81) 
saltbridge:GLU:88    0
saltbridge:GLU:88    0
Name: 80, dtype: object

>  <hydroph_interaction:TYR:89>  (81) 
hydroph_interaction:TYR:89    0
hydroph_interaction:TYR:89    0
Name: 80, dtype: object

>  <pistack:TYR:89>  (81) 
pistack:TYR:89    0
pistack:TYR:89    0
Name: 80, dtype: object

>  <hbond:TYR:89>  (81) 
hbond:TYR:89    0
hbond:TYR:89    0
Name: 80, dtype: object

>  <halogenbond:TYR:89>  (81) 
halogenbond:TYR:89    0
halogenbond:TYR:89    0
Name: 80, dtype: object

>  <hbond:TYR:90>  (81) 
hbond:TYR:90    0
hbond:TYR:90    0
Name: 80, dtype: object

>  <hydroph_interaction:TYR:90>  (81) 
hydroph_interaction:TYR:90    0
hydroph_interaction:TYR:90    0
Name: 80, dtype: object

>  <pistack:TYR:90>  (81) 
pistack:TYR:90    0
pistack:TYR:90    0
Name: 80, dtype: object

>  <halogenbond:TYR:90>  (81) 
halogenbond:TYR:90    0
halogenbond:TYR:90    0
Name: 80, dtype: object

>  <pication:TYR:90>  (81) 
pication:TYR:90    0
pication:TYR:90    0
Name: 80, dtype: object

>  <hydroph_interaction:PRO:91>  (81) 
hydroph_interaction:PRO:91    0
hydroph_interaction:PRO:91    0
Name: 80, dtype: object

>  <halogenbond:PRO:91>  (81) 
halogenbond:PRO:91    0
halogenbond:PRO:91    0
Name: 80, dtype: object

>  <hbond:PRO:91>  (81) 
hbond:PRO:91    0
hbond:PRO:91    0
Name: 80, dtype: object

>  <hydroph_interaction:ALA:92>  (81) 
hydroph_interaction:ALA:92    0
hydroph_interaction:ALA:92    0
Name: 80, dtype: object

>  <hbond:ARG:93>  (81) 
hbond:ARG:93    0
hbond:ARG:93    0
Name: 80, dtype: object

>  <pication:ARG:93>  (81) 
pication:ARG:93    0
pication:ARG:93    0
Name: 80, dtype: object

>  <saltbridge:ARG:93>  (81) 
saltbridge:ARG:93    0
saltbridge:ARG:93    0
Name: 80, dtype: object

>  <hydroph_interaction:ARG:93>  (81) 
hydroph_interaction:ARG:93    0
hydroph_interaction:ARG:93    0
Name: 80, dtype: object

>  <halogenbond:ARG:93>  (81) 
halogenbond:ARG:93    0
halogenbond:ARG:93    0
Name: 80, dtype: object

>  <hydroph_interaction:TYR:94>  (81) 
hydroph_interaction:TYR:94    0
hydroph_interaction:TYR:94    0
Name: 80, dtype: object

>  <hbond:TYR:94>  (81) 
hbond:TYR:94    0
hbond:TYR:94    0
Name: 80, dtype: object

>  <halogenbond:GLN:95>  (81) 
halogenbond:GLN:95    0
halogenbond:GLN:95    0
Name: 80, dtype: object

>  <hbond:GLN:95>  (81) 
hbond:GLN:95    0
hbond:GLN:95    0
Name: 80, dtype: object

>  <hydroph_interaction:GLN:95>  (81) 
hydroph_interaction:GLN:95    0
hydroph_interaction:GLN:95    0
Name: 80, dtype: object

>  <hbond:SER:96>  (81) 
hbond:SER:96    0
hbond:SER:96    0
Name: 80, dtype: object

>  <hydroph_interaction:LEU:98>  (81) 
hydroph_interaction:LEU:98    0
hydroph_interaction:LEU:98    0
Name: 80, dtype: object

>  <hbond:LEU:98>  (81) 
hbond:LEU:98    0
hbond:LEU:98    0
Name: 80, dtype: object

>  <hbond:MET:99>  (81) 
hbond:MET:99    0
hbond:MET:99    0
Name: 80, dtype: object

>  <hydroph_interaction:MET:99>  (81) 
hydroph_interaction:MET:99    0
hydroph_interaction:MET:99    0
Name: 80, dtype: object

>  <halogenbond:MET:99>  (81) 
halogenbond:MET:99    0
halogenbond:MET:99    0
Name: 80, dtype: object

>  <hydroph_interaction:LEU:100>  (81) 
hydroph_interaction:LEU:100    0
hydroph_interaction:LEU:100    0
Name: 80, dtype: object

>  <hbond:LEU:100>  (81) 
hbond:LEU:100    0
hbond:LEU:100    0
Name: 80, dtype: object

>  <hbond:ALA:101>  (81) 
hbond:ALA:101    0
hbond:ALA:101    0
Name: 80, dtype: object

>  <hydroph_interaction:ALA:101>  (81) 
hydroph_interaction:ALA:101    0
hydroph_interaction:ALA:101    0
Name: 80, dtype: object

>  <hydroph_interaction:VAL:102>  (81) 
hydroph_interaction:VAL:102    0
hydroph_interaction:VAL:102    0
Name: 80, dtype: object

>  <hbond:VAL:102>  (81) 
hbond:VAL:102    0
hbond:VAL:102    0
Name: 80, dtype: object

>  <hbond:GLY:103>  (81) 
hbond:GLY:103    0
hbond:GLY:103    0
Name: 80, dtype: object

>  <halogenbond:GLY:103>  (81) 
halogenbond:GLY:103    0
halogenbond:GLY:103    0
Name: 80, dtype: object

>  <hydroph_interaction:HIS:104>  (81) 
hydroph_interaction:HIS:104    0
hydroph_interaction:HIS:104    0
Name: 80, dtype: object

>  <hbond:HIS:104>  (81) 
hbond:HIS:104    0
hbond:HIS:104    0
Name: 80, dtype: object

>  <saltbridge:HIS:104>  (81) 
saltbridge:HIS:104    0
saltbridge:HIS:104    0
Name: 80, dtype: object

>  <pication:HIS:104>  (81) 
pication:HIS:104    0
pication:HIS:104    0
Name: 80, dtype: object

>  <pistack:HIS:104>  (81) 
pistack:HIS:104    0
pistack:HIS:104    0
Name: 80, dtype: object

>  <halogenbond:HIS:104>  (81) 
halogenbond:HIS:104    0
halogenbond:HIS:104    0
Name: 80, dtype: object

>  <hbond:SER:105>  (81) 
hbond:SER:105    0
hbond:SER:105    0
Name: 80, dtype: object

>  <halogenbond:SER:105>  (81) 
halogenbond:SER:105    0
halogenbond:SER:105    0
Name: 80, dtype: object

>  <hbond:GLU:106>  (81) 
hbond:GLU:106    0
hbond:GLU:106    0
Name: 80, dtype: object

>  <hydroph_interaction:GLU:106>  (81) 
hydroph_interaction:GLU:106    0
hydroph_interaction:GLU:106    0
Name: 80, dtype: object

>  <saltbridge:GLU:106>  (81) 
saltbridge:GLU:106    0
saltbridge:GLU:106    0
Name: 80, dtype: object

>  <halogenbond:GLU:106>  (81) 
halogenbond:GLU:106    0
halogenbond:GLU:106    0
Name: 80, dtype: object

>  <hydroph_interaction:PRO:107>  (81) 
hydroph_interaction:PRO:107    0
hydroph_interaction:PRO:107    0
Name: 80, dtype: object

>  <hbond:PRO:107>  (81) 
hbond:PRO:107    0
hbond:PRO:107    0
Name: 80, dtype: object

>  <halogenbond:PRO:107>  (81) 
halogenbond:PRO:107    0
halogenbond:PRO:107    0
Name: 80, dtype: object

>  <hbond:GLY:108>  (81) 
hbond:GLY:108    0
hbond:GLY:108    0
Name: 80, dtype: object

>  <halogenbond:GLY:108>  (81) 
halogenbond:GLY:108    0
halogenbond:GLY:108    0
Name: 80, dtype: object

>  <hbond:ASP:109>  (81) 
hbond:ASP:109    0
hbond:ASP:109    0
Name: 80, dtype: object

>  <hydroph_interaction:ASP:109>  (81) 
hydroph_interaction:ASP:109    0
hydroph_interaction:ASP:109    0
Name: 80, dtype: object

>  <saltbridge:ASP:109>  (81) 
saltbridge:ASP:109    0
saltbridge:ASP:109    0
Name: 80, dtype: object

>  <hbond:CYS:110>  (81) 
hbond:CYS:110    0
hbond:CYS:110    0
Name: 80, dtype: object

>  <halogenbond:CYS:110>  (81) 
halogenbond:CYS:110    0
halogenbond:CYS:110    0
Name: 80, dtype: object

>  <hbond:GLY:111>  (81) 
hbond:GLY:111    0
hbond:GLY:111    0
Name: 80, dtype: object

>  <hbond:GLY:112>  (81) 
hbond:GLY:112    0
hbond:GLY:112    0
Name: 80, dtype: object

>  <hbond:ILE:113>  (81) 
hbond:ILE:113    0
hbond:ILE:113    0
Name: 80, dtype: object

>  <hydroph_interaction:LEU:114>  (81) 
hydroph_interaction:LEU:114    0
hydroph_interaction:LEU:114    0
Name: 80, dtype: object

>  <hbond:LEU:114>  (81) 
hbond:LEU:114    0
hbond:LEU:114    0
Name: 80, dtype: object

>  <hydroph_interaction:ILE:123>  (81) 
hydroph_interaction:ILE:123    0
hydroph_interaction:ILE:123    0
Name: 80, dtype: object

>  <hbond:ILE:123>  (81) 
hbond:ILE:123    0
hbond:ILE:123    0
Name: 80, dtype: object

>  <hydroph_interaction:VAL:124>  (81) 
hydroph_interaction:VAL:124    1
hydroph_interaction:VAL:124    1
Name: 80, dtype: object

>  <hbond:VAL:124>  (81) 
hbond:VAL:124    0
hbond:VAL:124    0
Name: 80, dtype: object

>  <halogenbond:VAL:124>  (81) 
halogenbond:VAL:124    0
halogenbond:VAL:124    0
Name: 80, dtype: object

>  <hbond:SER:125>  (81) 
hbond:SER:125    0
hbond:SER:125    0
Name: 80, dtype: object

>  <halogenbond:SER:125>  (81) 
halogenbond:SER:125    0
halogenbond:SER:125    0
Name: 80, dtype: object

>  <hydroph_interaction:THR:126>  (81) 
hydroph_interaction:THR:126    0
hydroph_interaction:THR:126    0
Name: 80, dtype: object

>  <hbond:THR:126>  (81) 
hbond:THR:126    0
hbond:THR:126    0
Name: 80, dtype: object

>  <halogenbond:THR:126>  (81) 
halogenbond:THR:126    0
halogenbond:THR:126    0
Name: 80, dtype: object

>  <hbond:GLY:127>  (81) 
hbond:GLY:127    0
hbond:GLY:127    0
Name: 80, dtype: object

>  <halogenbond:GLY:127>  (81) 
halogenbond:GLY:127    0
halogenbond:GLY:127    0
Name: 80, dtype: object

>  <hydroph_interaction:GLY:127>  (81) 
hydroph_interaction:GLY:127    0
hydroph_interaction:GLY:127    0
Name: 80, dtype: object

>  <hbond:GLY:128>  (81) 
hbond:GLY:128    0
hbond:GLY:128    0
Name: 80, dtype: object

>  <halogenbond:GLY:128>  (81) 
halogenbond:GLY:128    0
halogenbond:GLY:128    0
Name: 80, dtype: object

>  <hydroph_interaction:GLY:128>  (81) 
hydroph_interaction:GLY:128    0
hydroph_interaction:GLY:128    0
Name: 80, dtype: object

>  <hbond:ASN:129>  (81) 
hbond:ASN:129    0
hbond:ASN:129    0
Name: 80, dtype: object

>  <hydroph_interaction:ASN:129>  (81) 
hydroph_interaction:ASN:129    0
hydroph_interaction:ASN:129    0
Name: 80, dtype: object

>  <halogenbond:ASN:129>  (81) 
halogenbond:ASN:129    0
halogenbond:ASN:129    0
Name: 80, dtype: object

>  <hbond:GLY:130>  (81) 
hbond:GLY:130    0
hbond:GLY:130    0
Name: 80, dtype: object

>  <hydroph_interaction:LEU:131>  (81) 
hydroph_interaction:LEU:131    0
hydroph_interaction:LEU:131    0
Name: 80, dtype: object

>  <hbond:LEU:131>  (81) 
hbond:LEU:131    0
hbond:LEU:131    0
Name: 80, dtype: object

>  <halogenbond:LEU:131>  (81) 
halogenbond:LEU:131    0
halogenbond:LEU:131    0
Name: 80, dtype: object

>  <hydroph_interaction:VAL:132>  (81) 
hydroph_interaction:VAL:132    0
hydroph_interaction:VAL:132    0
Name: 80, dtype: object

>  <hbond:VAL:132>  (81) 
hbond:VAL:132    0
hbond:VAL:132    0
Name: 80, dtype: object

>  <hbond:GLY:133>  (81) 
hbond:GLY:133    0
hbond:GLY:133    0
Name: 80, dtype: object

>  <halogenbond:GLY:133>  (81) 
halogenbond:GLY:133    0
halogenbond:GLY:133    0
Name: 80, dtype: object

>  <hydroph_interaction:PHE:134>  (81) 
hydroph_interaction:PHE:134    0
hydroph_interaction:PHE:134    0
Name: 80, dtype: object

>  <hbond:PHE:134>  (81) 
hbond:PHE:134    0
hbond:PHE:134    0
Name: 80, dtype: object

>  <pistack:PHE:134>  (81) 
pistack:PHE:134    0
pistack:PHE:134    0
Name: 80, dtype: object

>  <pication:PHE:134>  (81) 
pication:PHE:134    0
pication:PHE:134    0
Name: 80, dtype: object

>  <hydroph_interaction:ALA:135>  (81) 
hydroph_interaction:ALA:135    0
hydroph_interaction:ALA:135    0
Name: 80, dtype: object

>  <hbond:ALA:135>  (81) 
hbond:ALA:135    0
hbond:ALA:135    0
Name: 80, dtype: object

$$$$
PV_002728543825
     RDKit          3D

 24 24  0  0  0  0  0  0  0  0999 V2000
   12.6380   15.7530   21.4680 C   0  0  0  0  0  0  0  0  0  0  0  0
   11.2710   15.4680   21.7280 O   0  0  0  0  0  0  0  0  0  0  0  0
   11.1260   14.3630   22.5240 C   0  0  0  0  0  0  0  0  0  0  0  0
   12.0300   13.8540   23.1670 O   0  0  0  0  0  0  0  0  0  0  0  0
    9.6810   13.9290   22.4530 C   0  0  0  0  0  0  0  0  0  0  0  0
    9.2800   12.6700   23.1800 C   0  0  0  0  0  0  0  0  0  0  0  0
    9.9660   11.4740   22.9350 C   0  0  0  0  0  0  0  0  0  0  0  0
    9.5950   10.3030   23.5800 C   0  0  0  0  0  0  0  0  0  0  0  0
    8.5370   10.3240   24.4800 C   0  0  0  0  0  0  0  0  0  0  0  0
    7.8530   11.5000   24.7410 C   0  0  0  0  0  0  0  0  0  0  0  0
    8.2130   12.6830   24.0930 C   0  0  0  0  0  0  0  0  0  0  0  0
    7.4450   13.9410   24.3800 C   0  0  0  0  0  0  0  0  0  0  0  0
   13.0020   15.1650   20.6210 H   0  0  0  0  0  0  0  0  0  0  0  0
   13.2220   15.4850   22.3530 H   0  0  0  0  0  0  0  0  0  0  0  0
   12.7630   16.8100   21.2480 H   0  0  0  0  0  0  0  0  0  0  0  0
    9.0660   14.7310   22.8510 H   0  0  0  0  0  0  0  0  0  0  0  0
    9.4090   13.8480   21.3990 H   0  0  0  0  0  0  0  0  0  0  0  0
   10.7930   11.4440   22.2340 H   0  0  0  0  0  0  0  0  0  0  0  0
   10.1280    9.3760   23.3820 H   0  0  0  0  0  0  0  0  0  0  0  0
    8.2430    9.4170   24.9820 H   0  0  0  0  0  0  0  0  0  0  0  0
    7.0290   11.4840   25.4520 H   0  0  0  0  0  0  0  0  0  0  0  0
    7.0220   14.3450   23.4530 H   0  0  0  0  0  0  0  0  0  0  0  0
    8.0910   14.6930   24.8480 H   0  0  0  0  0  0  0  0  0  0  0  0
    6.6130   13.7540   25.0690 H   0  0  0  0  0  0  0  0  0  0  0  0
  1  2  1  0
  2  3  1  0
  3  4  2  0
  3  5  1  0
  5  6  1  0
  6  7  2  0
  7  8  1  0
  8  9  2  0
  9 10  1  0
 10 11  2  0
 11 12  1  0
 11  6  1  0
  1 13  1  0
  1 14  1  0
  1 15  1  0
  5 16  1  0
  5 17  1  0
  7 18  1  0
  8 19  1  0
  9 20  1  0
 10 21  1  0
 12 22  1  0
 12 23  1  0
 12 24  1  0
A    1
 C1 
A    2
 O1 
A    3
 C2 
A    4
 O2 
A    5
 C3 
A    6
 C4 
A    7
 C5 
A    8
 C6 
A    9
 C7 
A   10
 C8 
A   11
 C9 
A   12
 C10
A   13
 H1 
A   14
 H2 
A   15
 H3 
A   16
 H4 
A   17
 H5 
A   18
 H6 
A   19
 H7 
A   20
 H8 
A   21
 H9 
A   22
 H10
A   23
 H11
A   24
 H12
M  END
>  <ref_pdb>  (82) 
x0310_0A

>  <ref_mols>  (82) 
x0732_0A,x0528_0A

>  <original SMILES>  (82) 
COC(=O)Cc1ccccc1C

>  <rationale>  (82) 
info saltbridge:H21; 

>  <intxn_cluster>  (82) 
208

>  <intxn_cluster_rank>  (82) 
534

>  <N_interactions>  (82) 
1

>  <∆∆G>  (82) 
-8.320585

>  <$/mg>  (82) 
nan

>  <comRMSD>  (82) 
0.963249

>  <N_rotatable_bonds>  (82) 
4

>  <hbond:SER:7>  (82) 
hbond:SER:7    0
hbond:SER:7    0
Name: 81, dtype: object

>  <halogenbond:SER:7>  (82) 
halogenbond:SER:7    0
halogenbond:SER:7    0
Name: 81, dtype: object

>  <hbond:GLY:8>  (82) 
hbond:GLY:8    0
hbond:GLY:8    0
Name: 81, dtype: object

>  <hydroph_interaction:ASN:19>  (82) 
hydroph_interaction:ASN:19    0
hydroph_interaction:ASN:19    0
Name: 81, dtype: object

>  <hbond:ASN:19>  (82) 
hbond:ASN:19    0
hbond:ASN:19    0
Name: 81, dtype: object

>  <halogenbond:ASN:19>  (82) 
halogenbond:ASN:19    0
halogenbond:ASN:19    0
Name: 81, dtype: object

>  <hbond:ARG:20>  (82) 
hbond:ARG:20    0
hbond:ARG:20    0
Name: 81, dtype: object

>  <hydroph_interaction:ARG:20>  (82) 
hydroph_interaction:ARG:20    0
hydroph_interaction:ARG:20    0
Name: 81, dtype: object

>  <saltbridge:ARG:20>  (82) 
saltbridge:ARG:20    0
saltbridge:ARG:20    0
Name: 81, dtype: object

>  <halogenbond:ARG:20>  (82) 
halogenbond:ARG:20    0
halogenbond:ARG:20    0
Name: 81, dtype: object

>  <pication:ARG:20>  (82) 
pication:ARG:20    0
pication:ARG:20    0
Name: 81, dtype: object

>  <hbond:HIS:21>  (82) 
hbond:HIS:21    0
hbond:HIS:21    0
Name: 81, dtype: object

>  <hydroph_interaction:HIS:21>  (82) 
hydroph_interaction:HIS:21    0
hydroph_interaction:HIS:21    0
Name: 81, dtype: object

>  <saltbridge:HIS:21>  (82) 
saltbridge:HIS:21    1
saltbridge:HIS:21    1
Name: 81, dtype: object

>  <pistack:HIS:21>  (82) 
pistack:HIS:21    0
pistack:HIS:21    0
Name: 81, dtype: object

>  <pication:HIS:21>  (82) 
pication:HIS:21    0
pication:HIS:21    0
Name: 81, dtype: object

>  <halogenbond:HIS:21>  (82) 
halogenbond:HIS:21    0
halogenbond:HIS:21    0
Name: 81, dtype: object

>  <hydroph_interaction:LEU:22>  (82) 
hydroph_interaction:LEU:22    0
hydroph_interaction:LEU:22    0
Name: 81, dtype: object

>  <hbond:LEU:22>  (82) 
hbond:LEU:22    0
hbond:LEU:22    0
Name: 81, dtype: object

>  <hydroph_interaction:TRP:28>  (82) 
hydroph_interaction:TRP:28    0
hydroph_interaction:TRP:28    0
Name: 81, dtype: object

>  <hbond:SER:36>  (82) 
hbond:SER:36    0
hbond:SER:36    0
Name: 81, dtype: object

>  <halogenbond:SER:36>  (82) 
halogenbond:SER:36    0
halogenbond:SER:36    0
Name: 81, dtype: object

>  <hbond:ARG:38>  (82) 
hbond:ARG:38    0
hbond:ARG:38    0
Name: 81, dtype: object

>  <halogenbond:ARG:38>  (82) 
halogenbond:ARG:38    0
halogenbond:ARG:38    0
Name: 81, dtype: object

>  <hbond:ASP:39>  (82) 
hbond:ASP:39    0
hbond:ASP:39    0
Name: 81, dtype: object

>  <saltbridge:ASP:39>  (82) 
saltbridge:ASP:39    0
saltbridge:ASP:39    0
Name: 81, dtype: object

>  <hydroph_interaction:ASP:39>  (82) 
hydroph_interaction:ASP:39    0
hydroph_interaction:ASP:39    0
Name: 81, dtype: object

>  <halogenbond:ASP:39>  (82) 
halogenbond:ASP:39    0
halogenbond:ASP:39    0
Name: 81, dtype: object

>  <hydroph_interaction:LEU:40>  (82) 
hydroph_interaction:LEU:40    0
hydroph_interaction:LEU:40    0
Name: 81, dtype: object

>  <hydroph_interaction:TYR:63>  (82) 
hydroph_interaction:TYR:63    0
hydroph_interaction:TYR:63    0
Name: 81, dtype: object

>  <pistack:TYR:63>  (82) 
pistack:TYR:63    0
pistack:TYR:63    0
Name: 81, dtype: object

>  <hbond:TYR:63>  (82) 
hbond:TYR:63    0
hbond:TYR:63    0
Name: 81, dtype: object

>  <hbond:TYR:64>  (82) 
hbond:TYR:64    0
hbond:TYR:64    0
Name: 81, dtype: object

>  <halogenbond:TYR:64>  (82) 
halogenbond:TYR:64    0
halogenbond:TYR:64    0
Name: 81, dtype: object

>  <hydroph_interaction:TYR:64>  (82) 
hydroph_interaction:TYR:64    0
hydroph_interaction:TYR:64    0
Name: 81, dtype: object

>  <hbond:CYS:65>  (82) 
hbond:CYS:65    0
hbond:CYS:65    0
Name: 81, dtype: object

>  <halogenbond:CYS:65>  (82) 
halogenbond:CYS:65    0
halogenbond:CYS:65    0
Name: 81, dtype: object

>  <hbond:SER:66>  (82) 
hbond:SER:66    0
hbond:SER:66    0
Name: 81, dtype: object

>  <hbond:SER:67>  (82) 
hbond:SER:67    0
hbond:SER:67    0
Name: 81, dtype: object

>  <halogenbond:SER:67>  (82) 
halogenbond:SER:67    0
halogenbond:SER:67    0
Name: 81, dtype: object

>  <hydroph_interaction:ARG:68>  (82) 
hydroph_interaction:ARG:68    0
hydroph_interaction:ARG:68    0
Name: 81, dtype: object

>  <hbond:ARG:68>  (82) 
hbond:ARG:68    0
hbond:ARG:68    0
Name: 81, dtype: object

>  <saltbridge:ARG:68>  (82) 
saltbridge:ARG:68    0
saltbridge:ARG:68    0
Name: 81, dtype: object

>  <pication:ARG:68>  (82) 
pication:ARG:68    0
pication:ARG:68    0
Name: 81, dtype: object

>  <hydroph_interaction:TYR:72>  (82) 
hydroph_interaction:TYR:72    0
hydroph_interaction:TYR:72    0
Name: 81, dtype: object

>  <hydroph_interaction:VAL:74>  (82) 
hydroph_interaction:VAL:74    0
hydroph_interaction:VAL:74    0
Name: 81, dtype: object

>  <hydroph_interaction:PHE:76>  (82) 
hydroph_interaction:PHE:76    0
hydroph_interaction:PHE:76    0
Name: 81, dtype: object

>  <hbond:SER:77>  (82) 
hbond:SER:77    0
hbond:SER:77    0
Name: 81, dtype: object

>  <hbond:SER:80>  (82) 
hbond:SER:80    0
hbond:SER:80    0
Name: 81, dtype: object

>  <hbond:LEU:81>  (82) 
hbond:LEU:81    0
hbond:LEU:81    0
Name: 81, dtype: object

>  <halogenbond:LEU:81>  (82) 
halogenbond:LEU:81    0
halogenbond:LEU:81    0
Name: 81, dtype: object

>  <hydroph_interaction:LEU:81>  (82) 
hydroph_interaction:LEU:81    0
hydroph_interaction:LEU:81    0
Name: 81, dtype: object

>  <hydroph_interaction:ILE:82>  (82) 
hydroph_interaction:ILE:82    0
hydroph_interaction:ILE:82    0
Name: 81, dtype: object

>  <hbond:ILE:82>  (82) 
hbond:ILE:82    0
hbond:ILE:82    0
Name: 81, dtype: object

>  <hydroph_interaction:PHE:83>  (82) 
hydroph_interaction:PHE:83    0
hydroph_interaction:PHE:83    0
Name: 81, dtype: object

>  <hbond:PHE:83>  (82) 
hbond:PHE:83    0
hbond:PHE:83    0
Name: 81, dtype: object

>  <halogenbond:PHE:83>  (82) 
halogenbond:PHE:83    0
halogenbond:PHE:83    0
Name: 81, dtype: object

>  <pistack:PHE:83>  (82) 
pistack:PHE:83    0
pistack:PHE:83    0
Name: 81, dtype: object

>  <hydroph_interaction:VAL:84>  (82) 
hydroph_interaction:VAL:84    0
hydroph_interaction:VAL:84    0
Name: 81, dtype: object

>  <hbond:VAL:84>  (82) 
hbond:VAL:84    0
hbond:VAL:84    0
Name: 81, dtype: object

>  <halogenbond:VAL:84>  (82) 
halogenbond:VAL:84    0
halogenbond:VAL:84    0
Name: 81, dtype: object

>  <hydroph_interaction:GLU:85>  (82) 
hydroph_interaction:GLU:85    0
hydroph_interaction:GLU:85    0
Name: 81, dtype: object

>  <hbond:GLU:85>  (82) 
hbond:GLU:85    0
hbond:GLU:85    0
Name: 81, dtype: object

>  <saltbridge:GLU:85>  (82) 
saltbridge:GLU:85    0
saltbridge:GLU:85    0
Name: 81, dtype: object

>  <halogenbond:GLU:85>  (82) 
halogenbond:GLU:85    0
halogenbond:GLU:85    0
Name: 81, dtype: object

>  <hbond:ALA:86>  (82) 
hbond:ALA:86    0
hbond:ALA:86    0
Name: 81, dtype: object

>  <halogenbond:ALA:86>  (82) 
halogenbond:ALA:86    0
halogenbond:ALA:86    0
Name: 81, dtype: object

>  <hydroph_interaction:ALA:86>  (82) 
hydroph_interaction:ALA:86    0
hydroph_interaction:ALA:86    0
Name: 81, dtype: object

>  <hbond:SER:87>  (82) 
hbond:SER:87    0
hbond:SER:87    0
Name: 81, dtype: object

>  <halogenbond:SER:87>  (82) 
halogenbond:SER:87    0
halogenbond:SER:87    0
Name: 81, dtype: object

>  <hbond:GLU:88>  (82) 
hbond:GLU:88    0
hbond:GLU:88    0
Name: 81, dtype: object

>  <hydroph_interaction:GLU:88>  (82) 
hydroph_interaction:GLU:88    0
hydroph_interaction:GLU:88    0
Name: 81, dtype: object

>  <halogenbond:GLU:88>  (82) 
halogenbond:GLU:88    0
halogenbond:GLU:88    0
Name: 81, dtype: object

>  <saltbridge:GLU:88>  (82) 
saltbridge:GLU:88    0
saltbridge:GLU:88    0
Name: 81, dtype: object

>  <hydroph_interaction:TYR:89>  (82) 
hydroph_interaction:TYR:89    0
hydroph_interaction:TYR:89    0
Name: 81, dtype: object

>  <pistack:TYR:89>  (82) 
pistack:TYR:89    0
pistack:TYR:89    0
Name: 81, dtype: object

>  <hbond:TYR:89>  (82) 
hbond:TYR:89    0
hbond:TYR:89    0
Name: 81, dtype: object

>  <halogenbond:TYR:89>  (82) 
halogenbond:TYR:89    0
halogenbond:TYR:89    0
Name: 81, dtype: object

>  <hbond:TYR:90>  (82) 
hbond:TYR:90    0
hbond:TYR:90    0
Name: 81, dtype: object

>  <hydroph_interaction:TYR:90>  (82) 
hydroph_interaction:TYR:90    0
hydroph_interaction:TYR:90    0
Name: 81, dtype: object

>  <pistack:TYR:90>  (82) 
pistack:TYR:90    0
pistack:TYR:90    0
Name: 81, dtype: object

>  <halogenbond:TYR:90>  (82) 
halogenbond:TYR:90    0
halogenbond:TYR:90    0
Name: 81, dtype: object

>  <pication:TYR:90>  (82) 
pication:TYR:90    0
pication:TYR:90    0
Name: 81, dtype: object

>  <hydroph_interaction:PRO:91>  (82) 
hydroph_interaction:PRO:91    0
hydroph_interaction:PRO:91    0
Name: 81, dtype: object

>  <halogenbond:PRO:91>  (82) 
halogenbond:PRO:91    0
halogenbond:PRO:91    0
Name: 81, dtype: object

>  <hbond:PRO:91>  (82) 
hbond:PRO:91    0
hbond:PRO:91    0
Name: 81, dtype: object

>  <hydroph_interaction:ALA:92>  (82) 
hydroph_interaction:ALA:92    0
hydroph_interaction:ALA:92    0
Name: 81, dtype: object

>  <hbond:ARG:93>  (82) 
hbond:ARG:93    0
hbond:ARG:93    0
Name: 81, dtype: object

>  <pication:ARG:93>  (82) 
pication:ARG:93    0
pication:ARG:93    0
Name: 81, dtype: object

>  <saltbridge:ARG:93>  (82) 
saltbridge:ARG:93    0
saltbridge:ARG:93    0
Name: 81, dtype: object

>  <hydroph_interaction:ARG:93>  (82) 
hydroph_interaction:ARG:93    0
hydroph_interaction:ARG:93    0
Name: 81, dtype: object

>  <halogenbond:ARG:93>  (82) 
halogenbond:ARG:93    0
halogenbond:ARG:93    0
Name: 81, dtype: object

>  <hydroph_interaction:TYR:94>  (82) 
hydroph_interaction:TYR:94    0
hydroph_interaction:TYR:94    0
Name: 81, dtype: object

>  <hbond:TYR:94>  (82) 
hbond:TYR:94    0
hbond:TYR:94    0
Name: 81, dtype: object

>  <halogenbond:GLN:95>  (82) 
halogenbond:GLN:95    0
halogenbond:GLN:95    0
Name: 81, dtype: object

>  <hbond:GLN:95>  (82) 
hbond:GLN:95    0
hbond:GLN:95    0
Name: 81, dtype: object

>  <hydroph_interaction:GLN:95>  (82) 
hydroph_interaction:GLN:95    0
hydroph_interaction:GLN:95    0
Name: 81, dtype: object

>  <hbond:SER:96>  (82) 
hbond:SER:96    0
hbond:SER:96    0
Name: 81, dtype: object

>  <hydroph_interaction:LEU:98>  (82) 
hydroph_interaction:LEU:98    0
hydroph_interaction:LEU:98    0
Name: 81, dtype: object

>  <hbond:LEU:98>  (82) 
hbond:LEU:98    0
hbond:LEU:98    0
Name: 81, dtype: object

>  <hbond:MET:99>  (82) 
hbond:MET:99    0
hbond:MET:99    0
Name: 81, dtype: object

>  <hydroph_interaction:MET:99>  (82) 
hydroph_interaction:MET:99    0
hydroph_interaction:MET:99    0
Name: 81, dtype: object

>  <halogenbond:MET:99>  (82) 
halogenbond:MET:99    0
halogenbond:MET:99    0
Name: 81, dtype: object

>  <hydroph_interaction:LEU:100>  (82) 
hydroph_interaction:LEU:100    0
hydroph_interaction:LEU:100    0
Name: 81, dtype: object

>  <hbond:LEU:100>  (82) 
hbond:LEU:100    0
hbond:LEU:100    0
Name: 81, dtype: object

>  <hbond:ALA:101>  (82) 
hbond:ALA:101    0
hbond:ALA:101    0
Name: 81, dtype: object

>  <hydroph_interaction:ALA:101>  (82) 
hydroph_interaction:ALA:101    0
hydroph_interaction:ALA:101    0
Name: 81, dtype: object

>  <hydroph_interaction:VAL:102>  (82) 
hydroph_interaction:VAL:102    0
hydroph_interaction:VAL:102    0
Name: 81, dtype: object

>  <hbond:VAL:102>  (82) 
hbond:VAL:102    0
hbond:VAL:102    0
Name: 81, dtype: object

>  <hbond:GLY:103>  (82) 
hbond:GLY:103    0
hbond:GLY:103    0
Name: 81, dtype: object

>  <halogenbond:GLY:103>  (82) 
halogenbond:GLY:103    0
halogenbond:GLY:103    0
Name: 81, dtype: object

>  <hydroph_interaction:HIS:104>  (82) 
hydroph_interaction:HIS:104    0
hydroph_interaction:HIS:104    0
Name: 81, dtype: object

>  <hbond:HIS:104>  (82) 
hbond:HIS:104    0
hbond:HIS:104    0
Name: 81, dtype: object

>  <saltbridge:HIS:104>  (82) 
saltbridge:HIS:104    0
saltbridge:HIS:104    0
Name: 81, dtype: object

>  <pication:HIS:104>  (82) 
pication:HIS:104    0
pication:HIS:104    0
Name: 81, dtype: object

>  <pistack:HIS:104>  (82) 
pistack:HIS:104    0
pistack:HIS:104    0
Name: 81, dtype: object

>  <halogenbond:HIS:104>  (82) 
halogenbond:HIS:104    0
halogenbond:HIS:104    0
Name: 81, dtype: object

>  <hbond:SER:105>  (82) 
hbond:SER:105    0
hbond:SER:105    0
Name: 81, dtype: object

>  <halogenbond:SER:105>  (82) 
halogenbond:SER:105    0
halogenbond:SER:105    0
Name: 81, dtype: object

>  <hbond:GLU:106>  (82) 
hbond:GLU:106    0
hbond:GLU:106    0
Name: 81, dtype: object

>  <hydroph_interaction:GLU:106>  (82) 
hydroph_interaction:GLU:106    0
hydroph_interaction:GLU:106    0
Name: 81, dtype: object

>  <saltbridge:GLU:106>  (82) 
saltbridge:GLU:106    0
saltbridge:GLU:106    0
Name: 81, dtype: object

>  <halogenbond:GLU:106>  (82) 
halogenbond:GLU:106    0
halogenbond:GLU:106    0
Name: 81, dtype: object

>  <hydroph_interaction:PRO:107>  (82) 
hydroph_interaction:PRO:107    0
hydroph_interaction:PRO:107    0
Name: 81, dtype: object

>  <hbond:PRO:107>  (82) 
hbond:PRO:107    0
hbond:PRO:107    0
Name: 81, dtype: object

>  <halogenbond:PRO:107>  (82) 
halogenbond:PRO:107    0
halogenbond:PRO:107    0
Name: 81, dtype: object

>  <hbond:GLY:108>  (82) 
hbond:GLY:108    0
hbond:GLY:108    0
Name: 81, dtype: object

>  <halogenbond:GLY:108>  (82) 
halogenbond:GLY:108    0
halogenbond:GLY:108    0
Name: 81, dtype: object

>  <hbond:ASP:109>  (82) 
hbond:ASP:109    0
hbond:ASP:109    0
Name: 81, dtype: object

>  <hydroph_interaction:ASP:109>  (82) 
hydroph_interaction:ASP:109    0
hydroph_interaction:ASP:109    0
Name: 81, dtype: object

>  <saltbridge:ASP:109>  (82) 
saltbridge:ASP:109    0
saltbridge:ASP:109    0
Name: 81, dtype: object

>  <hbond:CYS:110>  (82) 
hbond:CYS:110    0
hbond:CYS:110    0
Name: 81, dtype: object

>  <halogenbond:CYS:110>  (82) 
halogenbond:CYS:110    0
halogenbond:CYS:110    0
Name: 81, dtype: object

>  <hbond:GLY:111>  (82) 
hbond:GLY:111    0
hbond:GLY:111    0
Name: 81, dtype: object

>  <hbond:GLY:112>  (82) 
hbond:GLY:112    0
hbond:GLY:112    0
Name: 81, dtype: object

>  <hbond:ILE:113>  (82) 
hbond:ILE:113    0
hbond:ILE:113    0
Name: 81, dtype: object

>  <hydroph_interaction:LEU:114>  (82) 
hydroph_interaction:LEU:114    0
hydroph_interaction:LEU:114    0
Name: 81, dtype: object

>  <hbond:LEU:114>  (82) 
hbond:LEU:114    0
hbond:LEU:114    0
Name: 81, dtype: object

>  <hydroph_interaction:ILE:123>  (82) 
hydroph_interaction:ILE:123    0
hydroph_interaction:ILE:123    0
Name: 81, dtype: object

>  <hbond:ILE:123>  (82) 
hbond:ILE:123    0
hbond:ILE:123    0
Name: 81, dtype: object

>  <hydroph_interaction:VAL:124>  (82) 
hydroph_interaction:VAL:124    0
hydroph_interaction:VAL:124    0
Name: 81, dtype: object

>  <hbond:VAL:124>  (82) 
hbond:VAL:124    0
hbond:VAL:124    0
Name: 81, dtype: object

>  <halogenbond:VAL:124>  (82) 
halogenbond:VAL:124    0
halogenbond:VAL:124    0
Name: 81, dtype: object

>  <hbond:SER:125>  (82) 
hbond:SER:125    0
hbond:SER:125    0
Name: 81, dtype: object

>  <halogenbond:SER:125>  (82) 
halogenbond:SER:125    0
halogenbond:SER:125    0
Name: 81, dtype: object

>  <hydroph_interaction:THR:126>  (82) 
hydroph_interaction:THR:126    0
hydroph_interaction:THR:126    0
Name: 81, dtype: object

>  <hbond:THR:126>  (82) 
hbond:THR:126    0
hbond:THR:126    0
Name: 81, dtype: object

>  <halogenbond:THR:126>  (82) 
halogenbond:THR:126    0
halogenbond:THR:126    0
Name: 81, dtype: object

>  <hbond:GLY:127>  (82) 
hbond:GLY:127    0
hbond:GLY:127    0
Name: 81, dtype: object

>  <halogenbond:GLY:127>  (82) 
halogenbond:GLY:127    0
halogenbond:GLY:127    0
Name: 81, dtype: object

>  <hydroph_interaction:GLY:127>  (82) 
hydroph_interaction:GLY:127    0
hydroph_interaction:GLY:127    0
Name: 81, dtype: object

>  <hbond:GLY:128>  (82) 
hbond:GLY:128    0
hbond:GLY:128    0
Name: 81, dtype: object

>  <halogenbond:GLY:128>  (82) 
halogenbond:GLY:128    0
halogenbond:GLY:128    0
Name: 81, dtype: object

>  <hydroph_interaction:GLY:128>  (82) 
hydroph_interaction:GLY:128    0
hydroph_interaction:GLY:128    0
Name: 81, dtype: object

>  <hbond:ASN:129>  (82) 
hbond:ASN:129    0
hbond:ASN:129    0
Name: 81, dtype: object

>  <hydroph_interaction:ASN:129>  (82) 
hydroph_interaction:ASN:129    0
hydroph_interaction:ASN:129    0
Name: 81, dtype: object

>  <halogenbond:ASN:129>  (82) 
halogenbond:ASN:129    0
halogenbond:ASN:129    0
Name: 81, dtype: object

>  <hbond:GLY:130>  (82) 
hbond:GLY:130    0
hbond:GLY:130    0
Name: 81, dtype: object

>  <hydroph_interaction:LEU:131>  (82) 
hydroph_interaction:LEU:131    0
hydroph_interaction:LEU:131    0
Name: 81, dtype: object

>  <hbond:LEU:131>  (82) 
hbond:LEU:131    0
hbond:LEU:131    0
Name: 81, dtype: object

>  <halogenbond:LEU:131>  (82) 
halogenbond:LEU:131    0
halogenbond:LEU:131    0
Name: 81, dtype: object

>  <hydroph_interaction:VAL:132>  (82) 
hydroph_interaction:VAL:132    0
hydroph_interaction:VAL:132    0
Name: 81, dtype: object

>  <hbond:VAL:132>  (82) 
hbond:VAL:132    0
hbond:VAL:132    0
Name: 81, dtype: object

>  <hbond:GLY:133>  (82) 
hbond:GLY:133    0
hbond:GLY:133    0
Name: 81, dtype: object

>  <halogenbond:GLY:133>  (82) 
halogenbond:GLY:133    0
halogenbond:GLY:133    0
Name: 81, dtype: object

>  <hydroph_interaction:PHE:134>  (82) 
hydroph_interaction:PHE:134    0
hydroph_interaction:PHE:134    0
Name: 81, dtype: object

>  <hbond:PHE:134>  (82) 
hbond:PHE:134    0
hbond:PHE:134    0
Name: 81, dtype: object

>  <pistack:PHE:134>  (82) 
pistack:PHE:134    0
pistack:PHE:134    0
Name: 81, dtype: object

>  <pication:PHE:134>  (82) 
pication:PHE:134    0
pication:PHE:134    0
Name: 81, dtype: object

>  <hydroph_interaction:ALA:135>  (82) 
hydroph_interaction:ALA:135    0
hydroph_interaction:ALA:135    0
Name: 81, dtype: object

>  <hbond:ALA:135>  (82) 
hbond:ALA:135    0
hbond:ALA:135    0
Name: 81, dtype: object

$$$$
Z2027245033
     RDKit          3D

 27 28  0  0  0  0  0  0  0  0999 V2000
    9.6530    9.2030   22.9530 C   0  0  0  0  0  0  0  0  0  0  0  0
    9.0650   10.2710   23.7280 N   0  0  0  0  0  0  0  0  0  0  0  0
    8.0240   10.2230   24.5930 C   0  0  0  0  0  0  0  0  0  0  0  0
    7.7920   11.4800   25.1100 C   0  0  0  0  0  0  0  0  0  0  0  0
    6.7380   11.6660   26.0200 C   0  0  0  0  0  0  0  0  0  0  0  0
    6.1370   12.7330   26.1530 O   0  0  0  0  0  0  0  0  0  0  0  0
    6.3930   10.5440   26.7700 N   0  0  0  0  0  0  0  0  0  0  0  0
    5.3210   10.6250   27.6800 N   0  0  0  0  0  0  0  0  0  0  0  0
    4.9540    9.4440   28.2850 C   0  0  0  0  0  0  0  0  0  0  0  0
    3.8480    9.2270   28.7700 O   0  0  0  0  0  0  0  0  0  0  0  0
    8.8010   12.3280   24.5200 C   0  0  0  0  0  0  0  0  0  0  0  0
    9.2290   13.7930   24.6050 C   0  0  0  0  0  0  0  0  0  0  0  0
   10.4500   14.1500   23.7350 C   0  0  0  0  0  0  0  0  0  0  0  0
   11.0120   13.1940   22.9530 C   0  0  0  0  0  0  0  0  0  0  0  0
   10.5930   11.9090   22.8860 C   0  0  0  0  0  0  0  0  0  0  0  0
    9.5400   11.5120   23.6640 C   0  0  0  0  0  0  0  0  0  0  0  0
   10.2170    8.5320   23.5930 H   0  0  0  0  0  0  0  0  0  0  0  0
    8.8680    8.6290   22.4740 H   0  0  0  0  0  0  0  0  0  0  0  0
   10.3190    9.6100   22.1870 H   0  0  0  0  0  0  0  0  0  0  0  0
    7.5060    9.3080   24.7840 H   0  0  0  0  0  0  0  0  0  0  0  0
    6.5950    9.5890   26.4300 H   0  0  0  0  0  0  0  0  0  0  0  0
    5.2350   11.5120   28.1750 H   0  0  0  0  0  0  0  0  0  0  0  0
    5.7680    8.7000   28.2800 H   0  0  0  0  0  0  0  0  0  0  0  0
    8.7420   14.5350   25.2320 H   0  0  0  0  0  0  0  0  0  0  0  0
   10.8850   15.1360   23.7150 H   0  0  0  0  0  0  0  0  0  0  0  0
   11.8690   13.4770   22.3310 H   0  0  0  0  0  0  0  0  0  0  0  0
   11.0790   11.2040   22.2450 H   0  0  0  0  0  0  0  0  0  0  0  0
  1  2  1  0
  2  3  1  0
  3  4  2  0
  4  5  1  0
  5  6  2  0
  5  7  1  0
  7  8  1  0
  8  9  1  0
  9 10  2  0
  4 11  1  0
 11 12  2  0
 12 13  1  0
 13 14  2  0
 14 15  1  0
 15 16  2  0
 16  2  1  0
 16 11  1  0
  1 17  1  0
  1 18  1  0
  1 19  1  0
  3 20  1  0
  7 21  1  0
  8 22  1  0
  9 23  1  0
 12 24  1  0
 13 25  1  0
 14 26  1  0
 15 27  1  0
A    1
 C1 
A    2
 N1 
A    3
 C2 
A    4
 C3 
A    5
 C4 
A    6
 O1 
A    7
 N2 
A    8
 N3 
A    9
 C5 
A   10
 O2 
A   11
 C6 
A   12
 C7 
A   13
 C8 
A   14
 C9 
A   15
 C10
A   16
 C11
A   17
 H1 
A   18
 H2 
A   19
 H3 
A   20
 H4 
A   21
 H5 
A   22
 H6 
A   23
 H7 
A   24
 H8 
A   25
 H9 
A   26
 H10
A   27
 H11
M  END
>  <ref_pdb>  (83) 
x0310_0A

>  <ref_mols>  (83) 
x0556_0A,x0310_0A

>  <original SMILES>  (83) 
Cn1cc(C(=O)NNC=O)c2ccccc21

>  <rationale>  (83) 
info hydroph_interaction:P107; 

>  <intxn_cluster>  (83) 
208

>  <intxn_cluster_rank>  (83) 
574

>  <N_interactions>  (83) 
1

>  <∆∆G>  (83) 
-8.562885

>  <$/mg>  (83) 
nan

>  <comRMSD>  (83) 
0.881735

>  <N_rotatable_bonds>  (83) 
2

>  <hbond:SER:7>  (83) 
hbond:SER:7    0
hbond:SER:7    0
Name: 82, dtype: object

>  <halogenbond:SER:7>  (83) 
halogenbond:SER:7    0
halogenbond:SER:7    0
Name: 82, dtype: object

>  <hbond:GLY:8>  (83) 
hbond:GLY:8    0
hbond:GLY:8    0
Name: 82, dtype: object

>  <hydroph_interaction:ASN:19>  (83) 
hydroph_interaction:ASN:19    0
hydroph_interaction:ASN:19    0
Name: 82, dtype: object

>  <hbond:ASN:19>  (83) 
hbond:ASN:19    0
hbond:ASN:19    0
Name: 82, dtype: object

>  <halogenbond:ASN:19>  (83) 
halogenbond:ASN:19    0
halogenbond:ASN:19    0
Name: 82, dtype: object

>  <hbond:ARG:20>  (83) 
hbond:ARG:20    0
hbond:ARG:20    0
Name: 82, dtype: object

>  <hydroph_interaction:ARG:20>  (83) 
hydroph_interaction:ARG:20    0
hydroph_interaction:ARG:20    0
Name: 82, dtype: object

>  <saltbridge:ARG:20>  (83) 
saltbridge:ARG:20    0
saltbridge:ARG:20    0
Name: 82, dtype: object

>  <halogenbond:ARG:20>  (83) 
halogenbond:ARG:20    0
halogenbond:ARG:20    0
Name: 82, dtype: object

>  <pication:ARG:20>  (83) 
pication:ARG:20    0
pication:ARG:20    0
Name: 82, dtype: object

>  <hbond:HIS:21>  (83) 
hbond:HIS:21    0
hbond:HIS:21    0
Name: 82, dtype: object

>  <hydroph_interaction:HIS:21>  (83) 
hydroph_interaction:HIS:21    0
hydroph_interaction:HIS:21    0
Name: 82, dtype: object

>  <saltbridge:HIS:21>  (83) 
saltbridge:HIS:21    0
saltbridge:HIS:21    0
Name: 82, dtype: object

>  <pistack:HIS:21>  (83) 
pistack:HIS:21    0
pistack:HIS:21    0
Name: 82, dtype: object

>  <pication:HIS:21>  (83) 
pication:HIS:21    0
pication:HIS:21    0
Name: 82, dtype: object

>  <halogenbond:HIS:21>  (83) 
halogenbond:HIS:21    0
halogenbond:HIS:21    0
Name: 82, dtype: object

>  <hydroph_interaction:LEU:22>  (83) 
hydroph_interaction:LEU:22    0
hydroph_interaction:LEU:22    0
Name: 82, dtype: object

>  <hbond:LEU:22>  (83) 
hbond:LEU:22    0
hbond:LEU:22    0
Name: 82, dtype: object

>  <hydroph_interaction:TRP:28>  (83) 
hydroph_interaction:TRP:28    0
hydroph_interaction:TRP:28    0
Name: 82, dtype: object

>  <hbond:SER:36>  (83) 
hbond:SER:36    0
hbond:SER:36    0
Name: 82, dtype: object

>  <halogenbond:SER:36>  (83) 
halogenbond:SER:36    0
halogenbond:SER:36    0
Name: 82, dtype: object

>  <hbond:ARG:38>  (83) 
hbond:ARG:38    0
hbond:ARG:38    0
Name: 82, dtype: object

>  <halogenbond:ARG:38>  (83) 
halogenbond:ARG:38    0
halogenbond:ARG:38    0
Name: 82, dtype: object

>  <hbond:ASP:39>  (83) 
hbond:ASP:39    0
hbond:ASP:39    0
Name: 82, dtype: object

>  <saltbridge:ASP:39>  (83) 
saltbridge:ASP:39    0
saltbridge:ASP:39    0
Name: 82, dtype: object

>  <hydroph_interaction:ASP:39>  (83) 
hydroph_interaction:ASP:39    0
hydroph_interaction:ASP:39    0
Name: 82, dtype: object

>  <halogenbond:ASP:39>  (83) 
halogenbond:ASP:39    0
halogenbond:ASP:39    0
Name: 82, dtype: object

>  <hydroph_interaction:LEU:40>  (83) 
hydroph_interaction:LEU:40    0
hydroph_interaction:LEU:40    0
Name: 82, dtype: object

>  <hydroph_interaction:TYR:63>  (83) 
hydroph_interaction:TYR:63    0
hydroph_interaction:TYR:63    0
Name: 82, dtype: object

>  <pistack:TYR:63>  (83) 
pistack:TYR:63    0
pistack:TYR:63    0
Name: 82, dtype: object

>  <hbond:TYR:63>  (83) 
hbond:TYR:63    0
hbond:TYR:63    0
Name: 82, dtype: object

>  <hbond:TYR:64>  (83) 
hbond:TYR:64    0
hbond:TYR:64    0
Name: 82, dtype: object

>  <halogenbond:TYR:64>  (83) 
halogenbond:TYR:64    0
halogenbond:TYR:64    0
Name: 82, dtype: object

>  <hydroph_interaction:TYR:64>  (83) 
hydroph_interaction:TYR:64    0
hydroph_interaction:TYR:64    0
Name: 82, dtype: object

>  <hbond:CYS:65>  (83) 
hbond:CYS:65    0
hbond:CYS:65    0
Name: 82, dtype: object

>  <halogenbond:CYS:65>  (83) 
halogenbond:CYS:65    0
halogenbond:CYS:65    0
Name: 82, dtype: object

>  <hbond:SER:66>  (83) 
hbond:SER:66    0
hbond:SER:66    0
Name: 82, dtype: object

>  <hbond:SER:67>  (83) 
hbond:SER:67    0
hbond:SER:67    0
Name: 82, dtype: object

>  <halogenbond:SER:67>  (83) 
halogenbond:SER:67    0
halogenbond:SER:67    0
Name: 82, dtype: object

>  <hydroph_interaction:ARG:68>  (83) 
hydroph_interaction:ARG:68    0
hydroph_interaction:ARG:68    0
Name: 82, dtype: object

>  <hbond:ARG:68>  (83) 
hbond:ARG:68    0
hbond:ARG:68    0
Name: 82, dtype: object

>  <saltbridge:ARG:68>  (83) 
saltbridge:ARG:68    0
saltbridge:ARG:68    0
Name: 82, dtype: object

>  <pication:ARG:68>  (83) 
pication:ARG:68    0
pication:ARG:68    0
Name: 82, dtype: object

>  <hydroph_interaction:TYR:72>  (83) 
hydroph_interaction:TYR:72    0
hydroph_interaction:TYR:72    0
Name: 82, dtype: object

>  <hydroph_interaction:VAL:74>  (83) 
hydroph_interaction:VAL:74    0
hydroph_interaction:VAL:74    0
Name: 82, dtype: object

>  <hydroph_interaction:PHE:76>  (83) 
hydroph_interaction:PHE:76    0
hydroph_interaction:PHE:76    0
Name: 82, dtype: object

>  <hbond:SER:77>  (83) 
hbond:SER:77    0
hbond:SER:77    0
Name: 82, dtype: object

>  <hbond:SER:80>  (83) 
hbond:SER:80    0
hbond:SER:80    0
Name: 82, dtype: object

>  <hbond:LEU:81>  (83) 
hbond:LEU:81    0
hbond:LEU:81    0
Name: 82, dtype: object

>  <halogenbond:LEU:81>  (83) 
halogenbond:LEU:81    0
halogenbond:LEU:81    0
Name: 82, dtype: object

>  <hydroph_interaction:LEU:81>  (83) 
hydroph_interaction:LEU:81    0
hydroph_interaction:LEU:81    0
Name: 82, dtype: object

>  <hydroph_interaction:ILE:82>  (83) 
hydroph_interaction:ILE:82    0
hydroph_interaction:ILE:82    0
Name: 82, dtype: object

>  <hbond:ILE:82>  (83) 
hbond:ILE:82    0
hbond:ILE:82    0
Name: 82, dtype: object

>  <hydroph_interaction:PHE:83>  (83) 
hydroph_interaction:PHE:83    0
hydroph_interaction:PHE:83    0
Name: 82, dtype: object

>  <hbond:PHE:83>  (83) 
hbond:PHE:83    0
hbond:PHE:83    0
Name: 82, dtype: object

>  <halogenbond:PHE:83>  (83) 
halogenbond:PHE:83    0
halogenbond:PHE:83    0
Name: 82, dtype: object

>  <pistack:PHE:83>  (83) 
pistack:PHE:83    0
pistack:PHE:83    0
Name: 82, dtype: object

>  <hydroph_interaction:VAL:84>  (83) 
hydroph_interaction:VAL:84    0
hydroph_interaction:VAL:84    0
Name: 82, dtype: object

>  <hbond:VAL:84>  (83) 
hbond:VAL:84    0
hbond:VAL:84    0
Name: 82, dtype: object

>  <halogenbond:VAL:84>  (83) 
halogenbond:VAL:84    0
halogenbond:VAL:84    0
Name: 82, dtype: object

>  <hydroph_interaction:GLU:85>  (83) 
hydroph_interaction:GLU:85    0
hydroph_interaction:GLU:85    0
Name: 82, dtype: object

>  <hbond:GLU:85>  (83) 
hbond:GLU:85    0
hbond:GLU:85    0
Name: 82, dtype: object

>  <saltbridge:GLU:85>  (83) 
saltbridge:GLU:85    0
saltbridge:GLU:85    0
Name: 82, dtype: object

>  <halogenbond:GLU:85>  (83) 
halogenbond:GLU:85    0
halogenbond:GLU:85    0
Name: 82, dtype: object

>  <hbond:ALA:86>  (83) 
hbond:ALA:86    0
hbond:ALA:86    0
Name: 82, dtype: object

>  <halogenbond:ALA:86>  (83) 
halogenbond:ALA:86    0
halogenbond:ALA:86    0
Name: 82, dtype: object

>  <hydroph_interaction:ALA:86>  (83) 
hydroph_interaction:ALA:86    0
hydroph_interaction:ALA:86    0
Name: 82, dtype: object

>  <hbond:SER:87>  (83) 
hbond:SER:87    0
hbond:SER:87    0
Name: 82, dtype: object

>  <halogenbond:SER:87>  (83) 
halogenbond:SER:87    0
halogenbond:SER:87    0
Name: 82, dtype: object

>  <hbond:GLU:88>  (83) 
hbond:GLU:88    0
hbond:GLU:88    0
Name: 82, dtype: object

>  <hydroph_interaction:GLU:88>  (83) 
hydroph_interaction:GLU:88    0
hydroph_interaction:GLU:88    0
Name: 82, dtype: object

>  <halogenbond:GLU:88>  (83) 
halogenbond:GLU:88    0
halogenbond:GLU:88    0
Name: 82, dtype: object

>  <saltbridge:GLU:88>  (83) 
saltbridge:GLU:88    0
saltbridge:GLU:88    0
Name: 82, dtype: object

>  <hydroph_interaction:TYR:89>  (83) 
hydroph_interaction:TYR:89    0
hydroph_interaction:TYR:89    0
Name: 82, dtype: object

>  <pistack:TYR:89>  (83) 
pistack:TYR:89    0
pistack:TYR:89    0
Name: 82, dtype: object

>  <hbond:TYR:89>  (83) 
hbond:TYR:89    0
hbond:TYR:89    0
Name: 82, dtype: object

>  <halogenbond:TYR:89>  (83) 
halogenbond:TYR:89    0
halogenbond:TYR:89    0
Name: 82, dtype: object

>  <hbond:TYR:90>  (83) 
hbond:TYR:90    0
hbond:TYR:90    0
Name: 82, dtype: object

>  <hydroph_interaction:TYR:90>  (83) 
hydroph_interaction:TYR:90    0
hydroph_interaction:TYR:90    0
Name: 82, dtype: object

>  <pistack:TYR:90>  (83) 
pistack:TYR:90    0
pistack:TYR:90    0
Name: 82, dtype: object

>  <halogenbond:TYR:90>  (83) 
halogenbond:TYR:90    0
halogenbond:TYR:90    0
Name: 82, dtype: object

>  <pication:TYR:90>  (83) 
pication:TYR:90    0
pication:TYR:90    0
Name: 82, dtype: object

>  <hydroph_interaction:PRO:91>  (83) 
hydroph_interaction:PRO:91    0
hydroph_interaction:PRO:91    0
Name: 82, dtype: object

>  <halogenbond:PRO:91>  (83) 
halogenbond:PRO:91    0
halogenbond:PRO:91    0
Name: 82, dtype: object

>  <hbond:PRO:91>  (83) 
hbond:PRO:91    0
hbond:PRO:91    0
Name: 82, dtype: object

>  <hydroph_interaction:ALA:92>  (83) 
hydroph_interaction:ALA:92    0
hydroph_interaction:ALA:92    0
Name: 82, dtype: object

>  <hbond:ARG:93>  (83) 
hbond:ARG:93    0
hbond:ARG:93    0
Name: 82, dtype: object

>  <pication:ARG:93>  (83) 
pication:ARG:93    0
pication:ARG:93    0
Name: 82, dtype: object

>  <saltbridge:ARG:93>  (83) 
saltbridge:ARG:93    0
saltbridge:ARG:93    0
Name: 82, dtype: object

>  <hydroph_interaction:ARG:93>  (83) 
hydroph_interaction:ARG:93    0
hydroph_interaction:ARG:93    0
Name: 82, dtype: object

>  <halogenbond:ARG:93>  (83) 
halogenbond:ARG:93    0
halogenbond:ARG:93    0
Name: 82, dtype: object

>  <hydroph_interaction:TYR:94>  (83) 
hydroph_interaction:TYR:94    0
hydroph_interaction:TYR:94    0
Name: 82, dtype: object

>  <hbond:TYR:94>  (83) 
hbond:TYR:94    0
hbond:TYR:94    0
Name: 82, dtype: object

>  <halogenbond:GLN:95>  (83) 
halogenbond:GLN:95    0
halogenbond:GLN:95    0
Name: 82, dtype: object

>  <hbond:GLN:95>  (83) 
hbond:GLN:95    0
hbond:GLN:95    0
Name: 82, dtype: object

>  <hydroph_interaction:GLN:95>  (83) 
hydroph_interaction:GLN:95    0
hydroph_interaction:GLN:95    0
Name: 82, dtype: object

>  <hbond:SER:96>  (83) 
hbond:SER:96    0
hbond:SER:96    0
Name: 82, dtype: object

>  <hydroph_interaction:LEU:98>  (83) 
hydroph_interaction:LEU:98    0
hydroph_interaction:LEU:98    0
Name: 82, dtype: object

>  <hbond:LEU:98>  (83) 
hbond:LEU:98    0
hbond:LEU:98    0
Name: 82, dtype: object

>  <hbond:MET:99>  (83) 
hbond:MET:99    0
hbond:MET:99    0
Name: 82, dtype: object

>  <hydroph_interaction:MET:99>  (83) 
hydroph_interaction:MET:99    0
hydroph_interaction:MET:99    0
Name: 82, dtype: object

>  <halogenbond:MET:99>  (83) 
halogenbond:MET:99    0
halogenbond:MET:99    0
Name: 82, dtype: object

>  <hydroph_interaction:LEU:100>  (83) 
hydroph_interaction:LEU:100    0
hydroph_interaction:LEU:100    0
Name: 82, dtype: object

>  <hbond:LEU:100>  (83) 
hbond:LEU:100    0
hbond:LEU:100    0
Name: 82, dtype: object

>  <hbond:ALA:101>  (83) 
hbond:ALA:101    0
hbond:ALA:101    0
Name: 82, dtype: object

>  <hydroph_interaction:ALA:101>  (83) 
hydroph_interaction:ALA:101    0
hydroph_interaction:ALA:101    0
Name: 82, dtype: object

>  <hydroph_interaction:VAL:102>  (83) 
hydroph_interaction:VAL:102    0
hydroph_interaction:VAL:102    0
Name: 82, dtype: object

>  <hbond:VAL:102>  (83) 
hbond:VAL:102    0
hbond:VAL:102    0
Name: 82, dtype: object

>  <hbond:GLY:103>  (83) 
hbond:GLY:103    0
hbond:GLY:103    0
Name: 82, dtype: object

>  <halogenbond:GLY:103>  (83) 
halogenbond:GLY:103    0
halogenbond:GLY:103    0
Name: 82, dtype: object

>  <hydroph_interaction:HIS:104>  (83) 
hydroph_interaction:HIS:104    0
hydroph_interaction:HIS:104    0
Name: 82, dtype: object

>  <hbond:HIS:104>  (83) 
hbond:HIS:104    0
hbond:HIS:104    0
Name: 82, dtype: object

>  <saltbridge:HIS:104>  (83) 
saltbridge:HIS:104    0
saltbridge:HIS:104    0
Name: 82, dtype: object

>  <pication:HIS:104>  (83) 
pication:HIS:104    0
pication:HIS:104    0
Name: 82, dtype: object

>  <pistack:HIS:104>  (83) 
pistack:HIS:104    0
pistack:HIS:104    0
Name: 82, dtype: object

>  <halogenbond:HIS:104>  (83) 
halogenbond:HIS:104    0
halogenbond:HIS:104    0
Name: 82, dtype: object

>  <hbond:SER:105>  (83) 
hbond:SER:105    0
hbond:SER:105    0
Name: 82, dtype: object

>  <halogenbond:SER:105>  (83) 
halogenbond:SER:105    0
halogenbond:SER:105    0
Name: 82, dtype: object

>  <hbond:GLU:106>  (83) 
hbond:GLU:106    0
hbond:GLU:106    0
Name: 82, dtype: object

>  <hydroph_interaction:GLU:106>  (83) 
hydroph_interaction:GLU:106    0
hydroph_interaction:GLU:106    0
Name: 82, dtype: object

>  <saltbridge:GLU:106>  (83) 
saltbridge:GLU:106    0
saltbridge:GLU:106    0
Name: 82, dtype: object

>  <halogenbond:GLU:106>  (83) 
halogenbond:GLU:106    0
halogenbond:GLU:106    0
Name: 82, dtype: object

>  <hydroph_interaction:PRO:107>  (83) 
hydroph_interaction:PRO:107    1
hydroph_interaction:PRO:107    1
Name: 82, dtype: object

>  <hbond:PRO:107>  (83) 
hbond:PRO:107    0
hbond:PRO:107    0
Name: 82, dtype: object

>  <halogenbond:PRO:107>  (83) 
halogenbond:PRO:107    0
halogenbond:PRO:107    0
Name: 82, dtype: object

>  <hbond:GLY:108>  (83) 
hbond:GLY:108    0
hbond:GLY:108    0
Name: 82, dtype: object

>  <halogenbond:GLY:108>  (83) 
halogenbond:GLY:108    0
halogenbond:GLY:108    0
Name: 82, dtype: object

>  <hbond:ASP:109>  (83) 
hbond:ASP:109    0
hbond:ASP:109    0
Name: 82, dtype: object

>  <hydroph_interaction:ASP:109>  (83) 
hydroph_interaction:ASP:109    0
hydroph_interaction:ASP:109    0
Name: 82, dtype: object

>  <saltbridge:ASP:109>  (83) 
saltbridge:ASP:109    0
saltbridge:ASP:109    0
Name: 82, dtype: object

>  <hbond:CYS:110>  (83) 
hbond:CYS:110    0
hbond:CYS:110    0
Name: 82, dtype: object

>  <halogenbond:CYS:110>  (83) 
halogenbond:CYS:110    0
halogenbond:CYS:110    0
Name: 82, dtype: object

>  <hbond:GLY:111>  (83) 
hbond:GLY:111    0
hbond:GLY:111    0
Name: 82, dtype: object

>  <hbond:GLY:112>  (83) 
hbond:GLY:112    0
hbond:GLY:112    0
Name: 82, dtype: object

>  <hbond:ILE:113>  (83) 
hbond:ILE:113    0
hbond:ILE:113    0
Name: 82, dtype: object

>  <hydroph_interaction:LEU:114>  (83) 
hydroph_interaction:LEU:114    0
hydroph_interaction:LEU:114    0
Name: 82, dtype: object

>  <hbond:LEU:114>  (83) 
hbond:LEU:114    0
hbond:LEU:114    0
Name: 82, dtype: object

>  <hydroph_interaction:ILE:123>  (83) 
hydroph_interaction:ILE:123    0
hydroph_interaction:ILE:123    0
Name: 82, dtype: object

>  <hbond:ILE:123>  (83) 
hbond:ILE:123    0
hbond:ILE:123    0
Name: 82, dtype: object

>  <hydroph_interaction:VAL:124>  (83) 
hydroph_interaction:VAL:124    0
hydroph_interaction:VAL:124    0
Name: 82, dtype: object

>  <hbond:VAL:124>  (83) 
hbond:VAL:124    0
hbond:VAL:124    0
Name: 82, dtype: object

>  <halogenbond:VAL:124>  (83) 
halogenbond:VAL:124    0
halogenbond:VAL:124    0
Name: 82, dtype: object

>  <hbond:SER:125>  (83) 
hbond:SER:125    0
hbond:SER:125    0
Name: 82, dtype: object

>  <halogenbond:SER:125>  (83) 
halogenbond:SER:125    0
halogenbond:SER:125    0
Name: 82, dtype: object

>  <hydroph_interaction:THR:126>  (83) 
hydroph_interaction:THR:126    0
hydroph_interaction:THR:126    0
Name: 82, dtype: object

>  <hbond:THR:126>  (83) 
hbond:THR:126    0
hbond:THR:126    0
Name: 82, dtype: object

>  <halogenbond:THR:126>  (83) 
halogenbond:THR:126    0
halogenbond:THR:126    0
Name: 82, dtype: object

>  <hbond:GLY:127>  (83) 
hbond:GLY:127    0
hbond:GLY:127    0
Name: 82, dtype: object

>  <halogenbond:GLY:127>  (83) 
halogenbond:GLY:127    0
halogenbond:GLY:127    0
Name: 82, dtype: object

>  <hydroph_interaction:GLY:127>  (83) 
hydroph_interaction:GLY:127    0
hydroph_interaction:GLY:127    0
Name: 82, dtype: object

>  <hbond:GLY:128>  (83) 
hbond:GLY:128    0
hbond:GLY:128    0
Name: 82, dtype: object

>  <halogenbond:GLY:128>  (83) 
halogenbond:GLY:128    0
halogenbond:GLY:128    0
Name: 82, dtype: object

>  <hydroph_interaction:GLY:128>  (83) 
hydroph_interaction:GLY:128    0
hydroph_interaction:GLY:128    0
Name: 82, dtype: object

>  <hbond:ASN:129>  (83) 
hbond:ASN:129    0
hbond:ASN:129    0
Name: 82, dtype: object

>  <hydroph_interaction:ASN:129>  (83) 
hydroph_interaction:ASN:129    0
hydroph_interaction:ASN:129    0
Name: 82, dtype: object

>  <halogenbond:ASN:129>  (83) 
halogenbond:ASN:129    0
halogenbond:ASN:129    0
Name: 82, dtype: object

>  <hbond:GLY:130>  (83) 
hbond:GLY:130    0
hbond:GLY:130    0
Name: 82, dtype: object

>  <hydroph_interaction:LEU:131>  (83) 
hydroph_interaction:LEU:131    0
hydroph_interaction:LEU:131    0
Name: 82, dtype: object

>  <hbond:LEU:131>  (83) 
hbond:LEU:131    0
hbond:LEU:131    0
Name: 82, dtype: object

>  <halogenbond:LEU:131>  (83) 
halogenbond:LEU:131    0
halogenbond:LEU:131    0
Name: 82, dtype: object

>  <hydroph_interaction:VAL:132>  (83) 
hydroph_interaction:VAL:132    0
hydroph_interaction:VAL:132    0
Name: 82, dtype: object

>  <hbond:VAL:132>  (83) 
hbond:VAL:132    0
hbond:VAL:132    0
Name: 82, dtype: object

>  <hbond:GLY:133>  (83) 
hbond:GLY:133    0
hbond:GLY:133    0
Name: 82, dtype: object

>  <halogenbond:GLY:133>  (83) 
halogenbond:GLY:133    0
halogenbond:GLY:133    0
Name: 82, dtype: object

>  <hydroph_interaction:PHE:134>  (83) 
hydroph_interaction:PHE:134    0
hydroph_interaction:PHE:134    0
Name: 82, dtype: object

>  <hbond:PHE:134>  (83) 
hbond:PHE:134    0
hbond:PHE:134    0
Name: 82, dtype: object

>  <pistack:PHE:134>  (83) 
pistack:PHE:134    0
pistack:PHE:134    0
Name: 82, dtype: object

>  <pication:PHE:134>  (83) 
pication:PHE:134    0
pication:PHE:134    0
Name: 82, dtype: object

>  <hydroph_interaction:ALA:135>  (83) 
hydroph_interaction:ALA:135    0
hydroph_interaction:ALA:135    0
Name: 82, dtype: object

>  <hbond:ALA:135>  (83) 
hbond:ALA:135    0
hbond:ALA:135    0
Name: 82, dtype: object

$$$$
Z31691089
     RDKit          3D

 22 22  0  0  0  0  0  0  0  0999 V2000
   10.2600    9.2030   22.5990 C   0  0  0  0  0  0  0  0  0  0  0  0
    9.5880   10.3040   23.3480 C   0  0  0  0  0  0  0  0  0  0  0  0
    9.9100   11.6270   23.1350 C   0  0  0  0  0  0  0  0  0  0  0  0
    9.2640   12.6330   23.8580 C   0  0  0  0  0  0  0  0  0  0  0  0
    8.2880   12.3260   24.8000 C   0  0  0  0  0  0  0  0  0  0  0  0
    7.6330   13.3230   25.5380 N   0  0  0  0  0  0  0  0  0  0  0  0
    7.4570   14.6350   25.1710 C   0  0  0  0  0  0  0  0  0  0  0  0
    7.4660   15.0390   24.0240 O   0  0  0  0  0  0  0  0  0  0  0  0
    7.2430   15.5690   26.3550 C   0  0  0  0  0  0  0  0  0  0  0  0
    6.4780   15.0000   27.3350 F   0  0  0  0  0  0  0  0  0  0  0  0
    8.4160   15.9160   26.9600 F   0  0  0  0  0  0  0  0  0  0  0  0
    7.9790   10.9860   24.9910 C   0  0  0  0  0  0  0  0  0  0  0  0
    8.6180   10.0080   24.2780 C   0  0  0  0  0  0  0  0  0  0  0  0
   11.0060    8.7090   23.2290 H   0  0  0  0  0  0  0  0  0  0  0  0
    9.5350    8.4540   22.2740 H   0  0  0  0  0  0  0  0  0  0  0  0
   10.7500    9.6020   21.7110 H   0  0  0  0  0  0  0  0  0  0  0  0
   10.6690   11.8920   22.4070 H   0  0  0  0  0  0  0  0  0  0  0  0
    9.5500   13.6610   23.6600 H   0  0  0  0  0  0  0  0  0  0  0  0
    7.0140   12.9260   26.2330 H   0  0  0  0  0  0  0  0  0  0  0  0
    6.7310   16.4810   26.0180 H   0  0  0  0  0  0  0  0  0  0  0  0
    7.2270   10.6690   25.7070 H   0  0  0  0  0  0  0  0  0  0  0  0
    8.3490    8.9790   24.4560 H   0  0  0  0  0  0  0  0  0  0  0  0
  1  2  1  0
  2  3  2  0
  3  4  1  0
  4  5  2  0
  5  6  1  0
  6  7  1  0
  7  8  2  0
  7  9  1  0
  9 10  1  0
  9 11  1  0
  5 12  1  0
 12 13  2  0
 13  2  1  0
  1 14  1  0
  1 15  1  0
  1 16  1  0
  3 17  1  0
  4 18  1  0
  6 19  1  0
  9 20  1  0
 12 21  1  0
 13 22  1  0
A    1
 C1 
A    2
 C2 
A    3
 C3 
A    4
 C4 
A    5
 C5 
A    6
 N1 
A    7
 C6 
A    8
 O1 
A    9
 C7 
A   10
 F1 
A   11
 F2 
A   12
 C8 
A   13
 C9 
A   14
 H1 
A   15
 H2 
A   16
 H3 
A   17
 H4 
A   18
 H5 
A   19
 H6 
A   20
 H7 
A   21
 H8 
A   22
 H9 
M  END
>  <ref_pdb>  (84) 
x0310_0A

>  <ref_mols>  (84) 
x0416_0A,x0451_0A,x1097_0A

>  <original SMILES>  (84) 
Cc1ccc(NC(=O)C(F)F)cc1

>  <rationale>  (84) 
info hydroph_interaction:V124; 

>  <intxn_cluster>  (84) 
103

>  <intxn_cluster_rank>  (84) 
574

>  <N_interactions>  (84) 
1

>  <∆∆G>  (84) 
-8.418811

>  <$/mg>  (84) 
nan

>  <comRMSD>  (84) 
0.541412

>  <N_rotatable_bonds>  (84) 
3

>  <hbond:SER:7>  (84) 
hbond:SER:7    0
hbond:SER:7    0
Name: 83, dtype: object

>  <halogenbond:SER:7>  (84) 
halogenbond:SER:7    0
halogenbond:SER:7    0
Name: 83, dtype: object

>  <hbond:GLY:8>  (84) 
hbond:GLY:8    0
hbond:GLY:8    0
Name: 83, dtype: object

>  <hydroph_interaction:ASN:19>  (84) 
hydroph_interaction:ASN:19    0
hydroph_interaction:ASN:19    0
Name: 83, dtype: object

>  <hbond:ASN:19>  (84) 
hbond:ASN:19    0
hbond:ASN:19    0
Name: 83, dtype: object

>  <halogenbond:ASN:19>  (84) 
halogenbond:ASN:19    0
halogenbond:ASN:19    0
Name: 83, dtype: object

>  <hbond:ARG:20>  (84) 
hbond:ARG:20    0
hbond:ARG:20    0
Name: 83, dtype: object

>  <hydroph_interaction:ARG:20>  (84) 
hydroph_interaction:ARG:20    0
hydroph_interaction:ARG:20    0
Name: 83, dtype: object

>  <saltbridge:ARG:20>  (84) 
saltbridge:ARG:20    0
saltbridge:ARG:20    0
Name: 83, dtype: object

>  <halogenbond:ARG:20>  (84) 
halogenbond:ARG:20    0
halogenbond:ARG:20    0
Name: 83, dtype: object

>  <pication:ARG:20>  (84) 
pication:ARG:20    0
pication:ARG:20    0
Name: 83, dtype: object

>  <hbond:HIS:21>  (84) 
hbond:HIS:21    0
hbond:HIS:21    0
Name: 83, dtype: object

>  <hydroph_interaction:HIS:21>  (84) 
hydroph_interaction:HIS:21    0
hydroph_interaction:HIS:21    0
Name: 83, dtype: object

>  <saltbridge:HIS:21>  (84) 
saltbridge:HIS:21    0
saltbridge:HIS:21    0
Name: 83, dtype: object

>  <pistack:HIS:21>  (84) 
pistack:HIS:21    0
pistack:HIS:21    0
Name: 83, dtype: object

>  <pication:HIS:21>  (84) 
pication:HIS:21    0
pication:HIS:21    0
Name: 83, dtype: object

>  <halogenbond:HIS:21>  (84) 
halogenbond:HIS:21    0
halogenbond:HIS:21    0
Name: 83, dtype: object

>  <hydroph_interaction:LEU:22>  (84) 
hydroph_interaction:LEU:22    0
hydroph_interaction:LEU:22    0
Name: 83, dtype: object

>  <hbond:LEU:22>  (84) 
hbond:LEU:22    0
hbond:LEU:22    0
Name: 83, dtype: object

>  <hydroph_interaction:TRP:28>  (84) 
hydroph_interaction:TRP:28    0
hydroph_interaction:TRP:28    0
Name: 83, dtype: object

>  <hbond:SER:36>  (84) 
hbond:SER:36    0
hbond:SER:36    0
Name: 83, dtype: object

>  <halogenbond:SER:36>  (84) 
halogenbond:SER:36    0
halogenbond:SER:36    0
Name: 83, dtype: object

>  <hbond:ARG:38>  (84) 
hbond:ARG:38    0
hbond:ARG:38    0
Name: 83, dtype: object

>  <halogenbond:ARG:38>  (84) 
halogenbond:ARG:38    0
halogenbond:ARG:38    0
Name: 83, dtype: object

>  <hbond:ASP:39>  (84) 
hbond:ASP:39    0
hbond:ASP:39    0
Name: 83, dtype: object

>  <saltbridge:ASP:39>  (84) 
saltbridge:ASP:39    0
saltbridge:ASP:39    0
Name: 83, dtype: object

>  <hydroph_interaction:ASP:39>  (84) 
hydroph_interaction:ASP:39    0
hydroph_interaction:ASP:39    0
Name: 83, dtype: object

>  <halogenbond:ASP:39>  (84) 
halogenbond:ASP:39    0
halogenbond:ASP:39    0
Name: 83, dtype: object

>  <hydroph_interaction:LEU:40>  (84) 
hydroph_interaction:LEU:40    0
hydroph_interaction:LEU:40    0
Name: 83, dtype: object

>  <hydroph_interaction:TYR:63>  (84) 
hydroph_interaction:TYR:63    0
hydroph_interaction:TYR:63    0
Name: 83, dtype: object

>  <pistack:TYR:63>  (84) 
pistack:TYR:63    0
pistack:TYR:63    0
Name: 83, dtype: object

>  <hbond:TYR:63>  (84) 
hbond:TYR:63    0
hbond:TYR:63    0
Name: 83, dtype: object

>  <hbond:TYR:64>  (84) 
hbond:TYR:64    0
hbond:TYR:64    0
Name: 83, dtype: object

>  <halogenbond:TYR:64>  (84) 
halogenbond:TYR:64    0
halogenbond:TYR:64    0
Name: 83, dtype: object

>  <hydroph_interaction:TYR:64>  (84) 
hydroph_interaction:TYR:64    0
hydroph_interaction:TYR:64    0
Name: 83, dtype: object

>  <hbond:CYS:65>  (84) 
hbond:CYS:65    0
hbond:CYS:65    0
Name: 83, dtype: object

>  <halogenbond:CYS:65>  (84) 
halogenbond:CYS:65    0
halogenbond:CYS:65    0
Name: 83, dtype: object

>  <hbond:SER:66>  (84) 
hbond:SER:66    0
hbond:SER:66    0
Name: 83, dtype: object

>  <hbond:SER:67>  (84) 
hbond:SER:67    0
hbond:SER:67    0
Name: 83, dtype: object

>  <halogenbond:SER:67>  (84) 
halogenbond:SER:67    0
halogenbond:SER:67    0
Name: 83, dtype: object

>  <hydroph_interaction:ARG:68>  (84) 
hydroph_interaction:ARG:68    0
hydroph_interaction:ARG:68    0
Name: 83, dtype: object

>  <hbond:ARG:68>  (84) 
hbond:ARG:68    0
hbond:ARG:68    0
Name: 83, dtype: object

>  <saltbridge:ARG:68>  (84) 
saltbridge:ARG:68    0
saltbridge:ARG:68    0
Name: 83, dtype: object

>  <pication:ARG:68>  (84) 
pication:ARG:68    0
pication:ARG:68    0
Name: 83, dtype: object

>  <hydroph_interaction:TYR:72>  (84) 
hydroph_interaction:TYR:72    0
hydroph_interaction:TYR:72    0
Name: 83, dtype: object

>  <hydroph_interaction:VAL:74>  (84) 
hydroph_interaction:VAL:74    0
hydroph_interaction:VAL:74    0
Name: 83, dtype: object

>  <hydroph_interaction:PHE:76>  (84) 
hydroph_interaction:PHE:76    0
hydroph_interaction:PHE:76    0
Name: 83, dtype: object

>  <hbond:SER:77>  (84) 
hbond:SER:77    0
hbond:SER:77    0
Name: 83, dtype: object

>  <hbond:SER:80>  (84) 
hbond:SER:80    0
hbond:SER:80    0
Name: 83, dtype: object

>  <hbond:LEU:81>  (84) 
hbond:LEU:81    0
hbond:LEU:81    0
Name: 83, dtype: object

>  <halogenbond:LEU:81>  (84) 
halogenbond:LEU:81    0
halogenbond:LEU:81    0
Name: 83, dtype: object

>  <hydroph_interaction:LEU:81>  (84) 
hydroph_interaction:LEU:81    0
hydroph_interaction:LEU:81    0
Name: 83, dtype: object

>  <hydroph_interaction:ILE:82>  (84) 
hydroph_interaction:ILE:82    0
hydroph_interaction:ILE:82    0
Name: 83, dtype: object

>  <hbond:ILE:82>  (84) 
hbond:ILE:82    0
hbond:ILE:82    0
Name: 83, dtype: object

>  <hydroph_interaction:PHE:83>  (84) 
hydroph_interaction:PHE:83    0
hydroph_interaction:PHE:83    0
Name: 83, dtype: object

>  <hbond:PHE:83>  (84) 
hbond:PHE:83    0
hbond:PHE:83    0
Name: 83, dtype: object

>  <halogenbond:PHE:83>  (84) 
halogenbond:PHE:83    0
halogenbond:PHE:83    0
Name: 83, dtype: object

>  <pistack:PHE:83>  (84) 
pistack:PHE:83    0
pistack:PHE:83    0
Name: 83, dtype: object

>  <hydroph_interaction:VAL:84>  (84) 
hydroph_interaction:VAL:84    0
hydroph_interaction:VAL:84    0
Name: 83, dtype: object

>  <hbond:VAL:84>  (84) 
hbond:VAL:84    0
hbond:VAL:84    0
Name: 83, dtype: object

>  <halogenbond:VAL:84>  (84) 
halogenbond:VAL:84    0
halogenbond:VAL:84    0
Name: 83, dtype: object

>  <hydroph_interaction:GLU:85>  (84) 
hydroph_interaction:GLU:85    0
hydroph_interaction:GLU:85    0
Name: 83, dtype: object

>  <hbond:GLU:85>  (84) 
hbond:GLU:85    0
hbond:GLU:85    0
Name: 83, dtype: object

>  <saltbridge:GLU:85>  (84) 
saltbridge:GLU:85    0
saltbridge:GLU:85    0
Name: 83, dtype: object

>  <halogenbond:GLU:85>  (84) 
halogenbond:GLU:85    0
halogenbond:GLU:85    0
Name: 83, dtype: object

>  <hbond:ALA:86>  (84) 
hbond:ALA:86    0
hbond:ALA:86    0
Name: 83, dtype: object

>  <halogenbond:ALA:86>  (84) 
halogenbond:ALA:86    0
halogenbond:ALA:86    0
Name: 83, dtype: object

>  <hydroph_interaction:ALA:86>  (84) 
hydroph_interaction:ALA:86    0
hydroph_interaction:ALA:86    0
Name: 83, dtype: object

>  <hbond:SER:87>  (84) 
hbond:SER:87    0
hbond:SER:87    0
Name: 83, dtype: object

>  <halogenbond:SER:87>  (84) 
halogenbond:SER:87    0
halogenbond:SER:87    0
Name: 83, dtype: object

>  <hbond:GLU:88>  (84) 
hbond:GLU:88    0
hbond:GLU:88    0
Name: 83, dtype: object

>  <hydroph_interaction:GLU:88>  (84) 
hydroph_interaction:GLU:88    0
hydroph_interaction:GLU:88    0
Name: 83, dtype: object

>  <halogenbond:GLU:88>  (84) 
halogenbond:GLU:88    0
halogenbond:GLU:88    0
Name: 83, dtype: object

>  <saltbridge:GLU:88>  (84) 
saltbridge:GLU:88    0
saltbridge:GLU:88    0
Name: 83, dtype: object

>  <hydroph_interaction:TYR:89>  (84) 
hydroph_interaction:TYR:89    0
hydroph_interaction:TYR:89    0
Name: 83, dtype: object

>  <pistack:TYR:89>  (84) 
pistack:TYR:89    0
pistack:TYR:89    0
Name: 83, dtype: object

>  <hbond:TYR:89>  (84) 
hbond:TYR:89    0
hbond:TYR:89    0
Name: 83, dtype: object

>  <halogenbond:TYR:89>  (84) 
halogenbond:TYR:89    0
halogenbond:TYR:89    0
Name: 83, dtype: object

>  <hbond:TYR:90>  (84) 
hbond:TYR:90    0
hbond:TYR:90    0
Name: 83, dtype: object

>  <hydroph_interaction:TYR:90>  (84) 
hydroph_interaction:TYR:90    0
hydroph_interaction:TYR:90    0
Name: 83, dtype: object

>  <pistack:TYR:90>  (84) 
pistack:TYR:90    0
pistack:TYR:90    0
Name: 83, dtype: object

>  <halogenbond:TYR:90>  (84) 
halogenbond:TYR:90    0
halogenbond:TYR:90    0
Name: 83, dtype: object

>  <pication:TYR:90>  (84) 
pication:TYR:90    0
pication:TYR:90    0
Name: 83, dtype: object

>  <hydroph_interaction:PRO:91>  (84) 
hydroph_interaction:PRO:91    0
hydroph_interaction:PRO:91    0
Name: 83, dtype: object

>  <halogenbond:PRO:91>  (84) 
halogenbond:PRO:91    0
halogenbond:PRO:91    0
Name: 83, dtype: object

>  <hbond:PRO:91>  (84) 
hbond:PRO:91    0
hbond:PRO:91    0
Name: 83, dtype: object

>  <hydroph_interaction:ALA:92>  (84) 
hydroph_interaction:ALA:92    0
hydroph_interaction:ALA:92    0
Name: 83, dtype: object

>  <hbond:ARG:93>  (84) 
hbond:ARG:93    0
hbond:ARG:93    0
Name: 83, dtype: object

>  <pication:ARG:93>  (84) 
pication:ARG:93    0
pication:ARG:93    0
Name: 83, dtype: object

>  <saltbridge:ARG:93>  (84) 
saltbridge:ARG:93    0
saltbridge:ARG:93    0
Name: 83, dtype: object

>  <hydroph_interaction:ARG:93>  (84) 
hydroph_interaction:ARG:93    0
hydroph_interaction:ARG:93    0
Name: 83, dtype: object

>  <halogenbond:ARG:93>  (84) 
halogenbond:ARG:93    0
halogenbond:ARG:93    0
Name: 83, dtype: object

>  <hydroph_interaction:TYR:94>  (84) 
hydroph_interaction:TYR:94    0
hydroph_interaction:TYR:94    0
Name: 83, dtype: object

>  <hbond:TYR:94>  (84) 
hbond:TYR:94    0
hbond:TYR:94    0
Name: 83, dtype: object

>  <halogenbond:GLN:95>  (84) 
halogenbond:GLN:95    0
halogenbond:GLN:95    0
Name: 83, dtype: object

>  <hbond:GLN:95>  (84) 
hbond:GLN:95    0
hbond:GLN:95    0
Name: 83, dtype: object

>  <hydroph_interaction:GLN:95>  (84) 
hydroph_interaction:GLN:95    0
hydroph_interaction:GLN:95    0
Name: 83, dtype: object

>  <hbond:SER:96>  (84) 
hbond:SER:96    0
hbond:SER:96    0
Name: 83, dtype: object

>  <hydroph_interaction:LEU:98>  (84) 
hydroph_interaction:LEU:98    0
hydroph_interaction:LEU:98    0
Name: 83, dtype: object

>  <hbond:LEU:98>  (84) 
hbond:LEU:98    0
hbond:LEU:98    0
Name: 83, dtype: object

>  <hbond:MET:99>  (84) 
hbond:MET:99    0
hbond:MET:99    0
Name: 83, dtype: object

>  <hydroph_interaction:MET:99>  (84) 
hydroph_interaction:MET:99    0
hydroph_interaction:MET:99    0
Name: 83, dtype: object

>  <halogenbond:MET:99>  (84) 
halogenbond:MET:99    0
halogenbond:MET:99    0
Name: 83, dtype: object

>  <hydroph_interaction:LEU:100>  (84) 
hydroph_interaction:LEU:100    0
hydroph_interaction:LEU:100    0
Name: 83, dtype: object

>  <hbond:LEU:100>  (84) 
hbond:LEU:100    0
hbond:LEU:100    0
Name: 83, dtype: object

>  <hbond:ALA:101>  (84) 
hbond:ALA:101    0
hbond:ALA:101    0
Name: 83, dtype: object

>  <hydroph_interaction:ALA:101>  (84) 
hydroph_interaction:ALA:101    0
hydroph_interaction:ALA:101    0
Name: 83, dtype: object

>  <hydroph_interaction:VAL:102>  (84) 
hydroph_interaction:VAL:102    0
hydroph_interaction:VAL:102    0
Name: 83, dtype: object

>  <hbond:VAL:102>  (84) 
hbond:VAL:102    0
hbond:VAL:102    0
Name: 83, dtype: object

>  <hbond:GLY:103>  (84) 
hbond:GLY:103    0
hbond:GLY:103    0
Name: 83, dtype: object

>  <halogenbond:GLY:103>  (84) 
halogenbond:GLY:103    0
halogenbond:GLY:103    0
Name: 83, dtype: object

>  <hydroph_interaction:HIS:104>  (84) 
hydroph_interaction:HIS:104    0
hydroph_interaction:HIS:104    0
Name: 83, dtype: object

>  <hbond:HIS:104>  (84) 
hbond:HIS:104    0
hbond:HIS:104    0
Name: 83, dtype: object

>  <saltbridge:HIS:104>  (84) 
saltbridge:HIS:104    0
saltbridge:HIS:104    0
Name: 83, dtype: object

>  <pication:HIS:104>  (84) 
pication:HIS:104    0
pication:HIS:104    0
Name: 83, dtype: object

>  <pistack:HIS:104>  (84) 
pistack:HIS:104    0
pistack:HIS:104    0
Name: 83, dtype: object

>  <halogenbond:HIS:104>  (84) 
halogenbond:HIS:104    0
halogenbond:HIS:104    0
Name: 83, dtype: object

>  <hbond:SER:105>  (84) 
hbond:SER:105    0
hbond:SER:105    0
Name: 83, dtype: object

>  <halogenbond:SER:105>  (84) 
halogenbond:SER:105    0
halogenbond:SER:105    0
Name: 83, dtype: object

>  <hbond:GLU:106>  (84) 
hbond:GLU:106    0
hbond:GLU:106    0
Name: 83, dtype: object

>  <hydroph_interaction:GLU:106>  (84) 
hydroph_interaction:GLU:106    0
hydroph_interaction:GLU:106    0
Name: 83, dtype: object

>  <saltbridge:GLU:106>  (84) 
saltbridge:GLU:106    0
saltbridge:GLU:106    0
Name: 83, dtype: object

>  <halogenbond:GLU:106>  (84) 
halogenbond:GLU:106    0
halogenbond:GLU:106    0
Name: 83, dtype: object

>  <hydroph_interaction:PRO:107>  (84) 
hydroph_interaction:PRO:107    0
hydroph_interaction:PRO:107    0
Name: 83, dtype: object

>  <hbond:PRO:107>  (84) 
hbond:PRO:107    0
hbond:PRO:107    0
Name: 83, dtype: object

>  <halogenbond:PRO:107>  (84) 
halogenbond:PRO:107    0
halogenbond:PRO:107    0
Name: 83, dtype: object

>  <hbond:GLY:108>  (84) 
hbond:GLY:108    0
hbond:GLY:108    0
Name: 83, dtype: object

>  <halogenbond:GLY:108>  (84) 
halogenbond:GLY:108    0
halogenbond:GLY:108    0
Name: 83, dtype: object

>  <hbond:ASP:109>  (84) 
hbond:ASP:109    0
hbond:ASP:109    0
Name: 83, dtype: object

>  <hydroph_interaction:ASP:109>  (84) 
hydroph_interaction:ASP:109    0
hydroph_interaction:ASP:109    0
Name: 83, dtype: object

>  <saltbridge:ASP:109>  (84) 
saltbridge:ASP:109    0
saltbridge:ASP:109    0
Name: 83, dtype: object

>  <hbond:CYS:110>  (84) 
hbond:CYS:110    0
hbond:CYS:110    0
Name: 83, dtype: object

>  <halogenbond:CYS:110>  (84) 
halogenbond:CYS:110    0
halogenbond:CYS:110    0
Name: 83, dtype: object

>  <hbond:GLY:111>  (84) 
hbond:GLY:111    0
hbond:GLY:111    0
Name: 83, dtype: object

>  <hbond:GLY:112>  (84) 
hbond:GLY:112    0
hbond:GLY:112    0
Name: 83, dtype: object

>  <hbond:ILE:113>  (84) 
hbond:ILE:113    0
hbond:ILE:113    0
Name: 83, dtype: object

>  <hydroph_interaction:LEU:114>  (84) 
hydroph_interaction:LEU:114    0
hydroph_interaction:LEU:114    0
Name: 83, dtype: object

>  <hbond:LEU:114>  (84) 
hbond:LEU:114    0
hbond:LEU:114    0
Name: 83, dtype: object

>  <hydroph_interaction:ILE:123>  (84) 
hydroph_interaction:ILE:123    0
hydroph_interaction:ILE:123    0
Name: 83, dtype: object

>  <hbond:ILE:123>  (84) 
hbond:ILE:123    0
hbond:ILE:123    0
Name: 83, dtype: object

>  <hydroph_interaction:VAL:124>  (84) 
hydroph_interaction:VAL:124    1
hydroph_interaction:VAL:124    1
Name: 83, dtype: object

>  <hbond:VAL:124>  (84) 
hbond:VAL:124    0
hbond:VAL:124    0
Name: 83, dtype: object

>  <halogenbond:VAL:124>  (84) 
halogenbond:VAL:124    0
halogenbond:VAL:124    0
Name: 83, dtype: object

>  <hbond:SER:125>  (84) 
hbond:SER:125    0
hbond:SER:125    0
Name: 83, dtype: object

>  <halogenbond:SER:125>  (84) 
halogenbond:SER:125    0
halogenbond:SER:125    0
Name: 83, dtype: object

>  <hydroph_interaction:THR:126>  (84) 
hydroph_interaction:THR:126    0
hydroph_interaction:THR:126    0
Name: 83, dtype: object

>  <hbond:THR:126>  (84) 
hbond:THR:126    0
hbond:THR:126    0
Name: 83, dtype: object

>  <halogenbond:THR:126>  (84) 
halogenbond:THR:126    0
halogenbond:THR:126    0
Name: 83, dtype: object

>  <hbond:GLY:127>  (84) 
hbond:GLY:127    0
hbond:GLY:127    0
Name: 83, dtype: object

>  <halogenbond:GLY:127>  (84) 
halogenbond:GLY:127    0
halogenbond:GLY:127    0
Name: 83, dtype: object

>  <hydroph_interaction:GLY:127>  (84) 
hydroph_interaction:GLY:127    0
hydroph_interaction:GLY:127    0
Name: 83, dtype: object

>  <hbond:GLY:128>  (84) 
hbond:GLY:128    0
hbond:GLY:128    0
Name: 83, dtype: object

>  <halogenbond:GLY:128>  (84) 
halogenbond:GLY:128    0
halogenbond:GLY:128    0
Name: 83, dtype: object

>  <hydroph_interaction:GLY:128>  (84) 
hydroph_interaction:GLY:128    0
hydroph_interaction:GLY:128    0
Name: 83, dtype: object

>  <hbond:ASN:129>  (84) 
hbond:ASN:129    0
hbond:ASN:129    0
Name: 83, dtype: object

>  <hydroph_interaction:ASN:129>  (84) 
hydroph_interaction:ASN:129    0
hydroph_interaction:ASN:129    0
Name: 83, dtype: object

>  <halogenbond:ASN:129>  (84) 
halogenbond:ASN:129    0
halogenbond:ASN:129    0
Name: 83, dtype: object

>  <hbond:GLY:130>  (84) 
hbond:GLY:130    0
hbond:GLY:130    0
Name: 83, dtype: object

>  <hydroph_interaction:LEU:131>  (84) 
hydroph_interaction:LEU:131    0
hydroph_interaction:LEU:131    0
Name: 83, dtype: object

>  <hbond:LEU:131>  (84) 
hbond:LEU:131    0
hbond:LEU:131    0
Name: 83, dtype: object

>  <halogenbond:LEU:131>  (84) 
halogenbond:LEU:131    0
halogenbond:LEU:131    0
Name: 83, dtype: object

>  <hydroph_interaction:VAL:132>  (84) 
hydroph_interaction:VAL:132    0
hydroph_interaction:VAL:132    0
Name: 83, dtype: object

>  <hbond:VAL:132>  (84) 
hbond:VAL:132    0
hbond:VAL:132    0
Name: 83, dtype: object

>  <hbond:GLY:133>  (84) 
hbond:GLY:133    0
hbond:GLY:133    0
Name: 83, dtype: object

>  <halogenbond:GLY:133>  (84) 
halogenbond:GLY:133    0
halogenbond:GLY:133    0
Name: 83, dtype: object

>  <hydroph_interaction:PHE:134>  (84) 
hydroph_interaction:PHE:134    0
hydroph_interaction:PHE:134    0
Name: 83, dtype: object

>  <hbond:PHE:134>  (84) 
hbond:PHE:134    0
hbond:PHE:134    0
Name: 83, dtype: object

>  <pistack:PHE:134>  (84) 
pistack:PHE:134    0
pistack:PHE:134    0
Name: 83, dtype: object

>  <pication:PHE:134>  (84) 
pication:PHE:134    0
pication:PHE:134    0
Name: 83, dtype: object

>  <hydroph_interaction:ALA:135>  (84) 
hydroph_interaction:ALA:135    0
hydroph_interaction:ALA:135    0
Name: 83, dtype: object

>  <hbond:ALA:135>  (84) 
hbond:ALA:135    0
hbond:ALA:135    0
Name: 83, dtype: object

$$$$
PV_002734156289
     RDKit          3D

 21 21  0  0  0  0  0  0  0  0999 V2000
   11.8240   15.5330   21.5600 C   0  0  0  0  0  0  0  0  0  0  0  0
   11.2930   14.3930   22.3870 C   0  0  0  0  0  0  0  0  0  0  0  0
   12.2920   13.8820   23.3840 C   0  0  0  0  0  0  0  0  0  0  0  0
   10.0610   13.8460   22.2860 C   0  0  0  0  0  0  0  0  0  0  0  0
    9.4990   12.7240   23.0580 C   0  0  0  0  0  0  0  0  0  0  0  0
   10.0260   11.4530   22.9280 C   0  0  0  0  0  0  0  0  0  0  0  0
    9.4720   10.4180   23.6590 C   0  0  0  0  0  0  0  0  0  0  0  0
    8.4340   10.5720   24.5070 N   0  0  0  0  0  0  0  0  0  0  0  0
    7.9340   11.8180   24.6230 C   0  0  0  0  0  0  0  0  0  0  0  0
    8.4230   12.9080   23.9300 C   0  0  0  0  0  0  0  0  0  0  0  0
    7.8560   14.1060   24.1050 F   0  0  0  0  0  0  0  0  0  0  0  0
   12.6990   15.2300   20.9770 H   0  0  0  0  0  0  0  0  0  0  0  0
   12.1180   16.3530   22.2200 H   0  0  0  0  0  0  0  0  0  0  0  0
   11.0450   15.8620   20.8640 H   0  0  0  0  0  0  0  0  0  0  0  0
   11.8910   13.0660   23.9890 H   0  0  0  0  0  0  0  0  0  0  0  0
   13.1750   13.5060   22.8660 H   0  0  0  0  0  0  0  0  0  0  0  0
   12.5920   14.6870   24.0620 H   0  0  0  0  0  0  0  0  0  0  0  0
    9.3610   14.2480   21.5500 H   0  0  0  0  0  0  0  0  0  0  0  0
   10.8580   11.2720   22.2600 H   0  0  0  0  0  0  0  0  0  0  0  0
    9.8740    9.4120   23.5670 H   0  0  0  0  0  0  0  0  0  0  0  0
    7.1000   11.9300   25.3070 H   0  0  0  0  0  0  0  0  0  0  0  0
  1  2  1  0
  2  3  1  0
  2  4  2  3
  4  5  1  0
  5  6  2  0
  6  7  1  0
  7  8  2  0
  8  9  1  0
  9 10  2  0
 10 11  1  0
 10  5  1  0
  1 12  1  0
  1 13  1  0
  1 14  1  0
  3 15  1  0
  3 16  1  0
  3 17  1  0
  4 18  1  0
  6 19  1  0
  7 20  1  0
  9 21  1  0
A    1
 C1 
A    2
 C2 
A    3
 C3 
A    4
 C4 
A    5
 C5 
A    6
 C6 
A    7
 C7 
A    8
 N1 
A    9
 C8 
A   10
 C9 
A   11
 F1 
A   12
 H1 
A   13
 H2 
A   14
 H3 
A   15
 H4 
A   16
 H5 
A   17
 H6 
A   18
 H7 
A   19
 H8 
A   20
 H9 
A   21
 H10
M  END
>  <ref_pdb>  (85) 
x0310_0A

>  <ref_mols>  (85) 
x0732_0A,x0528_0A

>  <original SMILES>  (85) 
CC(C)=Cc1ccncc1F

>  <rationale>  (85) 
info hydroph_interaction:Y90; 

>  <intxn_cluster>  (85) 
208

>  <intxn_cluster_rank>  (85) 
594

>  <N_interactions>  (85) 
1

>  <∆∆G>  (85) 
-7.049612

>  <$/mg>  (85) 
nan

>  <comRMSD>  (85) 
0.769223

>  <N_rotatable_bonds>  (85) 
3

>  <hbond:SER:7>  (85) 
hbond:SER:7    0
hbond:SER:7    0
Name: 84, dtype: object

>  <halogenbond:SER:7>  (85) 
halogenbond:SER:7    0
halogenbond:SER:7    0
Name: 84, dtype: object

>  <hbond:GLY:8>  (85) 
hbond:GLY:8    0
hbond:GLY:8    0
Name: 84, dtype: object

>  <hydroph_interaction:ASN:19>  (85) 
hydroph_interaction:ASN:19    0
hydroph_interaction:ASN:19    0
Name: 84, dtype: object

>  <hbond:ASN:19>  (85) 
hbond:ASN:19    0
hbond:ASN:19    0
Name: 84, dtype: object

>  <halogenbond:ASN:19>  (85) 
halogenbond:ASN:19    0
halogenbond:ASN:19    0
Name: 84, dtype: object

>  <hbond:ARG:20>  (85) 
hbond:ARG:20    0
hbond:ARG:20    0
Name: 84, dtype: object

>  <hydroph_interaction:ARG:20>  (85) 
hydroph_interaction:ARG:20    0
hydroph_interaction:ARG:20    0
Name: 84, dtype: object

>  <saltbridge:ARG:20>  (85) 
saltbridge:ARG:20    0
saltbridge:ARG:20    0
Name: 84, dtype: object

>  <halogenbond:ARG:20>  (85) 
halogenbond:ARG:20    0
halogenbond:ARG:20    0
Name: 84, dtype: object

>  <pication:ARG:20>  (85) 
pication:ARG:20    0
pication:ARG:20    0
Name: 84, dtype: object

>  <hbond:HIS:21>  (85) 
hbond:HIS:21    0
hbond:HIS:21    0
Name: 84, dtype: object

>  <hydroph_interaction:HIS:21>  (85) 
hydroph_interaction:HIS:21    0
hydroph_interaction:HIS:21    0
Name: 84, dtype: object

>  <saltbridge:HIS:21>  (85) 
saltbridge:HIS:21    0
saltbridge:HIS:21    0
Name: 84, dtype: object

>  <pistack:HIS:21>  (85) 
pistack:HIS:21    0
pistack:HIS:21    0
Name: 84, dtype: object

>  <pication:HIS:21>  (85) 
pication:HIS:21    0
pication:HIS:21    0
Name: 84, dtype: object

>  <halogenbond:HIS:21>  (85) 
halogenbond:HIS:21    0
halogenbond:HIS:21    0
Name: 84, dtype: object

>  <hydroph_interaction:LEU:22>  (85) 
hydroph_interaction:LEU:22    0
hydroph_interaction:LEU:22    0
Name: 84, dtype: object

>  <hbond:LEU:22>  (85) 
hbond:LEU:22    0
hbond:LEU:22    0
Name: 84, dtype: object

>  <hydroph_interaction:TRP:28>  (85) 
hydroph_interaction:TRP:28    0
hydroph_interaction:TRP:28    0
Name: 84, dtype: object

>  <hbond:SER:36>  (85) 
hbond:SER:36    0
hbond:SER:36    0
Name: 84, dtype: object

>  <halogenbond:SER:36>  (85) 
halogenbond:SER:36    0
halogenbond:SER:36    0
Name: 84, dtype: object

>  <hbond:ARG:38>  (85) 
hbond:ARG:38    0
hbond:ARG:38    0
Name: 84, dtype: object

>  <halogenbond:ARG:38>  (85) 
halogenbond:ARG:38    0
halogenbond:ARG:38    0
Name: 84, dtype: object

>  <hbond:ASP:39>  (85) 
hbond:ASP:39    0
hbond:ASP:39    0
Name: 84, dtype: object

>  <saltbridge:ASP:39>  (85) 
saltbridge:ASP:39    0
saltbridge:ASP:39    0
Name: 84, dtype: object

>  <hydroph_interaction:ASP:39>  (85) 
hydroph_interaction:ASP:39    0
hydroph_interaction:ASP:39    0
Name: 84, dtype: object

>  <halogenbond:ASP:39>  (85) 
halogenbond:ASP:39    0
halogenbond:ASP:39    0
Name: 84, dtype: object

>  <hydroph_interaction:LEU:40>  (85) 
hydroph_interaction:LEU:40    0
hydroph_interaction:LEU:40    0
Name: 84, dtype: object

>  <hydroph_interaction:TYR:63>  (85) 
hydroph_interaction:TYR:63    0
hydroph_interaction:TYR:63    0
Name: 84, dtype: object

>  <pistack:TYR:63>  (85) 
pistack:TYR:63    0
pistack:TYR:63    0
Name: 84, dtype: object

>  <hbond:TYR:63>  (85) 
hbond:TYR:63    0
hbond:TYR:63    0
Name: 84, dtype: object

>  <hbond:TYR:64>  (85) 
hbond:TYR:64    0
hbond:TYR:64    0
Name: 84, dtype: object

>  <halogenbond:TYR:64>  (85) 
halogenbond:TYR:64    0
halogenbond:TYR:64    0
Name: 84, dtype: object

>  <hydroph_interaction:TYR:64>  (85) 
hydroph_interaction:TYR:64    0
hydroph_interaction:TYR:64    0
Name: 84, dtype: object

>  <hbond:CYS:65>  (85) 
hbond:CYS:65    0
hbond:CYS:65    0
Name: 84, dtype: object

>  <halogenbond:CYS:65>  (85) 
halogenbond:CYS:65    0
halogenbond:CYS:65    0
Name: 84, dtype: object

>  <hbond:SER:66>  (85) 
hbond:SER:66    0
hbond:SER:66    0
Name: 84, dtype: object

>  <hbond:SER:67>  (85) 
hbond:SER:67    0
hbond:SER:67    0
Name: 84, dtype: object

>  <halogenbond:SER:67>  (85) 
halogenbond:SER:67    0
halogenbond:SER:67    0
Name: 84, dtype: object

>  <hydroph_interaction:ARG:68>  (85) 
hydroph_interaction:ARG:68    0
hydroph_interaction:ARG:68    0
Name: 84, dtype: object

>  <hbond:ARG:68>  (85) 
hbond:ARG:68    0
hbond:ARG:68    0
Name: 84, dtype: object

>  <saltbridge:ARG:68>  (85) 
saltbridge:ARG:68    0
saltbridge:ARG:68    0
Name: 84, dtype: object

>  <pication:ARG:68>  (85) 
pication:ARG:68    0
pication:ARG:68    0
Name: 84, dtype: object

>  <hydroph_interaction:TYR:72>  (85) 
hydroph_interaction:TYR:72    0
hydroph_interaction:TYR:72    0
Name: 84, dtype: object

>  <hydroph_interaction:VAL:74>  (85) 
hydroph_interaction:VAL:74    0
hydroph_interaction:VAL:74    0
Name: 84, dtype: object

>  <hydroph_interaction:PHE:76>  (85) 
hydroph_interaction:PHE:76    0
hydroph_interaction:PHE:76    0
Name: 84, dtype: object

>  <hbond:SER:77>  (85) 
hbond:SER:77    0
hbond:SER:77    0
Name: 84, dtype: object

>  <hbond:SER:80>  (85) 
hbond:SER:80    0
hbond:SER:80    0
Name: 84, dtype: object

>  <hbond:LEU:81>  (85) 
hbond:LEU:81    0
hbond:LEU:81    0
Name: 84, dtype: object

>  <halogenbond:LEU:81>  (85) 
halogenbond:LEU:81    0
halogenbond:LEU:81    0
Name: 84, dtype: object

>  <hydroph_interaction:LEU:81>  (85) 
hydroph_interaction:LEU:81    0
hydroph_interaction:LEU:81    0
Name: 84, dtype: object

>  <hydroph_interaction:ILE:82>  (85) 
hydroph_interaction:ILE:82    0
hydroph_interaction:ILE:82    0
Name: 84, dtype: object

>  <hbond:ILE:82>  (85) 
hbond:ILE:82    0
hbond:ILE:82    0
Name: 84, dtype: object

>  <hydroph_interaction:PHE:83>  (85) 
hydroph_interaction:PHE:83    0
hydroph_interaction:PHE:83    0
Name: 84, dtype: object

>  <hbond:PHE:83>  (85) 
hbond:PHE:83    0
hbond:PHE:83    0
Name: 84, dtype: object

>  <halogenbond:PHE:83>  (85) 
halogenbond:PHE:83    0
halogenbond:PHE:83    0
Name: 84, dtype: object

>  <pistack:PHE:83>  (85) 
pistack:PHE:83    0
pistack:PHE:83    0
Name: 84, dtype: object

>  <hydroph_interaction:VAL:84>  (85) 
hydroph_interaction:VAL:84    0
hydroph_interaction:VAL:84    0
Name: 84, dtype: object

>  <hbond:VAL:84>  (85) 
hbond:VAL:84    0
hbond:VAL:84    0
Name: 84, dtype: object

>  <halogenbond:VAL:84>  (85) 
halogenbond:VAL:84    0
halogenbond:VAL:84    0
Name: 84, dtype: object

>  <hydroph_interaction:GLU:85>  (85) 
hydroph_interaction:GLU:85    0
hydroph_interaction:GLU:85    0
Name: 84, dtype: object

>  <hbond:GLU:85>  (85) 
hbond:GLU:85    0
hbond:GLU:85    0
Name: 84, dtype: object

>  <saltbridge:GLU:85>  (85) 
saltbridge:GLU:85    0
saltbridge:GLU:85    0
Name: 84, dtype: object

>  <halogenbond:GLU:85>  (85) 
halogenbond:GLU:85    0
halogenbond:GLU:85    0
Name: 84, dtype: object

>  <hbond:ALA:86>  (85) 
hbond:ALA:86    0
hbond:ALA:86    0
Name: 84, dtype: object

>  <halogenbond:ALA:86>  (85) 
halogenbond:ALA:86    0
halogenbond:ALA:86    0
Name: 84, dtype: object

>  <hydroph_interaction:ALA:86>  (85) 
hydroph_interaction:ALA:86    0
hydroph_interaction:ALA:86    0
Name: 84, dtype: object

>  <hbond:SER:87>  (85) 
hbond:SER:87    0
hbond:SER:87    0
Name: 84, dtype: object

>  <halogenbond:SER:87>  (85) 
halogenbond:SER:87    0
halogenbond:SER:87    0
Name: 84, dtype: object

>  <hbond:GLU:88>  (85) 
hbond:GLU:88    0
hbond:GLU:88    0
Name: 84, dtype: object

>  <hydroph_interaction:GLU:88>  (85) 
hydroph_interaction:GLU:88    0
hydroph_interaction:GLU:88    0
Name: 84, dtype: object

>  <halogenbond:GLU:88>  (85) 
halogenbond:GLU:88    0
halogenbond:GLU:88    0
Name: 84, dtype: object

>  <saltbridge:GLU:88>  (85) 
saltbridge:GLU:88    0
saltbridge:GLU:88    0
Name: 84, dtype: object

>  <hydroph_interaction:TYR:89>  (85) 
hydroph_interaction:TYR:89    0
hydroph_interaction:TYR:89    0
Name: 84, dtype: object

>  <pistack:TYR:89>  (85) 
pistack:TYR:89    0
pistack:TYR:89    0
Name: 84, dtype: object

>  <hbond:TYR:89>  (85) 
hbond:TYR:89    0
hbond:TYR:89    0
Name: 84, dtype: object

>  <halogenbond:TYR:89>  (85) 
halogenbond:TYR:89    0
halogenbond:TYR:89    0
Name: 84, dtype: object

>  <hbond:TYR:90>  (85) 
hbond:TYR:90    0
hbond:TYR:90    0
Name: 84, dtype: object

>  <hydroph_interaction:TYR:90>  (85) 
hydroph_interaction:TYR:90    1
hydroph_interaction:TYR:90    1
Name: 84, dtype: object

>  <pistack:TYR:90>  (85) 
pistack:TYR:90    0
pistack:TYR:90    0
Name: 84, dtype: object

>  <halogenbond:TYR:90>  (85) 
halogenbond:TYR:90    0
halogenbond:TYR:90    0
Name: 84, dtype: object

>  <pication:TYR:90>  (85) 
pication:TYR:90    0
pication:TYR:90    0
Name: 84, dtype: object

>  <hydroph_interaction:PRO:91>  (85) 
hydroph_interaction:PRO:91    0
hydroph_interaction:PRO:91    0
Name: 84, dtype: object

>  <halogenbond:PRO:91>  (85) 
halogenbond:PRO:91    0
halogenbond:PRO:91    0
Name: 84, dtype: object

>  <hbond:PRO:91>  (85) 
hbond:PRO:91    0
hbond:PRO:91    0
Name: 84, dtype: object

>  <hydroph_interaction:ALA:92>  (85) 
hydroph_interaction:ALA:92    0
hydroph_interaction:ALA:92    0
Name: 84, dtype: object

>  <hbond:ARG:93>  (85) 
hbond:ARG:93    0
hbond:ARG:93    0
Name: 84, dtype: object

>  <pication:ARG:93>  (85) 
pication:ARG:93    0
pication:ARG:93    0
Name: 84, dtype: object

>  <saltbridge:ARG:93>  (85) 
saltbridge:ARG:93    0
saltbridge:ARG:93    0
Name: 84, dtype: object

>  <hydroph_interaction:ARG:93>  (85) 
hydroph_interaction:ARG:93    0
hydroph_interaction:ARG:93    0
Name: 84, dtype: object

>  <halogenbond:ARG:93>  (85) 
halogenbond:ARG:93    0
halogenbond:ARG:93    0
Name: 84, dtype: object

>  <hydroph_interaction:TYR:94>  (85) 
hydroph_interaction:TYR:94    0
hydroph_interaction:TYR:94    0
Name: 84, dtype: object

>  <hbond:TYR:94>  (85) 
hbond:TYR:94    0
hbond:TYR:94    0
Name: 84, dtype: object

>  <halogenbond:GLN:95>  (85) 
halogenbond:GLN:95    0
halogenbond:GLN:95    0
Name: 84, dtype: object

>  <hbond:GLN:95>  (85) 
hbond:GLN:95    0
hbond:GLN:95    0
Name: 84, dtype: object

>  <hydroph_interaction:GLN:95>  (85) 
hydroph_interaction:GLN:95    0
hydroph_interaction:GLN:95    0
Name: 84, dtype: object

>  <hbond:SER:96>  (85) 
hbond:SER:96    0
hbond:SER:96    0
Name: 84, dtype: object

>  <hydroph_interaction:LEU:98>  (85) 
hydroph_interaction:LEU:98    0
hydroph_interaction:LEU:98    0
Name: 84, dtype: object

>  <hbond:LEU:98>  (85) 
hbond:LEU:98    0
hbond:LEU:98    0
Name: 84, dtype: object

>  <hbond:MET:99>  (85) 
hbond:MET:99    0
hbond:MET:99    0
Name: 84, dtype: object

>  <hydroph_interaction:MET:99>  (85) 
hydroph_interaction:MET:99    0
hydroph_interaction:MET:99    0
Name: 84, dtype: object

>  <halogenbond:MET:99>  (85) 
halogenbond:MET:99    0
halogenbond:MET:99    0
Name: 84, dtype: object

>  <hydroph_interaction:LEU:100>  (85) 
hydroph_interaction:LEU:100    0
hydroph_interaction:LEU:100    0
Name: 84, dtype: object

>  <hbond:LEU:100>  (85) 
hbond:LEU:100    0
hbond:LEU:100    0
Name: 84, dtype: object

>  <hbond:ALA:101>  (85) 
hbond:ALA:101    0
hbond:ALA:101    0
Name: 84, dtype: object

>  <hydroph_interaction:ALA:101>  (85) 
hydroph_interaction:ALA:101    0
hydroph_interaction:ALA:101    0
Name: 84, dtype: object

>  <hydroph_interaction:VAL:102>  (85) 
hydroph_interaction:VAL:102    0
hydroph_interaction:VAL:102    0
Name: 84, dtype: object

>  <hbond:VAL:102>  (85) 
hbond:VAL:102    0
hbond:VAL:102    0
Name: 84, dtype: object

>  <hbond:GLY:103>  (85) 
hbond:GLY:103    0
hbond:GLY:103    0
Name: 84, dtype: object

>  <halogenbond:GLY:103>  (85) 
halogenbond:GLY:103    0
halogenbond:GLY:103    0
Name: 84, dtype: object

>  <hydroph_interaction:HIS:104>  (85) 
hydroph_interaction:HIS:104    0
hydroph_interaction:HIS:104    0
Name: 84, dtype: object

>  <hbond:HIS:104>  (85) 
hbond:HIS:104    0
hbond:HIS:104    0
Name: 84, dtype: object

>  <saltbridge:HIS:104>  (85) 
saltbridge:HIS:104    0
saltbridge:HIS:104    0
Name: 84, dtype: object

>  <pication:HIS:104>  (85) 
pication:HIS:104    0
pication:HIS:104    0
Name: 84, dtype: object

>  <pistack:HIS:104>  (85) 
pistack:HIS:104    0
pistack:HIS:104    0
Name: 84, dtype: object

>  <halogenbond:HIS:104>  (85) 
halogenbond:HIS:104    0
halogenbond:HIS:104    0
Name: 84, dtype: object

>  <hbond:SER:105>  (85) 
hbond:SER:105    0
hbond:SER:105    0
Name: 84, dtype: object

>  <halogenbond:SER:105>  (85) 
halogenbond:SER:105    0
halogenbond:SER:105    0
Name: 84, dtype: object

>  <hbond:GLU:106>  (85) 
hbond:GLU:106    0
hbond:GLU:106    0
Name: 84, dtype: object

>  <hydroph_interaction:GLU:106>  (85) 
hydroph_interaction:GLU:106    0
hydroph_interaction:GLU:106    0
Name: 84, dtype: object

>  <saltbridge:GLU:106>  (85) 
saltbridge:GLU:106    0
saltbridge:GLU:106    0
Name: 84, dtype: object

>  <halogenbond:GLU:106>  (85) 
halogenbond:GLU:106    0
halogenbond:GLU:106    0
Name: 84, dtype: object

>  <hydroph_interaction:PRO:107>  (85) 
hydroph_interaction:PRO:107    0
hydroph_interaction:PRO:107    0
Name: 84, dtype: object

>  <hbond:PRO:107>  (85) 
hbond:PRO:107    0
hbond:PRO:107    0
Name: 84, dtype: object

>  <halogenbond:PRO:107>  (85) 
halogenbond:PRO:107    0
halogenbond:PRO:107    0
Name: 84, dtype: object

>  <hbond:GLY:108>  (85) 
hbond:GLY:108    0
hbond:GLY:108    0
Name: 84, dtype: object

>  <halogenbond:GLY:108>  (85) 
halogenbond:GLY:108    0
halogenbond:GLY:108    0
Name: 84, dtype: object

>  <hbond:ASP:109>  (85) 
hbond:ASP:109    0
hbond:ASP:109    0
Name: 84, dtype: object

>  <hydroph_interaction:ASP:109>  (85) 
hydroph_interaction:ASP:109    0
hydroph_interaction:ASP:109    0
Name: 84, dtype: object

>  <saltbridge:ASP:109>  (85) 
saltbridge:ASP:109    0
saltbridge:ASP:109    0
Name: 84, dtype: object

>  <hbond:CYS:110>  (85) 
hbond:CYS:110    0
hbond:CYS:110    0
Name: 84, dtype: object

>  <halogenbond:CYS:110>  (85) 
halogenbond:CYS:110    0
halogenbond:CYS:110    0
Name: 84, dtype: object

>  <hbond:GLY:111>  (85) 
hbond:GLY:111    0
hbond:GLY:111    0
Name: 84, dtype: object

>  <hbond:GLY:112>  (85) 
hbond:GLY:112    0
hbond:GLY:112    0
Name: 84, dtype: object

>  <hbond:ILE:113>  (85) 
hbond:ILE:113    0
hbond:ILE:113    0
Name: 84, dtype: object

>  <hydroph_interaction:LEU:114>  (85) 
hydroph_interaction:LEU:114    0
hydroph_interaction:LEU:114    0
Name: 84, dtype: object

>  <hbond:LEU:114>  (85) 
hbond:LEU:114    0
hbond:LEU:114    0
Name: 84, dtype: object

>  <hydroph_interaction:ILE:123>  (85) 
hydroph_interaction:ILE:123    0
hydroph_interaction:ILE:123    0
Name: 84, dtype: object

>  <hbond:ILE:123>  (85) 
hbond:ILE:123    0
hbond:ILE:123    0
Name: 84, dtype: object

>  <hydroph_interaction:VAL:124>  (85) 
hydroph_interaction:VAL:124    0
hydroph_interaction:VAL:124    0
Name: 84, dtype: object

>  <hbond:VAL:124>  (85) 
hbond:VAL:124    0
hbond:VAL:124    0
Name: 84, dtype: object

>  <halogenbond:VAL:124>  (85) 
halogenbond:VAL:124    0
halogenbond:VAL:124    0
Name: 84, dtype: object

>  <hbond:SER:125>  (85) 
hbond:SER:125    0
hbond:SER:125    0
Name: 84, dtype: object

>  <halogenbond:SER:125>  (85) 
halogenbond:SER:125    0
halogenbond:SER:125    0
Name: 84, dtype: object

>  <hydroph_interaction:THR:126>  (85) 
hydroph_interaction:THR:126    0
hydroph_interaction:THR:126    0
Name: 84, dtype: object

>  <hbond:THR:126>  (85) 
hbond:THR:126    0
hbond:THR:126    0
Name: 84, dtype: object

>  <halogenbond:THR:126>  (85) 
halogenbond:THR:126    0
halogenbond:THR:126    0
Name: 84, dtype: object

>  <hbond:GLY:127>  (85) 
hbond:GLY:127    0
hbond:GLY:127    0
Name: 84, dtype: object

>  <halogenbond:GLY:127>  (85) 
halogenbond:GLY:127    0
halogenbond:GLY:127    0
Name: 84, dtype: object

>  <hydroph_interaction:GLY:127>  (85) 
hydroph_interaction:GLY:127    0
hydroph_interaction:GLY:127    0
Name: 84, dtype: object

>  <hbond:GLY:128>  (85) 
hbond:GLY:128    0
hbond:GLY:128    0
Name: 84, dtype: object

>  <halogenbond:GLY:128>  (85) 
halogenbond:GLY:128    0
halogenbond:GLY:128    0
Name: 84, dtype: object

>  <hydroph_interaction:GLY:128>  (85) 
hydroph_interaction:GLY:128    0
hydroph_interaction:GLY:128    0
Name: 84, dtype: object

>  <hbond:ASN:129>  (85) 
hbond:ASN:129    0
hbond:ASN:129    0
Name: 84, dtype: object

>  <hydroph_interaction:ASN:129>  (85) 
hydroph_interaction:ASN:129    0
hydroph_interaction:ASN:129    0
Name: 84, dtype: object

>  <halogenbond:ASN:129>  (85) 
halogenbond:ASN:129    0
halogenbond:ASN:129    0
Name: 84, dtype: object

>  <hbond:GLY:130>  (85) 
hbond:GLY:130    0
hbond:GLY:130    0
Name: 84, dtype: object

>  <hydroph_interaction:LEU:131>  (85) 
hydroph_interaction:LEU:131    0
hydroph_interaction:LEU:131    0
Name: 84, dtype: object

>  <hbond:LEU:131>  (85) 
hbond:LEU:131    0
hbond:LEU:131    0
Name: 84, dtype: object

>  <halogenbond:LEU:131>  (85) 
halogenbond:LEU:131    0
halogenbond:LEU:131    0
Name: 84, dtype: object

>  <hydroph_interaction:VAL:132>  (85) 
hydroph_interaction:VAL:132    0
hydroph_interaction:VAL:132    0
Name: 84, dtype: object

>  <hbond:VAL:132>  (85) 
hbond:VAL:132    0
hbond:VAL:132    0
Name: 84, dtype: object

>  <hbond:GLY:133>  (85) 
hbond:GLY:133    0
hbond:GLY:133    0
Name: 84, dtype: object

>  <halogenbond:GLY:133>  (85) 
halogenbond:GLY:133    0
halogenbond:GLY:133    0
Name: 84, dtype: object

>  <hydroph_interaction:PHE:134>  (85) 
hydroph_interaction:PHE:134    0
hydroph_interaction:PHE:134    0
Name: 84, dtype: object

>  <hbond:PHE:134>  (85) 
hbond:PHE:134    0
hbond:PHE:134    0
Name: 84, dtype: object

>  <pistack:PHE:134>  (85) 
pistack:PHE:134    0
pistack:PHE:134    0
Name: 84, dtype: object

>  <pication:PHE:134>  (85) 
pication:PHE:134    0
pication:PHE:134    0
Name: 84, dtype: object

>  <hydroph_interaction:ALA:135>  (85) 
hydroph_interaction:ALA:135    0
hydroph_interaction:ALA:135    0
Name: 84, dtype: object

>  <hbond:ALA:135>  (85) 
hbond:ALA:135    0
hbond:ALA:135    0
Name: 84, dtype: object

$$$$
Z1391782042
     RDKit          3D

 34 35  0  0  0  0  0  0  0  0999 V2000
   10.0560    9.0470   22.6670 C   0  0  0  0  0  0  0  0  0  0  0  0
    9.4930   10.2290   23.3900 C   0  0  0  0  0  0  0  0  0  0  0  0
   10.0430   11.4830   23.1640 C   0  0  0  0  0  0  0  0  0  0  0  0
    9.5310   12.5950   23.8360 C   0  0  0  0  0  0  0  0  0  0  0  0
    8.3910   12.3810   24.7820 C   0  0  0  0  0  0  0  0  0  0  0  0
    7.7650   13.4000   25.5410 N   0  0  0  0  0  0  0  0  0  0  0  0
    7.4760   14.6840   25.1560 C   0  0  0  0  0  0  0  0  0  0  0  0
    7.4200   15.0810   24.0090 O   0  0  0  0  0  0  0  0  0  0  0  0
    7.2250   15.5790   26.2250 C   0  0  0  0  0  0  0  0  0  0  0  0
    6.2300   15.2460   27.3430 C   0  0  0  0  0  0  0  0  0  0  0  0
    6.5920   16.0150   28.5710 C   0  0  0  0  0  0  0  0  0  0  0  0
    7.9910   16.5610   28.3280 C   0  0  0  0  0  0  0  0  0  0  0  0
    8.4960   15.9310   27.0220 C   0  0  0  0  0  0  0  0  0  0  0  0
    7.9280   11.0730   24.9070 C   0  0  0  0  0  0  0  0  0  0  0  0
    6.7770   10.7610   25.8140 C   0  0  0  0  0  0  0  0  0  0  0  0
    8.4600   10.0130   24.2350 N   0  0  0  0  0  0  0  0  0  0  0  0
    9.2490    8.4320   22.2660 H   0  0  0  0  0  0  0  0  0  0  0  0
   10.6710    9.3740   21.8240 H   0  0  0  0  0  0  0  0  0  0  0  0
   10.6820    8.4430   23.3270 H   0  0  0  0  0  0  0  0  0  0  0  0
   10.8670   11.5850   22.4690 H   0  0  0  0  0  0  0  0  0  0  0  0
    9.9800   13.5650   23.6480 H   0  0  0  0  0  0  0  0  0  0  0  0
    7.3890   13.1150   26.4340 H   0  0  0  0  0  0  0  0  0  0  0  0
    6.8750   16.5030   25.7470 H   0  0  0  0  0  0  0  0  0  0  0  0
    6.1930   14.1690   27.5440 H   0  0  0  0  0  0  0  0  0  0  0  0
    5.2330   15.5430   26.9950 H   0  0  0  0  0  0  0  0  0  0  0  0
    5.9550   16.8340   28.9150 H   0  0  0  0  0  0  0  0  0  0  0  0
    6.6220   15.2970   29.3950 H   0  0  0  0  0  0  0  0  0  0  0  0
    8.6540   16.2830   29.1600 H   0  0  0  0  0  0  0  0  0  0  0  0
    7.9870   17.6550   28.2790 H   0  0  0  0  0  0  0  0  0  0  0  0
    9.0920   16.6600   26.4710 H   0  0  0  0  0  0  0  0  0  0  0  0
    9.1410   15.0780   27.2580 H   0  0  0  0  0  0  0  0  0  0  0  0
    6.2530    9.8740   25.4560 H   0  0  0  0  0  0  0  0  0  0  0  0
    7.1000   10.6060   26.8460 H   0  0  0  0  0  0  0  0  0  0  0  0
    6.0490   11.5870   25.8180 H   0  0  0  0  0  0  0  0  0  0  0  0
  1  2  1  0
  2  3  2  0
  3  4  1  0
  4  5  2  0
  5  6  1  0
  6  7  1  0
  7  8  2  0
  7  9  1  0
  9 10  1  0
 10 11  1  0
 11 12  1  0
 12 13  1  0
  5 14  1  0
 14 15  1  0
 14 16  2  0
 16  2  1  0
 13  9  1  0
  1 17  1  0
  1 18  1  0
  1 19  1  0
  3 20  1  0
  4 21  1  0
  6 22  1  0
  9 23  1  0
 10 24  1  0
 10 25  1  0
 11 26  1  0
 11 27  1  0
 12 28  1  0
 12 29  1  0
 13 30  1  0
 13 31  1  0
 15 32  1  0
 15 33  1  0
 15 34  1  0
A    1
 C1 
A    2
 C2 
A    3
 C3 
A    4
 C4 
A    5
 C5 
A    6
 N1 
A    7
 C6 
A    8
 O1 
A    9
 C7 
A   10
 C8 
A   11
 C9 
A   12
 C10
A   13
 C11
A   14
 C12
A   15
 C13
A   16
 N2 
A   17
 H1 
A   18
 H2 
A   19
 H3 
A   20
 H4 
A   21
 H5 
A   22
 H6 
A   23
 H7 
A   24
 H8 
A   25
 H9 
A   26
 H10
A   27
 H11
A   28
 H12
A   29
 H13
A   30
 H14
A   31
 H15
A   32
 H16
A   33
 H17
A   34
 H18
M  END
>  <ref_pdb>  (86) 
x0310_0A

>  <ref_mols>  (86) 
x0554_0A,x0812_0A,x0416_0A

>  <original SMILES>  (86) 
Cc1ccc(NC(=O)C2CCCC2)c(C)n1

>  <rationale>  (86) 
info hydroph_interaction:P107+V124; 

>  <intxn_cluster>  (86) 
103

>  <intxn_cluster_rank>  (86) 
603

>  <N_interactions>  (86) 
2

>  <∆∆G>  (86) 
-8.566872

>  <$/mg>  (86) 
nan

>  <comRMSD>  (86) 
0.946571

>  <N_rotatable_bonds>  (86) 
4

>  <hbond:SER:7>  (86) 
hbond:SER:7    0
hbond:SER:7    0
Name: 85, dtype: object

>  <halogenbond:SER:7>  (86) 
halogenbond:SER:7    0
halogenbond:SER:7    0
Name: 85, dtype: object

>  <hbond:GLY:8>  (86) 
hbond:GLY:8    0
hbond:GLY:8    0
Name: 85, dtype: object

>  <hydroph_interaction:ASN:19>  (86) 
hydroph_interaction:ASN:19    0
hydroph_interaction:ASN:19    0
Name: 85, dtype: object

>  <hbond:ASN:19>  (86) 
hbond:ASN:19    0
hbond:ASN:19    0
Name: 85, dtype: object

>  <halogenbond:ASN:19>  (86) 
halogenbond:ASN:19    0
halogenbond:ASN:19    0
Name: 85, dtype: object

>  <hbond:ARG:20>  (86) 
hbond:ARG:20    0
hbond:ARG:20    0
Name: 85, dtype: object

>  <hydroph_interaction:ARG:20>  (86) 
hydroph_interaction:ARG:20    0
hydroph_interaction:ARG:20    0
Name: 85, dtype: object

>  <saltbridge:ARG:20>  (86) 
saltbridge:ARG:20    0
saltbridge:ARG:20    0
Name: 85, dtype: object

>  <halogenbond:ARG:20>  (86) 
halogenbond:ARG:20    0
halogenbond:ARG:20    0
Name: 85, dtype: object

>  <pication:ARG:20>  (86) 
pication:ARG:20    0
pication:ARG:20    0
Name: 85, dtype: object

>  <hbond:HIS:21>  (86) 
hbond:HIS:21    0
hbond:HIS:21    0
Name: 85, dtype: object

>  <hydroph_interaction:HIS:21>  (86) 
hydroph_interaction:HIS:21    0
hydroph_interaction:HIS:21    0
Name: 85, dtype: object

>  <saltbridge:HIS:21>  (86) 
saltbridge:HIS:21    0
saltbridge:HIS:21    0
Name: 85, dtype: object

>  <pistack:HIS:21>  (86) 
pistack:HIS:21    0
pistack:HIS:21    0
Name: 85, dtype: object

>  <pication:HIS:21>  (86) 
pication:HIS:21    0
pication:HIS:21    0
Name: 85, dtype: object

>  <halogenbond:HIS:21>  (86) 
halogenbond:HIS:21    0
halogenbond:HIS:21    0
Name: 85, dtype: object

>  <hydroph_interaction:LEU:22>  (86) 
hydroph_interaction:LEU:22    0
hydroph_interaction:LEU:22    0
Name: 85, dtype: object

>  <hbond:LEU:22>  (86) 
hbond:LEU:22    0
hbond:LEU:22    0
Name: 85, dtype: object

>  <hydroph_interaction:TRP:28>  (86) 
hydroph_interaction:TRP:28    0
hydroph_interaction:TRP:28    0
Name: 85, dtype: object

>  <hbond:SER:36>  (86) 
hbond:SER:36    0
hbond:SER:36    0
Name: 85, dtype: object

>  <halogenbond:SER:36>  (86) 
halogenbond:SER:36    0
halogenbond:SER:36    0
Name: 85, dtype: object

>  <hbond:ARG:38>  (86) 
hbond:ARG:38    0
hbond:ARG:38    0
Name: 85, dtype: object

>  <halogenbond:ARG:38>  (86) 
halogenbond:ARG:38    0
halogenbond:ARG:38    0
Name: 85, dtype: object

>  <hbond:ASP:39>  (86) 
hbond:ASP:39    0
hbond:ASP:39    0
Name: 85, dtype: object

>  <saltbridge:ASP:39>  (86) 
saltbridge:ASP:39    0
saltbridge:ASP:39    0
Name: 85, dtype: object

>  <hydroph_interaction:ASP:39>  (86) 
hydroph_interaction:ASP:39    0
hydroph_interaction:ASP:39    0
Name: 85, dtype: object

>  <halogenbond:ASP:39>  (86) 
halogenbond:ASP:39    0
halogenbond:ASP:39    0
Name: 85, dtype: object

>  <hydroph_interaction:LEU:40>  (86) 
hydroph_interaction:LEU:40    0
hydroph_interaction:LEU:40    0
Name: 85, dtype: object

>  <hydroph_interaction:TYR:63>  (86) 
hydroph_interaction:TYR:63    0
hydroph_interaction:TYR:63    0
Name: 85, dtype: object

>  <pistack:TYR:63>  (86) 
pistack:TYR:63    0
pistack:TYR:63    0
Name: 85, dtype: object

>  <hbond:TYR:63>  (86) 
hbond:TYR:63    0
hbond:TYR:63    0
Name: 85, dtype: object

>  <hbond:TYR:64>  (86) 
hbond:TYR:64    0
hbond:TYR:64    0
Name: 85, dtype: object

>  <halogenbond:TYR:64>  (86) 
halogenbond:TYR:64    0
halogenbond:TYR:64    0
Name: 85, dtype: object

>  <hydroph_interaction:TYR:64>  (86) 
hydroph_interaction:TYR:64    0
hydroph_interaction:TYR:64    0
Name: 85, dtype: object

>  <hbond:CYS:65>  (86) 
hbond:CYS:65    0
hbond:CYS:65    0
Name: 85, dtype: object

>  <halogenbond:CYS:65>  (86) 
halogenbond:CYS:65    0
halogenbond:CYS:65    0
Name: 85, dtype: object

>  <hbond:SER:66>  (86) 
hbond:SER:66    0
hbond:SER:66    0
Name: 85, dtype: object

>  <hbond:SER:67>  (86) 
hbond:SER:67    0
hbond:SER:67    0
Name: 85, dtype: object

>  <halogenbond:SER:67>  (86) 
halogenbond:SER:67    0
halogenbond:SER:67    0
Name: 85, dtype: object

>  <hydroph_interaction:ARG:68>  (86) 
hydroph_interaction:ARG:68    0
hydroph_interaction:ARG:68    0
Name: 85, dtype: object

>  <hbond:ARG:68>  (86) 
hbond:ARG:68    0
hbond:ARG:68    0
Name: 85, dtype: object

>  <saltbridge:ARG:68>  (86) 
saltbridge:ARG:68    0
saltbridge:ARG:68    0
Name: 85, dtype: object

>  <pication:ARG:68>  (86) 
pication:ARG:68    0
pication:ARG:68    0
Name: 85, dtype: object

>  <hydroph_interaction:TYR:72>  (86) 
hydroph_interaction:TYR:72    0
hydroph_interaction:TYR:72    0
Name: 85, dtype: object

>  <hydroph_interaction:VAL:74>  (86) 
hydroph_interaction:VAL:74    0
hydroph_interaction:VAL:74    0
Name: 85, dtype: object

>  <hydroph_interaction:PHE:76>  (86) 
hydroph_interaction:PHE:76    0
hydroph_interaction:PHE:76    0
Name: 85, dtype: object

>  <hbond:SER:77>  (86) 
hbond:SER:77    0
hbond:SER:77    0
Name: 85, dtype: object

>  <hbond:SER:80>  (86) 
hbond:SER:80    0
hbond:SER:80    0
Name: 85, dtype: object

>  <hbond:LEU:81>  (86) 
hbond:LEU:81    0
hbond:LEU:81    0
Name: 85, dtype: object

>  <halogenbond:LEU:81>  (86) 
halogenbond:LEU:81    0
halogenbond:LEU:81    0
Name: 85, dtype: object

>  <hydroph_interaction:LEU:81>  (86) 
hydroph_interaction:LEU:81    0
hydroph_interaction:LEU:81    0
Name: 85, dtype: object

>  <hydroph_interaction:ILE:82>  (86) 
hydroph_interaction:ILE:82    0
hydroph_interaction:ILE:82    0
Name: 85, dtype: object

>  <hbond:ILE:82>  (86) 
hbond:ILE:82    0
hbond:ILE:82    0
Name: 85, dtype: object

>  <hydroph_interaction:PHE:83>  (86) 
hydroph_interaction:PHE:83    0
hydroph_interaction:PHE:83    0
Name: 85, dtype: object

>  <hbond:PHE:83>  (86) 
hbond:PHE:83    0
hbond:PHE:83    0
Name: 85, dtype: object

>  <halogenbond:PHE:83>  (86) 
halogenbond:PHE:83    0
halogenbond:PHE:83    0
Name: 85, dtype: object

>  <pistack:PHE:83>  (86) 
pistack:PHE:83    0
pistack:PHE:83    0
Name: 85, dtype: object

>  <hydroph_interaction:VAL:84>  (86) 
hydroph_interaction:VAL:84    0
hydroph_interaction:VAL:84    0
Name: 85, dtype: object

>  <hbond:VAL:84>  (86) 
hbond:VAL:84    0
hbond:VAL:84    0
Name: 85, dtype: object

>  <halogenbond:VAL:84>  (86) 
halogenbond:VAL:84    0
halogenbond:VAL:84    0
Name: 85, dtype: object

>  <hydroph_interaction:GLU:85>  (86) 
hydroph_interaction:GLU:85    0
hydroph_interaction:GLU:85    0
Name: 85, dtype: object

>  <hbond:GLU:85>  (86) 
hbond:GLU:85    0
hbond:GLU:85    0
Name: 85, dtype: object

>  <saltbridge:GLU:85>  (86) 
saltbridge:GLU:85    0
saltbridge:GLU:85    0
Name: 85, dtype: object

>  <halogenbond:GLU:85>  (86) 
halogenbond:GLU:85    0
halogenbond:GLU:85    0
Name: 85, dtype: object

>  <hbond:ALA:86>  (86) 
hbond:ALA:86    0
hbond:ALA:86    0
Name: 85, dtype: object

>  <halogenbond:ALA:86>  (86) 
halogenbond:ALA:86    0
halogenbond:ALA:86    0
Name: 85, dtype: object

>  <hydroph_interaction:ALA:86>  (86) 
hydroph_interaction:ALA:86    0
hydroph_interaction:ALA:86    0
Name: 85, dtype: object

>  <hbond:SER:87>  (86) 
hbond:SER:87    0
hbond:SER:87    0
Name: 85, dtype: object

>  <halogenbond:SER:87>  (86) 
halogenbond:SER:87    0
halogenbond:SER:87    0
Name: 85, dtype: object

>  <hbond:GLU:88>  (86) 
hbond:GLU:88    0
hbond:GLU:88    0
Name: 85, dtype: object

>  <hydroph_interaction:GLU:88>  (86) 
hydroph_interaction:GLU:88    0
hydroph_interaction:GLU:88    0
Name: 85, dtype: object

>  <halogenbond:GLU:88>  (86) 
halogenbond:GLU:88    0
halogenbond:GLU:88    0
Name: 85, dtype: object

>  <saltbridge:GLU:88>  (86) 
saltbridge:GLU:88    0
saltbridge:GLU:88    0
Name: 85, dtype: object

>  <hydroph_interaction:TYR:89>  (86) 
hydroph_interaction:TYR:89    0
hydroph_interaction:TYR:89    0
Name: 85, dtype: object

>  <pistack:TYR:89>  (86) 
pistack:TYR:89    0
pistack:TYR:89    0
Name: 85, dtype: object

>  <hbond:TYR:89>  (86) 
hbond:TYR:89    0
hbond:TYR:89    0
Name: 85, dtype: object

>  <halogenbond:TYR:89>  (86) 
halogenbond:TYR:89    0
halogenbond:TYR:89    0
Name: 85, dtype: object

>  <hbond:TYR:90>  (86) 
hbond:TYR:90    0
hbond:TYR:90    0
Name: 85, dtype: object

>  <hydroph_interaction:TYR:90>  (86) 
hydroph_interaction:TYR:90    0
hydroph_interaction:TYR:90    0
Name: 85, dtype: object

>  <pistack:TYR:90>  (86) 
pistack:TYR:90    0
pistack:TYR:90    0
Name: 85, dtype: object

>  <halogenbond:TYR:90>  (86) 
halogenbond:TYR:90    0
halogenbond:TYR:90    0
Name: 85, dtype: object

>  <pication:TYR:90>  (86) 
pication:TYR:90    0
pication:TYR:90    0
Name: 85, dtype: object

>  <hydroph_interaction:PRO:91>  (86) 
hydroph_interaction:PRO:91    0
hydroph_interaction:PRO:91    0
Name: 85, dtype: object

>  <halogenbond:PRO:91>  (86) 
halogenbond:PRO:91    0
halogenbond:PRO:91    0
Name: 85, dtype: object

>  <hbond:PRO:91>  (86) 
hbond:PRO:91    0
hbond:PRO:91    0
Name: 85, dtype: object

>  <hydroph_interaction:ALA:92>  (86) 
hydroph_interaction:ALA:92    0
hydroph_interaction:ALA:92    0
Name: 85, dtype: object

>  <hbond:ARG:93>  (86) 
hbond:ARG:93    0
hbond:ARG:93    0
Name: 85, dtype: object

>  <pication:ARG:93>  (86) 
pication:ARG:93    0
pication:ARG:93    0
Name: 85, dtype: object

>  <saltbridge:ARG:93>  (86) 
saltbridge:ARG:93    0
saltbridge:ARG:93    0
Name: 85, dtype: object

>  <hydroph_interaction:ARG:93>  (86) 
hydroph_interaction:ARG:93    0
hydroph_interaction:ARG:93    0
Name: 85, dtype: object

>  <halogenbond:ARG:93>  (86) 
halogenbond:ARG:93    0
halogenbond:ARG:93    0
Name: 85, dtype: object

>  <hydroph_interaction:TYR:94>  (86) 
hydroph_interaction:TYR:94    0
hydroph_interaction:TYR:94    0
Name: 85, dtype: object

>  <hbond:TYR:94>  (86) 
hbond:TYR:94    0
hbond:TYR:94    0
Name: 85, dtype: object

>  <halogenbond:GLN:95>  (86) 
halogenbond:GLN:95    0
halogenbond:GLN:95    0
Name: 85, dtype: object

>  <hbond:GLN:95>  (86) 
hbond:GLN:95    0
hbond:GLN:95    0
Name: 85, dtype: object

>  <hydroph_interaction:GLN:95>  (86) 
hydroph_interaction:GLN:95    0
hydroph_interaction:GLN:95    0
Name: 85, dtype: object

>  <hbond:SER:96>  (86) 
hbond:SER:96    0
hbond:SER:96    0
Name: 85, dtype: object

>  <hydroph_interaction:LEU:98>  (86) 
hydroph_interaction:LEU:98    0
hydroph_interaction:LEU:98    0
Name: 85, dtype: object

>  <hbond:LEU:98>  (86) 
hbond:LEU:98    0
hbond:LEU:98    0
Name: 85, dtype: object

>  <hbond:MET:99>  (86) 
hbond:MET:99    0
hbond:MET:99    0
Name: 85, dtype: object

>  <hydroph_interaction:MET:99>  (86) 
hydroph_interaction:MET:99    0
hydroph_interaction:MET:99    0
Name: 85, dtype: object

>  <halogenbond:MET:99>  (86) 
halogenbond:MET:99    0
halogenbond:MET:99    0
Name: 85, dtype: object

>  <hydroph_interaction:LEU:100>  (86) 
hydroph_interaction:LEU:100    0
hydroph_interaction:LEU:100    0
Name: 85, dtype: object

>  <hbond:LEU:100>  (86) 
hbond:LEU:100    0
hbond:LEU:100    0
Name: 85, dtype: object

>  <hbond:ALA:101>  (86) 
hbond:ALA:101    0
hbond:ALA:101    0
Name: 85, dtype: object

>  <hydroph_interaction:ALA:101>  (86) 
hydroph_interaction:ALA:101    0
hydroph_interaction:ALA:101    0
Name: 85, dtype: object

>  <hydroph_interaction:VAL:102>  (86) 
hydroph_interaction:VAL:102    0
hydroph_interaction:VAL:102    0
Name: 85, dtype: object

>  <hbond:VAL:102>  (86) 
hbond:VAL:102    0
hbond:VAL:102    0
Name: 85, dtype: object

>  <hbond:GLY:103>  (86) 
hbond:GLY:103    0
hbond:GLY:103    0
Name: 85, dtype: object

>  <halogenbond:GLY:103>  (86) 
halogenbond:GLY:103    0
halogenbond:GLY:103    0
Name: 85, dtype: object

>  <hydroph_interaction:HIS:104>  (86) 
hydroph_interaction:HIS:104    0
hydroph_interaction:HIS:104    0
Name: 85, dtype: object

>  <hbond:HIS:104>  (86) 
hbond:HIS:104    0
hbond:HIS:104    0
Name: 85, dtype: object

>  <saltbridge:HIS:104>  (86) 
saltbridge:HIS:104    0
saltbridge:HIS:104    0
Name: 85, dtype: object

>  <pication:HIS:104>  (86) 
pication:HIS:104    0
pication:HIS:104    0
Name: 85, dtype: object

>  <pistack:HIS:104>  (86) 
pistack:HIS:104    0
pistack:HIS:104    0
Name: 85, dtype: object

>  <halogenbond:HIS:104>  (86) 
halogenbond:HIS:104    0
halogenbond:HIS:104    0
Name: 85, dtype: object

>  <hbond:SER:105>  (86) 
hbond:SER:105    0
hbond:SER:105    0
Name: 85, dtype: object

>  <halogenbond:SER:105>  (86) 
halogenbond:SER:105    0
halogenbond:SER:105    0
Name: 85, dtype: object

>  <hbond:GLU:106>  (86) 
hbond:GLU:106    0
hbond:GLU:106    0
Name: 85, dtype: object

>  <hydroph_interaction:GLU:106>  (86) 
hydroph_interaction:GLU:106    0
hydroph_interaction:GLU:106    0
Name: 85, dtype: object

>  <saltbridge:GLU:106>  (86) 
saltbridge:GLU:106    0
saltbridge:GLU:106    0
Name: 85, dtype: object

>  <halogenbond:GLU:106>  (86) 
halogenbond:GLU:106    0
halogenbond:GLU:106    0
Name: 85, dtype: object

>  <hydroph_interaction:PRO:107>  (86) 
hydroph_interaction:PRO:107    1
hydroph_interaction:PRO:107    1
Name: 85, dtype: object

>  <hbond:PRO:107>  (86) 
hbond:PRO:107    0
hbond:PRO:107    0
Name: 85, dtype: object

>  <halogenbond:PRO:107>  (86) 
halogenbond:PRO:107    0
halogenbond:PRO:107    0
Name: 85, dtype: object

>  <hbond:GLY:108>  (86) 
hbond:GLY:108    0
hbond:GLY:108    0
Name: 85, dtype: object

>  <halogenbond:GLY:108>  (86) 
halogenbond:GLY:108    0
halogenbond:GLY:108    0
Name: 85, dtype: object

>  <hbond:ASP:109>  (86) 
hbond:ASP:109    0
hbond:ASP:109    0
Name: 85, dtype: object

>  <hydroph_interaction:ASP:109>  (86) 
hydroph_interaction:ASP:109    0
hydroph_interaction:ASP:109    0
Name: 85, dtype: object

>  <saltbridge:ASP:109>  (86) 
saltbridge:ASP:109    0
saltbridge:ASP:109    0
Name: 85, dtype: object

>  <hbond:CYS:110>  (86) 
hbond:CYS:110    0
hbond:CYS:110    0
Name: 85, dtype: object

>  <halogenbond:CYS:110>  (86) 
halogenbond:CYS:110    0
halogenbond:CYS:110    0
Name: 85, dtype: object

>  <hbond:GLY:111>  (86) 
hbond:GLY:111    0
hbond:GLY:111    0
Name: 85, dtype: object

>  <hbond:GLY:112>  (86) 
hbond:GLY:112    0
hbond:GLY:112    0
Name: 85, dtype: object

>  <hbond:ILE:113>  (86) 
hbond:ILE:113    0
hbond:ILE:113    0
Name: 85, dtype: object

>  <hydroph_interaction:LEU:114>  (86) 
hydroph_interaction:LEU:114    0
hydroph_interaction:LEU:114    0
Name: 85, dtype: object

>  <hbond:LEU:114>  (86) 
hbond:LEU:114    0
hbond:LEU:114    0
Name: 85, dtype: object

>  <hydroph_interaction:ILE:123>  (86) 
hydroph_interaction:ILE:123    0
hydroph_interaction:ILE:123    0
Name: 85, dtype: object

>  <hbond:ILE:123>  (86) 
hbond:ILE:123    0
hbond:ILE:123    0
Name: 85, dtype: object

>  <hydroph_interaction:VAL:124>  (86) 
hydroph_interaction:VAL:124    1
hydroph_interaction:VAL:124    1
Name: 85, dtype: object

>  <hbond:VAL:124>  (86) 
hbond:VAL:124    0
hbond:VAL:124    0
Name: 85, dtype: object

>  <halogenbond:VAL:124>  (86) 
halogenbond:VAL:124    0
halogenbond:VAL:124    0
Name: 85, dtype: object

>  <hbond:SER:125>  (86) 
hbond:SER:125    0
hbond:SER:125    0
Name: 85, dtype: object

>  <halogenbond:SER:125>  (86) 
halogenbond:SER:125    0
halogenbond:SER:125    0
Name: 85, dtype: object

>  <hydroph_interaction:THR:126>  (86) 
hydroph_interaction:THR:126    0
hydroph_interaction:THR:126    0
Name: 85, dtype: object

>  <hbond:THR:126>  (86) 
hbond:THR:126    0
hbond:THR:126    0
Name: 85, dtype: object

>  <halogenbond:THR:126>  (86) 
halogenbond:THR:126    0
halogenbond:THR:126    0
Name: 85, dtype: object

>  <hbond:GLY:127>  (86) 
hbond:GLY:127    0
hbond:GLY:127    0
Name: 85, dtype: object

>  <halogenbond:GLY:127>  (86) 
halogenbond:GLY:127    0
halogenbond:GLY:127    0
Name: 85, dtype: object

>  <hydroph_interaction:GLY:127>  (86) 
hydroph_interaction:GLY:127    0
hydroph_interaction:GLY:127    0
Name: 85, dtype: object

>  <hbond:GLY:128>  (86) 
hbond:GLY:128    0
hbond:GLY:128    0
Name: 85, dtype: object

>  <halogenbond:GLY:128>  (86) 
halogenbond:GLY:128    0
halogenbond:GLY:128    0
Name: 85, dtype: object

>  <hydroph_interaction:GLY:128>  (86) 
hydroph_interaction:GLY:128    0
hydroph_interaction:GLY:128    0
Name: 85, dtype: object

>  <hbond:ASN:129>  (86) 
hbond:ASN:129    0
hbond:ASN:129    0
Name: 85, dtype: object

>  <hydroph_interaction:ASN:129>  (86) 
hydroph_interaction:ASN:129    0
hydroph_interaction:ASN:129    0
Name: 85, dtype: object

>  <halogenbond:ASN:129>  (86) 
halogenbond:ASN:129    0
halogenbond:ASN:129    0
Name: 85, dtype: object

>  <hbond:GLY:130>  (86) 
hbond:GLY:130    0
hbond:GLY:130    0
Name: 85, dtype: object

>  <hydroph_interaction:LEU:131>  (86) 
hydroph_interaction:LEU:131    0
hydroph_interaction:LEU:131    0
Name: 85, dtype: object

>  <hbond:LEU:131>  (86) 
hbond:LEU:131    0
hbond:LEU:131    0
Name: 85, dtype: object

>  <halogenbond:LEU:131>  (86) 
halogenbond:LEU:131    0
halogenbond:LEU:131    0
Name: 85, dtype: object

>  <hydroph_interaction:VAL:132>  (86) 
hydroph_interaction:VAL:132    0
hydroph_interaction:VAL:132    0
Name: 85, dtype: object

>  <hbond:VAL:132>  (86) 
hbond:VAL:132    0
hbond:VAL:132    0
Name: 85, dtype: object

>  <hbond:GLY:133>  (86) 
hbond:GLY:133    0
hbond:GLY:133    0
Name: 85, dtype: object

>  <halogenbond:GLY:133>  (86) 
halogenbond:GLY:133    0
halogenbond:GLY:133    0
Name: 85, dtype: object

>  <hydroph_interaction:PHE:134>  (86) 
hydroph_interaction:PHE:134    0
hydroph_interaction:PHE:134    0
Name: 85, dtype: object

>  <hbond:PHE:134>  (86) 
hbond:PHE:134    0
hbond:PHE:134    0
Name: 85, dtype: object

>  <pistack:PHE:134>  (86) 
pistack:PHE:134    0
pistack:PHE:134    0
Name: 85, dtype: object

>  <pication:PHE:134>  (86) 
pication:PHE:134    0
pication:PHE:134    0
Name: 85, dtype: object

>  <hydroph_interaction:ALA:135>  (86) 
hydroph_interaction:ALA:135    0
hydroph_interaction:ALA:135    0
Name: 85, dtype: object

>  <hbond:ALA:135>  (86) 
hbond:ALA:135    0
hbond:ALA:135    0
Name: 85, dtype: object

$$$$
PV_003141790416
     RDKit          3D

 25 26  0  0  0  0  0  0  0  0999 V2000
   12.5670   15.4780   21.8780 C   0  0  0  0  0  0  0  0  0  0  0  0
   11.8340   14.1950   22.1020 C   0  0  0  0  0  0  0  0  0  0  0  0
   10.8440   13.9860   23.1550 C   0  0  0  0  0  0  0  0  0  0  0  0
   10.1410   12.8330   23.4360 C   0  0  0  0  0  0  0  0  0  0  0  0
   10.5690   11.7260   22.7980 N   0  0  0  0  0  0  0  0  0  0  0  0
    9.7480   10.7840   23.2740 N   0  0  0  0  0  0  0  0  0  0  0  0
    9.9210    9.4400   22.8060 C   0  0  0  0  0  0  0  0  0  0  0  0
    8.8140   11.2370   24.1840 C   0  0  0  0  0  0  0  0  0  0  0  0
    7.8060   10.6000   24.9100 C   0  0  0  0  0  0  0  0  0  0  0  0
    6.9690   11.4420   25.8170 C   0  0  0  0  0  0  0  0  0  0  0  0
    5.7100   10.7430   26.7610 Cl  0  0  0  0  0  0  0  0  0  0  0  0
    7.2080   12.8000   25.9060 C   0  0  0  0  0  0  0  0  0  0  0  0
    8.2360   13.3900   25.1580 C   0  0  0  0  0  0  0  0  0  0  0  0
    9.0430   12.6070   24.3000 C   0  0  0  0  0  0  0  0  0  0  0  0
   13.0960   15.7540   22.7940 H   0  0  0  0  0  0  0  0  0  0  0  0
   13.3100   15.3880   21.0780 H   0  0  0  0  0  0  0  0  0  0  0  0
   11.8560   16.2780   21.6500 H   0  0  0  0  0  0  0  0  0  0  0  0
   12.0810   13.3830   21.4280 H   0  0  0  0  0  0  0  0  0  0  0  0
   10.6330   14.8140   23.8090 H   0  0  0  0  0  0  0  0  0  0  0  0
   10.6180    8.9050   23.4470 H   0  0  0  0  0  0  0  0  0  0  0  0
   10.3160    9.4760   21.7880 H   0  0  0  0  0  0  0  0  0  0  0  0
    8.9430    8.9670   22.8230 H   0  0  0  0  0  0  0  0  0  0  0  0
    7.6370    9.5370   24.8200 H   0  0  0  0  0  0  0  0  0  0  0  0
    6.6040   13.4280   26.5600 H   0  0  0  0  0  0  0  0  0  0  0  0
    8.4120   14.4590   25.2440 H   0  0  0  0  0  0  0  0  0  0  0  0
  1  2  1  0
  2  3  2  0
  3  4  1  0
  4  5  2  0
  5  6  1  0
  6  7  1  0
  6  8  1  0
  8  9  2  0
  9 10  1  0
 10 11  1  0
 10 12  2  0
 12 13  1  0
 13 14  2  0
 14  4  1  0
 14  8  1  0
  1 15  1  0
  1 16  1  0
  1 17  1  0
  2 18  1  0
  3 19  1  0
  7 20  1  0
  7 21  1  0
  7 22  1  0
  9 23  1  0
 12 24  1  0
 13 25  1  0
A    1
 C1 
A    2
 C2 
A    3
 C3 
A    4
 C4 
A    5
 N1 
A    6
 N2 
A    7
 C5 
A    8
 C6 
A    9
 C7 
A   10
 C8 
A   11
CL1 
A   12
 C9 
A   13
 C10
A   14
 C11
A   15
 H1 
A   16
 H2 
A   17
 H3 
A   18
 H4 
A   19
 H5 
A   20
 H6 
A   21
 H7 
A   22
 H8 
A   23
 H9 
A   24
 H10
A   25
 H11
M  END
>  <ref_pdb>  (87) 
x0310_0A

>  <ref_mols>  (87) 
x0451_0A,x0528_0A,x0365_0A

>  <original SMILES>  (87) 
C/C=C/c1nn(C)c2cc(Cl)ccc12

>  <rationale>  (87) 
info hydroph_interaction:P107+Y90; 

>  <intxn_cluster>  (87) 
208

>  <intxn_cluster_rank>  (87) 
646

>  <N_interactions>  (87) 
2

>  <∆∆G>  (87) 
-9.215301

>  <$/mg>  (87) 
nan

>  <comRMSD>  (87) 
0.747822

>  <N_rotatable_bonds>  (87) 
3

>  <hbond:SER:7>  (87) 
hbond:SER:7    0
hbond:SER:7    0
Name: 86, dtype: object

>  <halogenbond:SER:7>  (87) 
halogenbond:SER:7    0
halogenbond:SER:7    0
Name: 86, dtype: object

>  <hbond:GLY:8>  (87) 
hbond:GLY:8    0
hbond:GLY:8    0
Name: 86, dtype: object

>  <hydroph_interaction:ASN:19>  (87) 
hydroph_interaction:ASN:19    0
hydroph_interaction:ASN:19    0
Name: 86, dtype: object

>  <hbond:ASN:19>  (87) 
hbond:ASN:19    0
hbond:ASN:19    0
Name: 86, dtype: object

>  <halogenbond:ASN:19>  (87) 
halogenbond:ASN:19    0
halogenbond:ASN:19    0
Name: 86, dtype: object

>  <hbond:ARG:20>  (87) 
hbond:ARG:20    0
hbond:ARG:20    0
Name: 86, dtype: object

>  <hydroph_interaction:ARG:20>  (87) 
hydroph_interaction:ARG:20    0
hydroph_interaction:ARG:20    0
Name: 86, dtype: object

>  <saltbridge:ARG:20>  (87) 
saltbridge:ARG:20    0
saltbridge:ARG:20    0
Name: 86, dtype: object

>  <halogenbond:ARG:20>  (87) 
halogenbond:ARG:20    0
halogenbond:ARG:20    0
Name: 86, dtype: object

>  <pication:ARG:20>  (87) 
pication:ARG:20    0
pication:ARG:20    0
Name: 86, dtype: object

>  <hbond:HIS:21>  (87) 
hbond:HIS:21    0
hbond:HIS:21    0
Name: 86, dtype: object

>  <hydroph_interaction:HIS:21>  (87) 
hydroph_interaction:HIS:21    0
hydroph_interaction:HIS:21    0
Name: 86, dtype: object

>  <saltbridge:HIS:21>  (87) 
saltbridge:HIS:21    0
saltbridge:HIS:21    0
Name: 86, dtype: object

>  <pistack:HIS:21>  (87) 
pistack:HIS:21    0
pistack:HIS:21    0
Name: 86, dtype: object

>  <pication:HIS:21>  (87) 
pication:HIS:21    0
pication:HIS:21    0
Name: 86, dtype: object

>  <halogenbond:HIS:21>  (87) 
halogenbond:HIS:21    0
halogenbond:HIS:21    0
Name: 86, dtype: object

>  <hydroph_interaction:LEU:22>  (87) 
hydroph_interaction:LEU:22    0
hydroph_interaction:LEU:22    0
Name: 86, dtype: object

>  <hbond:LEU:22>  (87) 
hbond:LEU:22    0
hbond:LEU:22    0
Name: 86, dtype: object

>  <hydroph_interaction:TRP:28>  (87) 
hydroph_interaction:TRP:28    0
hydroph_interaction:TRP:28    0
Name: 86, dtype: object

>  <hbond:SER:36>  (87) 
hbond:SER:36    0
hbond:SER:36    0
Name: 86, dtype: object

>  <halogenbond:SER:36>  (87) 
halogenbond:SER:36    0
halogenbond:SER:36    0
Name: 86, dtype: object

>  <hbond:ARG:38>  (87) 
hbond:ARG:38    0
hbond:ARG:38    0
Name: 86, dtype: object

>  <halogenbond:ARG:38>  (87) 
halogenbond:ARG:38    0
halogenbond:ARG:38    0
Name: 86, dtype: object

>  <hbond:ASP:39>  (87) 
hbond:ASP:39    0
hbond:ASP:39    0
Name: 86, dtype: object

>  <saltbridge:ASP:39>  (87) 
saltbridge:ASP:39    0
saltbridge:ASP:39    0
Name: 86, dtype: object

>  <hydroph_interaction:ASP:39>  (87) 
hydroph_interaction:ASP:39    0
hydroph_interaction:ASP:39    0
Name: 86, dtype: object

>  <halogenbond:ASP:39>  (87) 
halogenbond:ASP:39    0
halogenbond:ASP:39    0
Name: 86, dtype: object

>  <hydroph_interaction:LEU:40>  (87) 
hydroph_interaction:LEU:40    0
hydroph_interaction:LEU:40    0
Name: 86, dtype: object

>  <hydroph_interaction:TYR:63>  (87) 
hydroph_interaction:TYR:63    0
hydroph_interaction:TYR:63    0
Name: 86, dtype: object

>  <pistack:TYR:63>  (87) 
pistack:TYR:63    0
pistack:TYR:63    0
Name: 86, dtype: object

>  <hbond:TYR:63>  (87) 
hbond:TYR:63    0
hbond:TYR:63    0
Name: 86, dtype: object

>  <hbond:TYR:64>  (87) 
hbond:TYR:64    0
hbond:TYR:64    0
Name: 86, dtype: object

>  <halogenbond:TYR:64>  (87) 
halogenbond:TYR:64    0
halogenbond:TYR:64    0
Name: 86, dtype: object

>  <hydroph_interaction:TYR:64>  (87) 
hydroph_interaction:TYR:64    0
hydroph_interaction:TYR:64    0
Name: 86, dtype: object

>  <hbond:CYS:65>  (87) 
hbond:CYS:65    0
hbond:CYS:65    0
Name: 86, dtype: object

>  <halogenbond:CYS:65>  (87) 
halogenbond:CYS:65    0
halogenbond:CYS:65    0
Name: 86, dtype: object

>  <hbond:SER:66>  (87) 
hbond:SER:66    0
hbond:SER:66    0
Name: 86, dtype: object

>  <hbond:SER:67>  (87) 
hbond:SER:67    0
hbond:SER:67    0
Name: 86, dtype: object

>  <halogenbond:SER:67>  (87) 
halogenbond:SER:67    0
halogenbond:SER:67    0
Name: 86, dtype: object

>  <hydroph_interaction:ARG:68>  (87) 
hydroph_interaction:ARG:68    0
hydroph_interaction:ARG:68    0
Name: 86, dtype: object

>  <hbond:ARG:68>  (87) 
hbond:ARG:68    0
hbond:ARG:68    0
Name: 86, dtype: object

>  <saltbridge:ARG:68>  (87) 
saltbridge:ARG:68    0
saltbridge:ARG:68    0
Name: 86, dtype: object

>  <pication:ARG:68>  (87) 
pication:ARG:68    0
pication:ARG:68    0
Name: 86, dtype: object

>  <hydroph_interaction:TYR:72>  (87) 
hydroph_interaction:TYR:72    0
hydroph_interaction:TYR:72    0
Name: 86, dtype: object

>  <hydroph_interaction:VAL:74>  (87) 
hydroph_interaction:VAL:74    0
hydroph_interaction:VAL:74    0
Name: 86, dtype: object

>  <hydroph_interaction:PHE:76>  (87) 
hydroph_interaction:PHE:76    0
hydroph_interaction:PHE:76    0
Name: 86, dtype: object

>  <hbond:SER:77>  (87) 
hbond:SER:77    0
hbond:SER:77    0
Name: 86, dtype: object

>  <hbond:SER:80>  (87) 
hbond:SER:80    0
hbond:SER:80    0
Name: 86, dtype: object

>  <hbond:LEU:81>  (87) 
hbond:LEU:81    0
hbond:LEU:81    0
Name: 86, dtype: object

>  <halogenbond:LEU:81>  (87) 
halogenbond:LEU:81    0
halogenbond:LEU:81    0
Name: 86, dtype: object

>  <hydroph_interaction:LEU:81>  (87) 
hydroph_interaction:LEU:81    0
hydroph_interaction:LEU:81    0
Name: 86, dtype: object

>  <hydroph_interaction:ILE:82>  (87) 
hydroph_interaction:ILE:82    0
hydroph_interaction:ILE:82    0
Name: 86, dtype: object

>  <hbond:ILE:82>  (87) 
hbond:ILE:82    0
hbond:ILE:82    0
Name: 86, dtype: object

>  <hydroph_interaction:PHE:83>  (87) 
hydroph_interaction:PHE:83    0
hydroph_interaction:PHE:83    0
Name: 86, dtype: object

>  <hbond:PHE:83>  (87) 
hbond:PHE:83    0
hbond:PHE:83    0
Name: 86, dtype: object

>  <halogenbond:PHE:83>  (87) 
halogenbond:PHE:83    0
halogenbond:PHE:83    0
Name: 86, dtype: object

>  <pistack:PHE:83>  (87) 
pistack:PHE:83    0
pistack:PHE:83    0
Name: 86, dtype: object

>  <hydroph_interaction:VAL:84>  (87) 
hydroph_interaction:VAL:84    0
hydroph_interaction:VAL:84    0
Name: 86, dtype: object

>  <hbond:VAL:84>  (87) 
hbond:VAL:84    0
hbond:VAL:84    0
Name: 86, dtype: object

>  <halogenbond:VAL:84>  (87) 
halogenbond:VAL:84    0
halogenbond:VAL:84    0
Name: 86, dtype: object

>  <hydroph_interaction:GLU:85>  (87) 
hydroph_interaction:GLU:85    0
hydroph_interaction:GLU:85    0
Name: 86, dtype: object

>  <hbond:GLU:85>  (87) 
hbond:GLU:85    0
hbond:GLU:85    0
Name: 86, dtype: object

>  <saltbridge:GLU:85>  (87) 
saltbridge:GLU:85    0
saltbridge:GLU:85    0
Name: 86, dtype: object

>  <halogenbond:GLU:85>  (87) 
halogenbond:GLU:85    0
halogenbond:GLU:85    0
Name: 86, dtype: object

>  <hbond:ALA:86>  (87) 
hbond:ALA:86    0
hbond:ALA:86    0
Name: 86, dtype: object

>  <halogenbond:ALA:86>  (87) 
halogenbond:ALA:86    0
halogenbond:ALA:86    0
Name: 86, dtype: object

>  <hydroph_interaction:ALA:86>  (87) 
hydroph_interaction:ALA:86    0
hydroph_interaction:ALA:86    0
Name: 86, dtype: object

>  <hbond:SER:87>  (87) 
hbond:SER:87    0
hbond:SER:87    0
Name: 86, dtype: object

>  <halogenbond:SER:87>  (87) 
halogenbond:SER:87    0
halogenbond:SER:87    0
Name: 86, dtype: object

>  <hbond:GLU:88>  (87) 
hbond:GLU:88    0
hbond:GLU:88    0
Name: 86, dtype: object

>  <hydroph_interaction:GLU:88>  (87) 
hydroph_interaction:GLU:88    0
hydroph_interaction:GLU:88    0
Name: 86, dtype: object

>  <halogenbond:GLU:88>  (87) 
halogenbond:GLU:88    0
halogenbond:GLU:88    0
Name: 86, dtype: object

>  <saltbridge:GLU:88>  (87) 
saltbridge:GLU:88    0
saltbridge:GLU:88    0
Name: 86, dtype: object

>  <hydroph_interaction:TYR:89>  (87) 
hydroph_interaction:TYR:89    0
hydroph_interaction:TYR:89    0
Name: 86, dtype: object

>  <pistack:TYR:89>  (87) 
pistack:TYR:89    0
pistack:TYR:89    0
Name: 86, dtype: object

>  <hbond:TYR:89>  (87) 
hbond:TYR:89    0
hbond:TYR:89    0
Name: 86, dtype: object

>  <halogenbond:TYR:89>  (87) 
halogenbond:TYR:89    0
halogenbond:TYR:89    0
Name: 86, dtype: object

>  <hbond:TYR:90>  (87) 
hbond:TYR:90    0
hbond:TYR:90    0
Name: 86, dtype: object

>  <hydroph_interaction:TYR:90>  (87) 
hydroph_interaction:TYR:90    1
hydroph_interaction:TYR:90    1
Name: 86, dtype: object

>  <pistack:TYR:90>  (87) 
pistack:TYR:90    0
pistack:TYR:90    0
Name: 86, dtype: object

>  <halogenbond:TYR:90>  (87) 
halogenbond:TYR:90    0
halogenbond:TYR:90    0
Name: 86, dtype: object

>  <pication:TYR:90>  (87) 
pication:TYR:90    0
pication:TYR:90    0
Name: 86, dtype: object

>  <hydroph_interaction:PRO:91>  (87) 
hydroph_interaction:PRO:91    0
hydroph_interaction:PRO:91    0
Name: 86, dtype: object

>  <halogenbond:PRO:91>  (87) 
halogenbond:PRO:91    0
halogenbond:PRO:91    0
Name: 86, dtype: object

>  <hbond:PRO:91>  (87) 
hbond:PRO:91    0
hbond:PRO:91    0
Name: 86, dtype: object

>  <hydroph_interaction:ALA:92>  (87) 
hydroph_interaction:ALA:92    0
hydroph_interaction:ALA:92    0
Name: 86, dtype: object

>  <hbond:ARG:93>  (87) 
hbond:ARG:93    0
hbond:ARG:93    0
Name: 86, dtype: object

>  <pication:ARG:93>  (87) 
pication:ARG:93    0
pication:ARG:93    0
Name: 86, dtype: object

>  <saltbridge:ARG:93>  (87) 
saltbridge:ARG:93    0
saltbridge:ARG:93    0
Name: 86, dtype: object

>  <hydroph_interaction:ARG:93>  (87) 
hydroph_interaction:ARG:93    0
hydroph_interaction:ARG:93    0
Name: 86, dtype: object

>  <halogenbond:ARG:93>  (87) 
halogenbond:ARG:93    0
halogenbond:ARG:93    0
Name: 86, dtype: object

>  <hydroph_interaction:TYR:94>  (87) 
hydroph_interaction:TYR:94    0
hydroph_interaction:TYR:94    0
Name: 86, dtype: object

>  <hbond:TYR:94>  (87) 
hbond:TYR:94    0
hbond:TYR:94    0
Name: 86, dtype: object

>  <halogenbond:GLN:95>  (87) 
halogenbond:GLN:95    0
halogenbond:GLN:95    0
Name: 86, dtype: object

>  <hbond:GLN:95>  (87) 
hbond:GLN:95    0
hbond:GLN:95    0
Name: 86, dtype: object

>  <hydroph_interaction:GLN:95>  (87) 
hydroph_interaction:GLN:95    0
hydroph_interaction:GLN:95    0
Name: 86, dtype: object

>  <hbond:SER:96>  (87) 
hbond:SER:96    0
hbond:SER:96    0
Name: 86, dtype: object

>  <hydroph_interaction:LEU:98>  (87) 
hydroph_interaction:LEU:98    0
hydroph_interaction:LEU:98    0
Name: 86, dtype: object

>  <hbond:LEU:98>  (87) 
hbond:LEU:98    0
hbond:LEU:98    0
Name: 86, dtype: object

>  <hbond:MET:99>  (87) 
hbond:MET:99    0
hbond:MET:99    0
Name: 86, dtype: object

>  <hydroph_interaction:MET:99>  (87) 
hydroph_interaction:MET:99    0
hydroph_interaction:MET:99    0
Name: 86, dtype: object

>  <halogenbond:MET:99>  (87) 
halogenbond:MET:99    0
halogenbond:MET:99    0
Name: 86, dtype: object

>  <hydroph_interaction:LEU:100>  (87) 
hydroph_interaction:LEU:100    0
hydroph_interaction:LEU:100    0
Name: 86, dtype: object

>  <hbond:LEU:100>  (87) 
hbond:LEU:100    0
hbond:LEU:100    0
Name: 86, dtype: object

>  <hbond:ALA:101>  (87) 
hbond:ALA:101    0
hbond:ALA:101    0
Name: 86, dtype: object

>  <hydroph_interaction:ALA:101>  (87) 
hydroph_interaction:ALA:101    0
hydroph_interaction:ALA:101    0
Name: 86, dtype: object

>  <hydroph_interaction:VAL:102>  (87) 
hydroph_interaction:VAL:102    0
hydroph_interaction:VAL:102    0
Name: 86, dtype: object

>  <hbond:VAL:102>  (87) 
hbond:VAL:102    0
hbond:VAL:102    0
Name: 86, dtype: object

>  <hbond:GLY:103>  (87) 
hbond:GLY:103    0
hbond:GLY:103    0
Name: 86, dtype: object

>  <halogenbond:GLY:103>  (87) 
halogenbond:GLY:103    0
halogenbond:GLY:103    0
Name: 86, dtype: object

>  <hydroph_interaction:HIS:104>  (87) 
hydroph_interaction:HIS:104    0
hydroph_interaction:HIS:104    0
Name: 86, dtype: object

>  <hbond:HIS:104>  (87) 
hbond:HIS:104    0
hbond:HIS:104    0
Name: 86, dtype: object

>  <saltbridge:HIS:104>  (87) 
saltbridge:HIS:104    0
saltbridge:HIS:104    0
Name: 86, dtype: object

>  <pication:HIS:104>  (87) 
pication:HIS:104    0
pication:HIS:104    0
Name: 86, dtype: object

>  <pistack:HIS:104>  (87) 
pistack:HIS:104    0
pistack:HIS:104    0
Name: 86, dtype: object

>  <halogenbond:HIS:104>  (87) 
halogenbond:HIS:104    0
halogenbond:HIS:104    0
Name: 86, dtype: object

>  <hbond:SER:105>  (87) 
hbond:SER:105    0
hbond:SER:105    0
Name: 86, dtype: object

>  <halogenbond:SER:105>  (87) 
halogenbond:SER:105    0
halogenbond:SER:105    0
Name: 86, dtype: object

>  <hbond:GLU:106>  (87) 
hbond:GLU:106    0
hbond:GLU:106    0
Name: 86, dtype: object

>  <hydroph_interaction:GLU:106>  (87) 
hydroph_interaction:GLU:106    0
hydroph_interaction:GLU:106    0
Name: 86, dtype: object

>  <saltbridge:GLU:106>  (87) 
saltbridge:GLU:106    0
saltbridge:GLU:106    0
Name: 86, dtype: object

>  <halogenbond:GLU:106>  (87) 
halogenbond:GLU:106    0
halogenbond:GLU:106    0
Name: 86, dtype: object

>  <hydroph_interaction:PRO:107>  (87) 
hydroph_interaction:PRO:107    1
hydroph_interaction:PRO:107    1
Name: 86, dtype: object

>  <hbond:PRO:107>  (87) 
hbond:PRO:107    0
hbond:PRO:107    0
Name: 86, dtype: object

>  <halogenbond:PRO:107>  (87) 
halogenbond:PRO:107    0
halogenbond:PRO:107    0
Name: 86, dtype: object

>  <hbond:GLY:108>  (87) 
hbond:GLY:108    0
hbond:GLY:108    0
Name: 86, dtype: object

>  <halogenbond:GLY:108>  (87) 
halogenbond:GLY:108    0
halogenbond:GLY:108    0
Name: 86, dtype: object

>  <hbond:ASP:109>  (87) 
hbond:ASP:109    0
hbond:ASP:109    0
Name: 86, dtype: object

>  <hydroph_interaction:ASP:109>  (87) 
hydroph_interaction:ASP:109    0
hydroph_interaction:ASP:109    0
Name: 86, dtype: object

>  <saltbridge:ASP:109>  (87) 
saltbridge:ASP:109    0
saltbridge:ASP:109    0
Name: 86, dtype: object

>  <hbond:CYS:110>  (87) 
hbond:CYS:110    0
hbond:CYS:110    0
Name: 86, dtype: object

>  <halogenbond:CYS:110>  (87) 
halogenbond:CYS:110    0
halogenbond:CYS:110    0
Name: 86, dtype: object

>  <hbond:GLY:111>  (87) 
hbond:GLY:111    0
hbond:GLY:111    0
Name: 86, dtype: object

>  <hbond:GLY:112>  (87) 
hbond:GLY:112    0
hbond:GLY:112    0
Name: 86, dtype: object

>  <hbond:ILE:113>  (87) 
hbond:ILE:113    0
hbond:ILE:113    0
Name: 86, dtype: object

>  <hydroph_interaction:LEU:114>  (87) 
hydroph_interaction:LEU:114    0
hydroph_interaction:LEU:114    0
Name: 86, dtype: object

>  <hbond:LEU:114>  (87) 
hbond:LEU:114    0
hbond:LEU:114    0
Name: 86, dtype: object

>  <hydroph_interaction:ILE:123>  (87) 
hydroph_interaction:ILE:123    0
hydroph_interaction:ILE:123    0
Name: 86, dtype: object

>  <hbond:ILE:123>  (87) 
hbond:ILE:123    0
hbond:ILE:123    0
Name: 86, dtype: object

>  <hydroph_interaction:VAL:124>  (87) 
hydroph_interaction:VAL:124    0
hydroph_interaction:VAL:124    0
Name: 86, dtype: object

>  <hbond:VAL:124>  (87) 
hbond:VAL:124    0
hbond:VAL:124    0
Name: 86, dtype: object

>  <halogenbond:VAL:124>  (87) 
halogenbond:VAL:124    0
halogenbond:VAL:124    0
Name: 86, dtype: object

>  <hbond:SER:125>  (87) 
hbond:SER:125    0
hbond:SER:125    0
Name: 86, dtype: object

>  <halogenbond:SER:125>  (87) 
halogenbond:SER:125    0
halogenbond:SER:125    0
Name: 86, dtype: object

>  <hydroph_interaction:THR:126>  (87) 
hydroph_interaction:THR:126    0
hydroph_interaction:THR:126    0
Name: 86, dtype: object

>  <hbond:THR:126>  (87) 
hbond:THR:126    0
hbond:THR:126    0
Name: 86, dtype: object

>  <halogenbond:THR:126>  (87) 
halogenbond:THR:126    0
halogenbond:THR:126    0
Name: 86, dtype: object

>  <hbond:GLY:127>  (87) 
hbond:GLY:127    0
hbond:GLY:127    0
Name: 86, dtype: object

>  <halogenbond:GLY:127>  (87) 
halogenbond:GLY:127    0
halogenbond:GLY:127    0
Name: 86, dtype: object

>  <hydroph_interaction:GLY:127>  (87) 
hydroph_interaction:GLY:127    0
hydroph_interaction:GLY:127    0
Name: 86, dtype: object

>  <hbond:GLY:128>  (87) 
hbond:GLY:128    0
hbond:GLY:128    0
Name: 86, dtype: object

>  <halogenbond:GLY:128>  (87) 
halogenbond:GLY:128    0
halogenbond:GLY:128    0
Name: 86, dtype: object

>  <hydroph_interaction:GLY:128>  (87) 
hydroph_interaction:GLY:128    0
hydroph_interaction:GLY:128    0
Name: 86, dtype: object

>  <hbond:ASN:129>  (87) 
hbond:ASN:129    0
hbond:ASN:129    0
Name: 86, dtype: object

>  <hydroph_interaction:ASN:129>  (87) 
hydroph_interaction:ASN:129    0
hydroph_interaction:ASN:129    0
Name: 86, dtype: object

>  <halogenbond:ASN:129>  (87) 
halogenbond:ASN:129    0
halogenbond:ASN:129    0
Name: 86, dtype: object

>  <hbond:GLY:130>  (87) 
hbond:GLY:130    0
hbond:GLY:130    0
Name: 86, dtype: object

>  <hydroph_interaction:LEU:131>  (87) 
hydroph_interaction:LEU:131    0
hydroph_interaction:LEU:131    0
Name: 86, dtype: object

>  <hbond:LEU:131>  (87) 
hbond:LEU:131    0
hbond:LEU:131    0
Name: 86, dtype: object

>  <halogenbond:LEU:131>  (87) 
halogenbond:LEU:131    0
halogenbond:LEU:131    0
Name: 86, dtype: object

>  <hydroph_interaction:VAL:132>  (87) 
hydroph_interaction:VAL:132    0
hydroph_interaction:VAL:132    0
Name: 86, dtype: object

>  <hbond:VAL:132>  (87) 
hbond:VAL:132    0
hbond:VAL:132    0
Name: 86, dtype: object

>  <hbond:GLY:133>  (87) 
hbond:GLY:133    0
hbond:GLY:133    0
Name: 86, dtype: object

>  <halogenbond:GLY:133>  (87) 
halogenbond:GLY:133    0
halogenbond:GLY:133    0
Name: 86, dtype: object

>  <hydroph_interaction:PHE:134>  (87) 
hydroph_interaction:PHE:134    0
hydroph_interaction:PHE:134    0
Name: 86, dtype: object

>  <hbond:PHE:134>  (87) 
hbond:PHE:134    0
hbond:PHE:134    0
Name: 86, dtype: object

>  <pistack:PHE:134>  (87) 
pistack:PHE:134    0
pistack:PHE:134    0
Name: 86, dtype: object

>  <pication:PHE:134>  (87) 
pication:PHE:134    0
pication:PHE:134    0
Name: 86, dtype: object

>  <hydroph_interaction:ALA:135>  (87) 
hydroph_interaction:ALA:135    0
hydroph_interaction:ALA:135    0
Name: 86, dtype: object

>  <hbond:ALA:135>  (87) 
hbond:ALA:135    0
hbond:ALA:135    0
Name: 86, dtype: object

$$$$
PV_003611696359
     RDKit          3D

 27 27  0  0  0  0  0  0  0  0999 V2000
   10.3110    9.3120   22.5330 C   0  0  0  0  0  0  0  0  0  0  0  0
    9.5910   10.3580   23.3190 C   0  0  0  0  0  0  0  0  0  0  0  0
    9.8700   11.7100   23.1330 C   0  0  0  0  0  0  0  0  0  0  0  0
    9.1850   12.6810   23.8730 C   0  0  0  0  0  0  0  0  0  0  0  0
    8.2180   12.3050   24.8040 C   0  0  0  0  0  0  0  0  0  0  0  0
    7.4730   13.1910   25.5960 N   0  0  0  0  0  0  0  0  0  0  0  0
    6.4780   12.7670   26.4520 C   0  0  0  0  0  0  0  0  0  0  0  0
    7.5000   14.5560   25.2500 C   0  0  0  0  0  0  0  0  0  0  0  0
    7.6050   14.9730   24.0990 O   0  0  0  0  0  0  0  0  0  0  0  0
    7.3860   15.5740   26.3870 C   0  0  0  0  0  0  0  0  0  0  0  0
    8.7090   15.9900   26.8860 N   0  0  0  0  0  0  0  0  0  0  0  0
    7.9510   10.9520   24.9810 C   0  0  0  0  0  0  0  0  0  0  0  0
    8.6340    9.9980   24.2430 C   0  0  0  0  0  0  0  0  0  0  0  0
   10.9920    8.7430   23.1740 H   0  0  0  0  0  0  0  0  0  0  0  0
   10.8940    9.7560   21.7290 H   0  0  0  0  0  0  0  0  0  0  0  0
    9.5930    8.6360   22.0680 H   0  0  0  0  0  0  0  0  0  0  0  0
   10.6200   12.0250   22.4130 H   0  0  0  0  0  0  0  0  0  0  0  0
    9.4340   13.7220   23.6960 H   0  0  0  0  0  0  0  0  0  0  0  0
    6.9030   12.3720   27.3790 H   0  0  0  0  0  0  0  0  0  0  0  0
    5.8060   13.6060   26.6610 H   0  0  0  0  0  0  0  0  0  0  0  0
    5.8890   11.9560   26.0200 H   0  0  0  0  0  0  0  0  0  0  0  0
    6.8250   15.1380   27.2220 H   0  0  0  0  0  0  0  0  0  0  0  0
    6.8390   16.4590   26.0470 H   0  0  0  0  0  0  0  0  0  0  0  0
    8.5830   16.4040   27.8140 H   0  0  0  0  0  0  0  0  0  0  0  0
    9.2740   15.1520   27.0530 H   0  0  0  0  0  0  0  0  0  0  0  0
    7.2050   10.6160   25.6980 H   0  0  0  0  0  0  0  0  0  0  0  0
    8.4060    8.9550   24.3980 H   0  0  0  0  0  0  0  0  0  0  0  0
  1  2  1  0
  2  3  2  0
  3  4  1  0
  4  5  2  0
  5  6  1  0
  6  7  1  0
  6  8  1  0
  8  9  2  0
  8 10  1  0
 10 11  1  0
  5 12  1  0
 12 13  2  0
 13  2  1  0
  1 14  1  0
  1 15  1  0
  1 16  1  0
  3 17  1  0
  4 18  1  0
  7 19  1  0
  7 20  1  0
  7 21  1  0
 10 22  1  0
 10 23  1  0
 11 24  1  0
 11 25  1  0
 12 26  1  0
 13 27  1  0
A    1
 C1 
A    2
 C2 
A    3
 C3 
A    4
 C4 
A    5
 C5 
A    6
 N1 
A    7
 C6 
A    8
 C7 
A    9
 O1 
A   10
 C8 
A   11
 N2 
A   12
 C9 
A   13
 C10
A   14
 H1 
A   15
 H2 
A   16
 H3 
A   17
 H4 
A   18
 H5 
A   19
 H6 
A   20
 H7 
A   21
 H8 
A   22
 H9 
A   23
 H10
A   24
 H11
A   25
 H12
A   26
 H13
A   27
 H14
M  END
>  <ref_pdb>  (88) 
x0310_0A

>  <ref_mols>  (88) 
x0416_0A,x0451_0A,x1097_0A

>  <original SMILES>  (88) 
Cc1ccc(N(C)C(=O)CN)cc1

>  <rationale>  (88) 
info hbond:E88; hydroph_interaction:V124; 

>  <intxn_cluster>  (88) 
103

>  <intxn_cluster_rank>  (88) 
660

>  <N_interactions>  (88) 
2

>  <∆∆G>  (88) 
-9.195538

>  <$/mg>  (88) 
nan

>  <comRMSD>  (88) 
0.664605

>  <N_rotatable_bonds>  (88) 
5

>  <hbond:SER:7>  (88) 
hbond:SER:7    0
hbond:SER:7    0
Name: 87, dtype: object

>  <halogenbond:SER:7>  (88) 
halogenbond:SER:7    0
halogenbond:SER:7    0
Name: 87, dtype: object

>  <hbond:GLY:8>  (88) 
hbond:GLY:8    0
hbond:GLY:8    0
Name: 87, dtype: object

>  <hydroph_interaction:ASN:19>  (88) 
hydroph_interaction:ASN:19    0
hydroph_interaction:ASN:19    0
Name: 87, dtype: object

>  <hbond:ASN:19>  (88) 
hbond:ASN:19    0
hbond:ASN:19    0
Name: 87, dtype: object

>  <halogenbond:ASN:19>  (88) 
halogenbond:ASN:19    0
halogenbond:ASN:19    0
Name: 87, dtype: object

>  <hbond:ARG:20>  (88) 
hbond:ARG:20    0
hbond:ARG:20    0
Name: 87, dtype: object

>  <hydroph_interaction:ARG:20>  (88) 
hydroph_interaction:ARG:20    0
hydroph_interaction:ARG:20    0
Name: 87, dtype: object

>  <saltbridge:ARG:20>  (88) 
saltbridge:ARG:20    0
saltbridge:ARG:20    0
Name: 87, dtype: object

>  <halogenbond:ARG:20>  (88) 
halogenbond:ARG:20    0
halogenbond:ARG:20    0
Name: 87, dtype: object

>  <pication:ARG:20>  (88) 
pication:ARG:20    0
pication:ARG:20    0
Name: 87, dtype: object

>  <hbond:HIS:21>  (88) 
hbond:HIS:21    0
hbond:HIS:21    0
Name: 87, dtype: object

>  <hydroph_interaction:HIS:21>  (88) 
hydroph_interaction:HIS:21    0
hydroph_interaction:HIS:21    0
Name: 87, dtype: object

>  <saltbridge:HIS:21>  (88) 
saltbridge:HIS:21    0
saltbridge:HIS:21    0
Name: 87, dtype: object

>  <pistack:HIS:21>  (88) 
pistack:HIS:21    0
pistack:HIS:21    0
Name: 87, dtype: object

>  <pication:HIS:21>  (88) 
pication:HIS:21    0
pication:HIS:21    0
Name: 87, dtype: object

>  <halogenbond:HIS:21>  (88) 
halogenbond:HIS:21    0
halogenbond:HIS:21    0
Name: 87, dtype: object

>  <hydroph_interaction:LEU:22>  (88) 
hydroph_interaction:LEU:22    0
hydroph_interaction:LEU:22    0
Name: 87, dtype: object

>  <hbond:LEU:22>  (88) 
hbond:LEU:22    0
hbond:LEU:22    0
Name: 87, dtype: object

>  <hydroph_interaction:TRP:28>  (88) 
hydroph_interaction:TRP:28    0
hydroph_interaction:TRP:28    0
Name: 87, dtype: object

>  <hbond:SER:36>  (88) 
hbond:SER:36    0
hbond:SER:36    0
Name: 87, dtype: object

>  <halogenbond:SER:36>  (88) 
halogenbond:SER:36    0
halogenbond:SER:36    0
Name: 87, dtype: object

>  <hbond:ARG:38>  (88) 
hbond:ARG:38    0
hbond:ARG:38    0
Name: 87, dtype: object

>  <halogenbond:ARG:38>  (88) 
halogenbond:ARG:38    0
halogenbond:ARG:38    0
Name: 87, dtype: object

>  <hbond:ASP:39>  (88) 
hbond:ASP:39    0
hbond:ASP:39    0
Name: 87, dtype: object

>  <saltbridge:ASP:39>  (88) 
saltbridge:ASP:39    0
saltbridge:ASP:39    0
Name: 87, dtype: object

>  <hydroph_interaction:ASP:39>  (88) 
hydroph_interaction:ASP:39    0
hydroph_interaction:ASP:39    0
Name: 87, dtype: object

>  <halogenbond:ASP:39>  (88) 
halogenbond:ASP:39    0
halogenbond:ASP:39    0
Name: 87, dtype: object

>  <hydroph_interaction:LEU:40>  (88) 
hydroph_interaction:LEU:40    0
hydroph_interaction:LEU:40    0
Name: 87, dtype: object

>  <hydroph_interaction:TYR:63>  (88) 
hydroph_interaction:TYR:63    0
hydroph_interaction:TYR:63    0
Name: 87, dtype: object

>  <pistack:TYR:63>  (88) 
pistack:TYR:63    0
pistack:TYR:63    0
Name: 87, dtype: object

>  <hbond:TYR:63>  (88) 
hbond:TYR:63    0
hbond:TYR:63    0
Name: 87, dtype: object

>  <hbond:TYR:64>  (88) 
hbond:TYR:64    0
hbond:TYR:64    0
Name: 87, dtype: object

>  <halogenbond:TYR:64>  (88) 
halogenbond:TYR:64    0
halogenbond:TYR:64    0
Name: 87, dtype: object

>  <hydroph_interaction:TYR:64>  (88) 
hydroph_interaction:TYR:64    0
hydroph_interaction:TYR:64    0
Name: 87, dtype: object

>  <hbond:CYS:65>  (88) 
hbond:CYS:65    0
hbond:CYS:65    0
Name: 87, dtype: object

>  <halogenbond:CYS:65>  (88) 
halogenbond:CYS:65    0
halogenbond:CYS:65    0
Name: 87, dtype: object

>  <hbond:SER:66>  (88) 
hbond:SER:66    0
hbond:SER:66    0
Name: 87, dtype: object

>  <hbond:SER:67>  (88) 
hbond:SER:67    0
hbond:SER:67    0
Name: 87, dtype: object

>  <halogenbond:SER:67>  (88) 
halogenbond:SER:67    0
halogenbond:SER:67    0
Name: 87, dtype: object

>  <hydroph_interaction:ARG:68>  (88) 
hydroph_interaction:ARG:68    0
hydroph_interaction:ARG:68    0
Name: 87, dtype: object

>  <hbond:ARG:68>  (88) 
hbond:ARG:68    0
hbond:ARG:68    0
Name: 87, dtype: object

>  <saltbridge:ARG:68>  (88) 
saltbridge:ARG:68    0
saltbridge:ARG:68    0
Name: 87, dtype: object

>  <pication:ARG:68>  (88) 
pication:ARG:68    0
pication:ARG:68    0
Name: 87, dtype: object

>  <hydroph_interaction:TYR:72>  (88) 
hydroph_interaction:TYR:72    0
hydroph_interaction:TYR:72    0
Name: 87, dtype: object

>  <hydroph_interaction:VAL:74>  (88) 
hydroph_interaction:VAL:74    0
hydroph_interaction:VAL:74    0
Name: 87, dtype: object

>  <hydroph_interaction:PHE:76>  (88) 
hydroph_interaction:PHE:76    0
hydroph_interaction:PHE:76    0
Name: 87, dtype: object

>  <hbond:SER:77>  (88) 
hbond:SER:77    0
hbond:SER:77    0
Name: 87, dtype: object

>  <hbond:SER:80>  (88) 
hbond:SER:80    0
hbond:SER:80    0
Name: 87, dtype: object

>  <hbond:LEU:81>  (88) 
hbond:LEU:81    0
hbond:LEU:81    0
Name: 87, dtype: object

>  <halogenbond:LEU:81>  (88) 
halogenbond:LEU:81    0
halogenbond:LEU:81    0
Name: 87, dtype: object

>  <hydroph_interaction:LEU:81>  (88) 
hydroph_interaction:LEU:81    0
hydroph_interaction:LEU:81    0
Name: 87, dtype: object

>  <hydroph_interaction:ILE:82>  (88) 
hydroph_interaction:ILE:82    0
hydroph_interaction:ILE:82    0
Name: 87, dtype: object

>  <hbond:ILE:82>  (88) 
hbond:ILE:82    0
hbond:ILE:82    0
Name: 87, dtype: object

>  <hydroph_interaction:PHE:83>  (88) 
hydroph_interaction:PHE:83    0
hydroph_interaction:PHE:83    0
Name: 87, dtype: object

>  <hbond:PHE:83>  (88) 
hbond:PHE:83    0
hbond:PHE:83    0
Name: 87, dtype: object

>  <halogenbond:PHE:83>  (88) 
halogenbond:PHE:83    0
halogenbond:PHE:83    0
Name: 87, dtype: object

>  <pistack:PHE:83>  (88) 
pistack:PHE:83    0
pistack:PHE:83    0
Name: 87, dtype: object

>  <hydroph_interaction:VAL:84>  (88) 
hydroph_interaction:VAL:84    0
hydroph_interaction:VAL:84    0
Name: 87, dtype: object

>  <hbond:VAL:84>  (88) 
hbond:VAL:84    0
hbond:VAL:84    0
Name: 87, dtype: object

>  <halogenbond:VAL:84>  (88) 
halogenbond:VAL:84    0
halogenbond:VAL:84    0
Name: 87, dtype: object

>  <hydroph_interaction:GLU:85>  (88) 
hydroph_interaction:GLU:85    0
hydroph_interaction:GLU:85    0
Name: 87, dtype: object

>  <hbond:GLU:85>  (88) 
hbond:GLU:85    0
hbond:GLU:85    0
Name: 87, dtype: object

>  <saltbridge:GLU:85>  (88) 
saltbridge:GLU:85    0
saltbridge:GLU:85    0
Name: 87, dtype: object

>  <halogenbond:GLU:85>  (88) 
halogenbond:GLU:85    0
halogenbond:GLU:85    0
Name: 87, dtype: object

>  <hbond:ALA:86>  (88) 
hbond:ALA:86    0
hbond:ALA:86    0
Name: 87, dtype: object

>  <halogenbond:ALA:86>  (88) 
halogenbond:ALA:86    0
halogenbond:ALA:86    0
Name: 87, dtype: object

>  <hydroph_interaction:ALA:86>  (88) 
hydroph_interaction:ALA:86    0
hydroph_interaction:ALA:86    0
Name: 87, dtype: object

>  <hbond:SER:87>  (88) 
hbond:SER:87    0
hbond:SER:87    0
Name: 87, dtype: object

>  <halogenbond:SER:87>  (88) 
halogenbond:SER:87    0
halogenbond:SER:87    0
Name: 87, dtype: object

>  <hbond:GLU:88>  (88) 
hbond:GLU:88    1
hbond:GLU:88    1
Name: 87, dtype: object

>  <hydroph_interaction:GLU:88>  (88) 
hydroph_interaction:GLU:88    0
hydroph_interaction:GLU:88    0
Name: 87, dtype: object

>  <halogenbond:GLU:88>  (88) 
halogenbond:GLU:88    0
halogenbond:GLU:88    0
Name: 87, dtype: object

>  <saltbridge:GLU:88>  (88) 
saltbridge:GLU:88    0
saltbridge:GLU:88    0
Name: 87, dtype: object

>  <hydroph_interaction:TYR:89>  (88) 
hydroph_interaction:TYR:89    0
hydroph_interaction:TYR:89    0
Name: 87, dtype: object

>  <pistack:TYR:89>  (88) 
pistack:TYR:89    0
pistack:TYR:89    0
Name: 87, dtype: object

>  <hbond:TYR:89>  (88) 
hbond:TYR:89    0
hbond:TYR:89    0
Name: 87, dtype: object

>  <halogenbond:TYR:89>  (88) 
halogenbond:TYR:89    0
halogenbond:TYR:89    0
Name: 87, dtype: object

>  <hbond:TYR:90>  (88) 
hbond:TYR:90    0
hbond:TYR:90    0
Name: 87, dtype: object

>  <hydroph_interaction:TYR:90>  (88) 
hydroph_interaction:TYR:90    0
hydroph_interaction:TYR:90    0
Name: 87, dtype: object

>  <pistack:TYR:90>  (88) 
pistack:TYR:90    0
pistack:TYR:90    0
Name: 87, dtype: object

>  <halogenbond:TYR:90>  (88) 
halogenbond:TYR:90    0
halogenbond:TYR:90    0
Name: 87, dtype: object

>  <pication:TYR:90>  (88) 
pication:TYR:90    0
pication:TYR:90    0
Name: 87, dtype: object

>  <hydroph_interaction:PRO:91>  (88) 
hydroph_interaction:PRO:91    0
hydroph_interaction:PRO:91    0
Name: 87, dtype: object

>  <halogenbond:PRO:91>  (88) 
halogenbond:PRO:91    0
halogenbond:PRO:91    0
Name: 87, dtype: object

>  <hbond:PRO:91>  (88) 
hbond:PRO:91    0
hbond:PRO:91    0
Name: 87, dtype: object

>  <hydroph_interaction:ALA:92>  (88) 
hydroph_interaction:ALA:92    0
hydroph_interaction:ALA:92    0
Name: 87, dtype: object

>  <hbond:ARG:93>  (88) 
hbond:ARG:93    0
hbond:ARG:93    0
Name: 87, dtype: object

>  <pication:ARG:93>  (88) 
pication:ARG:93    0
pication:ARG:93    0
Name: 87, dtype: object

>  <saltbridge:ARG:93>  (88) 
saltbridge:ARG:93    0
saltbridge:ARG:93    0
Name: 87, dtype: object

>  <hydroph_interaction:ARG:93>  (88) 
hydroph_interaction:ARG:93    0
hydroph_interaction:ARG:93    0
Name: 87, dtype: object

>  <halogenbond:ARG:93>  (88) 
halogenbond:ARG:93    0
halogenbond:ARG:93    0
Name: 87, dtype: object

>  <hydroph_interaction:TYR:94>  (88) 
hydroph_interaction:TYR:94    0
hydroph_interaction:TYR:94    0
Name: 87, dtype: object

>  <hbond:TYR:94>  (88) 
hbond:TYR:94    0
hbond:TYR:94    0
Name: 87, dtype: object

>  <halogenbond:GLN:95>  (88) 
halogenbond:GLN:95    0
halogenbond:GLN:95    0
Name: 87, dtype: object

>  <hbond:GLN:95>  (88) 
hbond:GLN:95    0
hbond:GLN:95    0
Name: 87, dtype: object

>  <hydroph_interaction:GLN:95>  (88) 
hydroph_interaction:GLN:95    0
hydroph_interaction:GLN:95    0
Name: 87, dtype: object

>  <hbond:SER:96>  (88) 
hbond:SER:96    0
hbond:SER:96    0
Name: 87, dtype: object

>  <hydroph_interaction:LEU:98>  (88) 
hydroph_interaction:LEU:98    0
hydroph_interaction:LEU:98    0
Name: 87, dtype: object

>  <hbond:LEU:98>  (88) 
hbond:LEU:98    0
hbond:LEU:98    0
Name: 87, dtype: object

>  <hbond:MET:99>  (88) 
hbond:MET:99    0
hbond:MET:99    0
Name: 87, dtype: object

>  <hydroph_interaction:MET:99>  (88) 
hydroph_interaction:MET:99    0
hydroph_interaction:MET:99    0
Name: 87, dtype: object

>  <halogenbond:MET:99>  (88) 
halogenbond:MET:99    0
halogenbond:MET:99    0
Name: 87, dtype: object

>  <hydroph_interaction:LEU:100>  (88) 
hydroph_interaction:LEU:100    0
hydroph_interaction:LEU:100    0
Name: 87, dtype: object

>  <hbond:LEU:100>  (88) 
hbond:LEU:100    0
hbond:LEU:100    0
Name: 87, dtype: object

>  <hbond:ALA:101>  (88) 
hbond:ALA:101    0
hbond:ALA:101    0
Name: 87, dtype: object

>  <hydroph_interaction:ALA:101>  (88) 
hydroph_interaction:ALA:101    0
hydroph_interaction:ALA:101    0
Name: 87, dtype: object

>  <hydroph_interaction:VAL:102>  (88) 
hydroph_interaction:VAL:102    0
hydroph_interaction:VAL:102    0
Name: 87, dtype: object

>  <hbond:VAL:102>  (88) 
hbond:VAL:102    0
hbond:VAL:102    0
Name: 87, dtype: object

>  <hbond:GLY:103>  (88) 
hbond:GLY:103    0
hbond:GLY:103    0
Name: 87, dtype: object

>  <halogenbond:GLY:103>  (88) 
halogenbond:GLY:103    0
halogenbond:GLY:103    0
Name: 87, dtype: object

>  <hydroph_interaction:HIS:104>  (88) 
hydroph_interaction:HIS:104    0
hydroph_interaction:HIS:104    0
Name: 87, dtype: object

>  <hbond:HIS:104>  (88) 
hbond:HIS:104    0
hbond:HIS:104    0
Name: 87, dtype: object

>  <saltbridge:HIS:104>  (88) 
saltbridge:HIS:104    0
saltbridge:HIS:104    0
Name: 87, dtype: object

>  <pication:HIS:104>  (88) 
pication:HIS:104    0
pication:HIS:104    0
Name: 87, dtype: object

>  <pistack:HIS:104>  (88) 
pistack:HIS:104    0
pistack:HIS:104    0
Name: 87, dtype: object

>  <halogenbond:HIS:104>  (88) 
halogenbond:HIS:104    0
halogenbond:HIS:104    0
Name: 87, dtype: object

>  <hbond:SER:105>  (88) 
hbond:SER:105    0
hbond:SER:105    0
Name: 87, dtype: object

>  <halogenbond:SER:105>  (88) 
halogenbond:SER:105    0
halogenbond:SER:105    0
Name: 87, dtype: object

>  <hbond:GLU:106>  (88) 
hbond:GLU:106    0
hbond:GLU:106    0
Name: 87, dtype: object

>  <hydroph_interaction:GLU:106>  (88) 
hydroph_interaction:GLU:106    0
hydroph_interaction:GLU:106    0
Name: 87, dtype: object

>  <saltbridge:GLU:106>  (88) 
saltbridge:GLU:106    0
saltbridge:GLU:106    0
Name: 87, dtype: object

>  <halogenbond:GLU:106>  (88) 
halogenbond:GLU:106    0
halogenbond:GLU:106    0
Name: 87, dtype: object

>  <hydroph_interaction:PRO:107>  (88) 
hydroph_interaction:PRO:107    0
hydroph_interaction:PRO:107    0
Name: 87, dtype: object

>  <hbond:PRO:107>  (88) 
hbond:PRO:107    0
hbond:PRO:107    0
Name: 87, dtype: object

>  <halogenbond:PRO:107>  (88) 
halogenbond:PRO:107    0
halogenbond:PRO:107    0
Name: 87, dtype: object

>  <hbond:GLY:108>  (88) 
hbond:GLY:108    0
hbond:GLY:108    0
Name: 87, dtype: object

>  <halogenbond:GLY:108>  (88) 
halogenbond:GLY:108    0
halogenbond:GLY:108    0
Name: 87, dtype: object

>  <hbond:ASP:109>  (88) 
hbond:ASP:109    0
hbond:ASP:109    0
Name: 87, dtype: object

>  <hydroph_interaction:ASP:109>  (88) 
hydroph_interaction:ASP:109    0
hydroph_interaction:ASP:109    0
Name: 87, dtype: object

>  <saltbridge:ASP:109>  (88) 
saltbridge:ASP:109    0
saltbridge:ASP:109    0
Name: 87, dtype: object

>  <hbond:CYS:110>  (88) 
hbond:CYS:110    0
hbond:CYS:110    0
Name: 87, dtype: object

>  <halogenbond:CYS:110>  (88) 
halogenbond:CYS:110    0
halogenbond:CYS:110    0
Name: 87, dtype: object

>  <hbond:GLY:111>  (88) 
hbond:GLY:111    0
hbond:GLY:111    0
Name: 87, dtype: object

>  <hbond:GLY:112>  (88) 
hbond:GLY:112    0
hbond:GLY:112    0
Name: 87, dtype: object

>  <hbond:ILE:113>  (88) 
hbond:ILE:113    0
hbond:ILE:113    0
Name: 87, dtype: object

>  <hydroph_interaction:LEU:114>  (88) 
hydroph_interaction:LEU:114    0
hydroph_interaction:LEU:114    0
Name: 87, dtype: object

>  <hbond:LEU:114>  (88) 
hbond:LEU:114    0
hbond:LEU:114    0
Name: 87, dtype: object

>  <hydroph_interaction:ILE:123>  (88) 
hydroph_interaction:ILE:123    0
hydroph_interaction:ILE:123    0
Name: 87, dtype: object

>  <hbond:ILE:123>  (88) 
hbond:ILE:123    0
hbond:ILE:123    0
Name: 87, dtype: object

>  <hydroph_interaction:VAL:124>  (88) 
hydroph_interaction:VAL:124    1
hydroph_interaction:VAL:124    1
Name: 87, dtype: object

>  <hbond:VAL:124>  (88) 
hbond:VAL:124    0
hbond:VAL:124    0
Name: 87, dtype: object

>  <halogenbond:VAL:124>  (88) 
halogenbond:VAL:124    0
halogenbond:VAL:124    0
Name: 87, dtype: object

>  <hbond:SER:125>  (88) 
hbond:SER:125    0
hbond:SER:125    0
Name: 87, dtype: object

>  <halogenbond:SER:125>  (88) 
halogenbond:SER:125    0
halogenbond:SER:125    0
Name: 87, dtype: object

>  <hydroph_interaction:THR:126>  (88) 
hydroph_interaction:THR:126    0
hydroph_interaction:THR:126    0
Name: 87, dtype: object

>  <hbond:THR:126>  (88) 
hbond:THR:126    0
hbond:THR:126    0
Name: 87, dtype: object

>  <halogenbond:THR:126>  (88) 
halogenbond:THR:126    0
halogenbond:THR:126    0
Name: 87, dtype: object

>  <hbond:GLY:127>  (88) 
hbond:GLY:127    0
hbond:GLY:127    0
Name: 87, dtype: object

>  <halogenbond:GLY:127>  (88) 
halogenbond:GLY:127    0
halogenbond:GLY:127    0
Name: 87, dtype: object

>  <hydroph_interaction:GLY:127>  (88) 
hydroph_interaction:GLY:127    0
hydroph_interaction:GLY:127    0
Name: 87, dtype: object

>  <hbond:GLY:128>  (88) 
hbond:GLY:128    0
hbond:GLY:128    0
Name: 87, dtype: object

>  <halogenbond:GLY:128>  (88) 
halogenbond:GLY:128    0
halogenbond:GLY:128    0
Name: 87, dtype: object

>  <hydroph_interaction:GLY:128>  (88) 
hydroph_interaction:GLY:128    0
hydroph_interaction:GLY:128    0
Name: 87, dtype: object

>  <hbond:ASN:129>  (88) 
hbond:ASN:129    0
hbond:ASN:129    0
Name: 87, dtype: object

>  <hydroph_interaction:ASN:129>  (88) 
hydroph_interaction:ASN:129    0
hydroph_interaction:ASN:129    0
Name: 87, dtype: object

>  <halogenbond:ASN:129>  (88) 
halogenbond:ASN:129    0
halogenbond:ASN:129    0
Name: 87, dtype: object

>  <hbond:GLY:130>  (88) 
hbond:GLY:130    0
hbond:GLY:130    0
Name: 87, dtype: object

>  <hydroph_interaction:LEU:131>  (88) 
hydroph_interaction:LEU:131    0
hydroph_interaction:LEU:131    0
Name: 87, dtype: object

>  <hbond:LEU:131>  (88) 
hbond:LEU:131    0
hbond:LEU:131    0
Name: 87, dtype: object

>  <halogenbond:LEU:131>  (88) 
halogenbond:LEU:131    0
halogenbond:LEU:131    0
Name: 87, dtype: object

>  <hydroph_interaction:VAL:132>  (88) 
hydroph_interaction:VAL:132    0
hydroph_interaction:VAL:132    0
Name: 87, dtype: object

>  <hbond:VAL:132>  (88) 
hbond:VAL:132    0
hbond:VAL:132    0
Name: 87, dtype: object

>  <hbond:GLY:133>  (88) 
hbond:GLY:133    0
hbond:GLY:133    0
Name: 87, dtype: object

>  <halogenbond:GLY:133>  (88) 
halogenbond:GLY:133    0
halogenbond:GLY:133    0
Name: 87, dtype: object

>  <hydroph_interaction:PHE:134>  (88) 
hydroph_interaction:PHE:134    0
hydroph_interaction:PHE:134    0
Name: 87, dtype: object

>  <hbond:PHE:134>  (88) 
hbond:PHE:134    0
hbond:PHE:134    0
Name: 87, dtype: object

>  <pistack:PHE:134>  (88) 
pistack:PHE:134    0
pistack:PHE:134    0
Name: 87, dtype: object

>  <pication:PHE:134>  (88) 
pication:PHE:134    0
pication:PHE:134    0
Name: 87, dtype: object

>  <hydroph_interaction:ALA:135>  (88) 
hydroph_interaction:ALA:135    0
hydroph_interaction:ALA:135    0
Name: 87, dtype: object

>  <hbond:ALA:135>  (88) 
hbond:ALA:135    0
hbond:ALA:135    0
Name: 87, dtype: object

$$$$
Z1090207966
     RDKit          3D

 19 19  0  0  0  0  0  0  0  0999 V2000
   12.5750   15.0420   22.2890 C   0  0  0  0  0  0  0  0  0  0  0  0
   11.7790   14.0680   23.1050 C   0  0  0  0  0  0  0  0  0  0  0  0
   10.2210   13.7500   22.2350 S   0  0  0  0  0  0  0  0  0  0  0  0
    9.5070   12.4250   23.1770 C   0  0  0  0  0  0  0  0  0  0  0  0
    9.8780   11.0890   22.9750 C   0  0  0  0  0  0  0  0  0  0  0  0
    9.2750   10.1020   23.7290 C   0  0  0  0  0  0  0  0  0  0  0  0
    8.3090   10.4000   24.6860 C   0  0  0  0  0  0  0  0  0  0  0  0
    7.9430   11.7210   24.8920 C   0  0  0  0  0  0  0  0  0  0  0  0
    6.6340   12.1480   26.1900 Br  0  0  0  0  0  0  0  0  0  0  0  0
    8.5380   12.7310   24.1420 C   0  0  0  0  0  0  0  0  0  0  0  0
   12.6020   14.7430   21.2350 H   0  0  0  0  0  0  0  0  0  0  0  0
   13.5960   15.1200   22.6640 H   0  0  0  0  0  0  0  0  0  0  0  0
   12.1290   16.0390   22.3450 H   0  0  0  0  0  0  0  0  0  0  0  0
   12.3550   13.1400   23.2060 H   0  0  0  0  0  0  0  0  0  0  0  0
   11.5850   14.4380   24.1210 H   0  0  0  0  0  0  0  0  0  0  0  0
   10.6270   10.8390   22.2310 H   0  0  0  0  0  0  0  0  0  0  0  0
    9.6240    9.0950   23.5030 H   0  0  0  0  0  0  0  0  0  0  0  0
    7.8450    9.6200   25.2640 H   0  0  0  0  0  0  0  0  0  0  0  0
    8.2350   13.7700   24.3150 H   0  0  0  0  0  0  0  0  0  0  0  0
  1  2  1  0
  2  3  1  0
  3  4  1  0
  4  5  2  0
  5  6  1  0
  6  7  2  0
  7  8  1  0
  8  9  1  0
  8 10  2  0
 10  4  1  0
  1 11  1  0
  1 12  1  0
  1 13  1  0
  2 14  1  0
  2 15  1  0
  5 16  1  0
  6 17  1  0
  7 18  1  0
 10 19  1  0
A    1
 C1 
A    2
 C2 
A    3
 S1 
A    4
 C3 
A    5
 C4 
A    6
 C5 
A    7
 C6 
A    8
 C7 
A    9
BR1 
A   10
 C8 
A   11
 H1 
A   12
 H2 
A   13
 H3 
A   14
 H4 
A   15
 H5 
A   16
 H6 
A   17
 H7 
A   18
 H8 
A   19
 H9 
M  END
>  <ref_pdb>  (89) 
x0310_0A

>  <ref_mols>  (89) 
x0451_0A,x0554_0A,x0446_0A

>  <original SMILES>  (89) 
CCSc1cccc(Br)c1

>  <rationale>  (89) 
info 

>  <intxn_cluster>  (89) 
208

>  <intxn_cluster_rank>  (89) 
680

>  <N_interactions>  (89) 
0

>  <∆∆G>  (89) 
-8.547223

>  <$/mg>  (89) 
nan

>  <comRMSD>  (89) 
0.952605

>  <N_rotatable_bonds>  (89) 
3

>  <hbond:SER:7>  (89) 
hbond:SER:7    0
hbond:SER:7    0
Name: 88, dtype: object

>  <halogenbond:SER:7>  (89) 
halogenbond:SER:7    0
halogenbond:SER:7    0
Name: 88, dtype: object

>  <hbond:GLY:8>  (89) 
hbond:GLY:8    0
hbond:GLY:8    0
Name: 88, dtype: object

>  <hydroph_interaction:ASN:19>  (89) 
hydroph_interaction:ASN:19    0
hydroph_interaction:ASN:19    0
Name: 88, dtype: object

>  <hbond:ASN:19>  (89) 
hbond:ASN:19    0
hbond:ASN:19    0
Name: 88, dtype: object

>  <halogenbond:ASN:19>  (89) 
halogenbond:ASN:19    0
halogenbond:ASN:19    0
Name: 88, dtype: object

>  <hbond:ARG:20>  (89) 
hbond:ARG:20    0
hbond:ARG:20    0
Name: 88, dtype: object

>  <hydroph_interaction:ARG:20>  (89) 
hydroph_interaction:ARG:20    0
hydroph_interaction:ARG:20    0
Name: 88, dtype: object

>  <saltbridge:ARG:20>  (89) 
saltbridge:ARG:20    0
saltbridge:ARG:20    0
Name: 88, dtype: object

>  <halogenbond:ARG:20>  (89) 
halogenbond:ARG:20    0
halogenbond:ARG:20    0
Name: 88, dtype: object

>  <pication:ARG:20>  (89) 
pication:ARG:20    0
pication:ARG:20    0
Name: 88, dtype: object

>  <hbond:HIS:21>  (89) 
hbond:HIS:21    0
hbond:HIS:21    0
Name: 88, dtype: object

>  <hydroph_interaction:HIS:21>  (89) 
hydroph_interaction:HIS:21    0
hydroph_interaction:HIS:21    0
Name: 88, dtype: object

>  <saltbridge:HIS:21>  (89) 
saltbridge:HIS:21    0
saltbridge:HIS:21    0
Name: 88, dtype: object

>  <pistack:HIS:21>  (89) 
pistack:HIS:21    0
pistack:HIS:21    0
Name: 88, dtype: object

>  <pication:HIS:21>  (89) 
pication:HIS:21    0
pication:HIS:21    0
Name: 88, dtype: object

>  <halogenbond:HIS:21>  (89) 
halogenbond:HIS:21    0
halogenbond:HIS:21    0
Name: 88, dtype: object

>  <hydroph_interaction:LEU:22>  (89) 
hydroph_interaction:LEU:22    0
hydroph_interaction:LEU:22    0
Name: 88, dtype: object

>  <hbond:LEU:22>  (89) 
hbond:LEU:22    0
hbond:LEU:22    0
Name: 88, dtype: object

>  <hydroph_interaction:TRP:28>  (89) 
hydroph_interaction:TRP:28    0
hydroph_interaction:TRP:28    0
Name: 88, dtype: object

>  <hbond:SER:36>  (89) 
hbond:SER:36    0
hbond:SER:36    0
Name: 88, dtype: object

>  <halogenbond:SER:36>  (89) 
halogenbond:SER:36    0
halogenbond:SER:36    0
Name: 88, dtype: object

>  <hbond:ARG:38>  (89) 
hbond:ARG:38    0
hbond:ARG:38    0
Name: 88, dtype: object

>  <halogenbond:ARG:38>  (89) 
halogenbond:ARG:38    0
halogenbond:ARG:38    0
Name: 88, dtype: object

>  <hbond:ASP:39>  (89) 
hbond:ASP:39    0
hbond:ASP:39    0
Name: 88, dtype: object

>  <saltbridge:ASP:39>  (89) 
saltbridge:ASP:39    0
saltbridge:ASP:39    0
Name: 88, dtype: object

>  <hydroph_interaction:ASP:39>  (89) 
hydroph_interaction:ASP:39    0
hydroph_interaction:ASP:39    0
Name: 88, dtype: object

>  <halogenbond:ASP:39>  (89) 
halogenbond:ASP:39    0
halogenbond:ASP:39    0
Name: 88, dtype: object

>  <hydroph_interaction:LEU:40>  (89) 
hydroph_interaction:LEU:40    0
hydroph_interaction:LEU:40    0
Name: 88, dtype: object

>  <hydroph_interaction:TYR:63>  (89) 
hydroph_interaction:TYR:63    0
hydroph_interaction:TYR:63    0
Name: 88, dtype: object

>  <pistack:TYR:63>  (89) 
pistack:TYR:63    0
pistack:TYR:63    0
Name: 88, dtype: object

>  <hbond:TYR:63>  (89) 
hbond:TYR:63    0
hbond:TYR:63    0
Name: 88, dtype: object

>  <hbond:TYR:64>  (89) 
hbond:TYR:64    0
hbond:TYR:64    0
Name: 88, dtype: object

>  <halogenbond:TYR:64>  (89) 
halogenbond:TYR:64    0
halogenbond:TYR:64    0
Name: 88, dtype: object

>  <hydroph_interaction:TYR:64>  (89) 
hydroph_interaction:TYR:64    0
hydroph_interaction:TYR:64    0
Name: 88, dtype: object

>  <hbond:CYS:65>  (89) 
hbond:CYS:65    0
hbond:CYS:65    0
Name: 88, dtype: object

>  <halogenbond:CYS:65>  (89) 
halogenbond:CYS:65    0
halogenbond:CYS:65    0
Name: 88, dtype: object

>  <hbond:SER:66>  (89) 
hbond:SER:66    0
hbond:SER:66    0
Name: 88, dtype: object

>  <hbond:SER:67>  (89) 
hbond:SER:67    0
hbond:SER:67    0
Name: 88, dtype: object

>  <halogenbond:SER:67>  (89) 
halogenbond:SER:67    0
halogenbond:SER:67    0
Name: 88, dtype: object

>  <hydroph_interaction:ARG:68>  (89) 
hydroph_interaction:ARG:68    0
hydroph_interaction:ARG:68    0
Name: 88, dtype: object

>  <hbond:ARG:68>  (89) 
hbond:ARG:68    0
hbond:ARG:68    0
Name: 88, dtype: object

>  <saltbridge:ARG:68>  (89) 
saltbridge:ARG:68    0
saltbridge:ARG:68    0
Name: 88, dtype: object

>  <pication:ARG:68>  (89) 
pication:ARG:68    0
pication:ARG:68    0
Name: 88, dtype: object

>  <hydroph_interaction:TYR:72>  (89) 
hydroph_interaction:TYR:72    0
hydroph_interaction:TYR:72    0
Name: 88, dtype: object

>  <hydroph_interaction:VAL:74>  (89) 
hydroph_interaction:VAL:74    0
hydroph_interaction:VAL:74    0
Name: 88, dtype: object

>  <hydroph_interaction:PHE:76>  (89) 
hydroph_interaction:PHE:76    0
hydroph_interaction:PHE:76    0
Name: 88, dtype: object

>  <hbond:SER:77>  (89) 
hbond:SER:77    0
hbond:SER:77    0
Name: 88, dtype: object

>  <hbond:SER:80>  (89) 
hbond:SER:80    0
hbond:SER:80    0
Name: 88, dtype: object

>  <hbond:LEU:81>  (89) 
hbond:LEU:81    0
hbond:LEU:81    0
Name: 88, dtype: object

>  <halogenbond:LEU:81>  (89) 
halogenbond:LEU:81    0
halogenbond:LEU:81    0
Name: 88, dtype: object

>  <hydroph_interaction:LEU:81>  (89) 
hydroph_interaction:LEU:81    0
hydroph_interaction:LEU:81    0
Name: 88, dtype: object

>  <hydroph_interaction:ILE:82>  (89) 
hydroph_interaction:ILE:82    0
hydroph_interaction:ILE:82    0
Name: 88, dtype: object

>  <hbond:ILE:82>  (89) 
hbond:ILE:82    0
hbond:ILE:82    0
Name: 88, dtype: object

>  <hydroph_interaction:PHE:83>  (89) 
hydroph_interaction:PHE:83    0
hydroph_interaction:PHE:83    0
Name: 88, dtype: object

>  <hbond:PHE:83>  (89) 
hbond:PHE:83    0
hbond:PHE:83    0
Name: 88, dtype: object

>  <halogenbond:PHE:83>  (89) 
halogenbond:PHE:83    0
halogenbond:PHE:83    0
Name: 88, dtype: object

>  <pistack:PHE:83>  (89) 
pistack:PHE:83    0
pistack:PHE:83    0
Name: 88, dtype: object

>  <hydroph_interaction:VAL:84>  (89) 
hydroph_interaction:VAL:84    0
hydroph_interaction:VAL:84    0
Name: 88, dtype: object

>  <hbond:VAL:84>  (89) 
hbond:VAL:84    0
hbond:VAL:84    0
Name: 88, dtype: object

>  <halogenbond:VAL:84>  (89) 
halogenbond:VAL:84    0
halogenbond:VAL:84    0
Name: 88, dtype: object

>  <hydroph_interaction:GLU:85>  (89) 
hydroph_interaction:GLU:85    0
hydroph_interaction:GLU:85    0
Name: 88, dtype: object

>  <hbond:GLU:85>  (89) 
hbond:GLU:85    0
hbond:GLU:85    0
Name: 88, dtype: object

>  <saltbridge:GLU:85>  (89) 
saltbridge:GLU:85    0
saltbridge:GLU:85    0
Name: 88, dtype: object

>  <halogenbond:GLU:85>  (89) 
halogenbond:GLU:85    0
halogenbond:GLU:85    0
Name: 88, dtype: object

>  <hbond:ALA:86>  (89) 
hbond:ALA:86    0
hbond:ALA:86    0
Name: 88, dtype: object

>  <halogenbond:ALA:86>  (89) 
halogenbond:ALA:86    0
halogenbond:ALA:86    0
Name: 88, dtype: object

>  <hydroph_interaction:ALA:86>  (89) 
hydroph_interaction:ALA:86    0
hydroph_interaction:ALA:86    0
Name: 88, dtype: object

>  <hbond:SER:87>  (89) 
hbond:SER:87    0
hbond:SER:87    0
Name: 88, dtype: object

>  <halogenbond:SER:87>  (89) 
halogenbond:SER:87    0
halogenbond:SER:87    0
Name: 88, dtype: object

>  <hbond:GLU:88>  (89) 
hbond:GLU:88    0
hbond:GLU:88    0
Name: 88, dtype: object

>  <hydroph_interaction:GLU:88>  (89) 
hydroph_interaction:GLU:88    0
hydroph_interaction:GLU:88    0
Name: 88, dtype: object

>  <halogenbond:GLU:88>  (89) 
halogenbond:GLU:88    0
halogenbond:GLU:88    0
Name: 88, dtype: object

>  <saltbridge:GLU:88>  (89) 
saltbridge:GLU:88    0
saltbridge:GLU:88    0
Name: 88, dtype: object

>  <hydroph_interaction:TYR:89>  (89) 
hydroph_interaction:TYR:89    0
hydroph_interaction:TYR:89    0
Name: 88, dtype: object

>  <pistack:TYR:89>  (89) 
pistack:TYR:89    0
pistack:TYR:89    0
Name: 88, dtype: object

>  <hbond:TYR:89>  (89) 
hbond:TYR:89    0
hbond:TYR:89    0
Name: 88, dtype: object

>  <halogenbond:TYR:89>  (89) 
halogenbond:TYR:89    0
halogenbond:TYR:89    0
Name: 88, dtype: object

>  <hbond:TYR:90>  (89) 
hbond:TYR:90    0
hbond:TYR:90    0
Name: 88, dtype: object

>  <hydroph_interaction:TYR:90>  (89) 
hydroph_interaction:TYR:90    0
hydroph_interaction:TYR:90    0
Name: 88, dtype: object

>  <pistack:TYR:90>  (89) 
pistack:TYR:90    0
pistack:TYR:90    0
Name: 88, dtype: object

>  <halogenbond:TYR:90>  (89) 
halogenbond:TYR:90    0
halogenbond:TYR:90    0
Name: 88, dtype: object

>  <pication:TYR:90>  (89) 
pication:TYR:90    0
pication:TYR:90    0
Name: 88, dtype: object

>  <hydroph_interaction:PRO:91>  (89) 
hydroph_interaction:PRO:91    0
hydroph_interaction:PRO:91    0
Name: 88, dtype: object

>  <halogenbond:PRO:91>  (89) 
halogenbond:PRO:91    0
halogenbond:PRO:91    0
Name: 88, dtype: object

>  <hbond:PRO:91>  (89) 
hbond:PRO:91    0
hbond:PRO:91    0
Name: 88, dtype: object

>  <hydroph_interaction:ALA:92>  (89) 
hydroph_interaction:ALA:92    0
hydroph_interaction:ALA:92    0
Name: 88, dtype: object

>  <hbond:ARG:93>  (89) 
hbond:ARG:93    0
hbond:ARG:93    0
Name: 88, dtype: object

>  <pication:ARG:93>  (89) 
pication:ARG:93    0
pication:ARG:93    0
Name: 88, dtype: object

>  <saltbridge:ARG:93>  (89) 
saltbridge:ARG:93    0
saltbridge:ARG:93    0
Name: 88, dtype: object

>  <hydroph_interaction:ARG:93>  (89) 
hydroph_interaction:ARG:93    0
hydroph_interaction:ARG:93    0
Name: 88, dtype: object

>  <halogenbond:ARG:93>  (89) 
halogenbond:ARG:93    0
halogenbond:ARG:93    0
Name: 88, dtype: object

>  <hydroph_interaction:TYR:94>  (89) 
hydroph_interaction:TYR:94    0
hydroph_interaction:TYR:94    0
Name: 88, dtype: object

>  <hbond:TYR:94>  (89) 
hbond:TYR:94    0
hbond:TYR:94    0
Name: 88, dtype: object

>  <halogenbond:GLN:95>  (89) 
halogenbond:GLN:95    0
halogenbond:GLN:95    0
Name: 88, dtype: object

>  <hbond:GLN:95>  (89) 
hbond:GLN:95    0
hbond:GLN:95    0
Name: 88, dtype: object

>  <hydroph_interaction:GLN:95>  (89) 
hydroph_interaction:GLN:95    0
hydroph_interaction:GLN:95    0
Name: 88, dtype: object

>  <hbond:SER:96>  (89) 
hbond:SER:96    0
hbond:SER:96    0
Name: 88, dtype: object

>  <hydroph_interaction:LEU:98>  (89) 
hydroph_interaction:LEU:98    0
hydroph_interaction:LEU:98    0
Name: 88, dtype: object

>  <hbond:LEU:98>  (89) 
hbond:LEU:98    0
hbond:LEU:98    0
Name: 88, dtype: object

>  <hbond:MET:99>  (89) 
hbond:MET:99    0
hbond:MET:99    0
Name: 88, dtype: object

>  <hydroph_interaction:MET:99>  (89) 
hydroph_interaction:MET:99    0
hydroph_interaction:MET:99    0
Name: 88, dtype: object

>  <halogenbond:MET:99>  (89) 
halogenbond:MET:99    0
halogenbond:MET:99    0
Name: 88, dtype: object

>  <hydroph_interaction:LEU:100>  (89) 
hydroph_interaction:LEU:100    0
hydroph_interaction:LEU:100    0
Name: 88, dtype: object

>  <hbond:LEU:100>  (89) 
hbond:LEU:100    0
hbond:LEU:100    0
Name: 88, dtype: object

>  <hbond:ALA:101>  (89) 
hbond:ALA:101    0
hbond:ALA:101    0
Name: 88, dtype: object

>  <hydroph_interaction:ALA:101>  (89) 
hydroph_interaction:ALA:101    0
hydroph_interaction:ALA:101    0
Name: 88, dtype: object

>  <hydroph_interaction:VAL:102>  (89) 
hydroph_interaction:VAL:102    0
hydroph_interaction:VAL:102    0
Name: 88, dtype: object

>  <hbond:VAL:102>  (89) 
hbond:VAL:102    0
hbond:VAL:102    0
Name: 88, dtype: object

>  <hbond:GLY:103>  (89) 
hbond:GLY:103    0
hbond:GLY:103    0
Name: 88, dtype: object

>  <halogenbond:GLY:103>  (89) 
halogenbond:GLY:103    0
halogenbond:GLY:103    0
Name: 88, dtype: object

>  <hydroph_interaction:HIS:104>  (89) 
hydroph_interaction:HIS:104    0
hydroph_interaction:HIS:104    0
Name: 88, dtype: object

>  <hbond:HIS:104>  (89) 
hbond:HIS:104    0
hbond:HIS:104    0
Name: 88, dtype: object

>  <saltbridge:HIS:104>  (89) 
saltbridge:HIS:104    0
saltbridge:HIS:104    0
Name: 88, dtype: object

>  <pication:HIS:104>  (89) 
pication:HIS:104    0
pication:HIS:104    0
Name: 88, dtype: object

>  <pistack:HIS:104>  (89) 
pistack:HIS:104    0
pistack:HIS:104    0
Name: 88, dtype: object

>  <halogenbond:HIS:104>  (89) 
halogenbond:HIS:104    0
halogenbond:HIS:104    0
Name: 88, dtype: object

>  <hbond:SER:105>  (89) 
hbond:SER:105    0
hbond:SER:105    0
Name: 88, dtype: object

>  <halogenbond:SER:105>  (89) 
halogenbond:SER:105    0
halogenbond:SER:105    0
Name: 88, dtype: object

>  <hbond:GLU:106>  (89) 
hbond:GLU:106    0
hbond:GLU:106    0
Name: 88, dtype: object

>  <hydroph_interaction:GLU:106>  (89) 
hydroph_interaction:GLU:106    0
hydroph_interaction:GLU:106    0
Name: 88, dtype: object

>  <saltbridge:GLU:106>  (89) 
saltbridge:GLU:106    0
saltbridge:GLU:106    0
Name: 88, dtype: object

>  <halogenbond:GLU:106>  (89) 
halogenbond:GLU:106    0
halogenbond:GLU:106    0
Name: 88, dtype: object

>  <hydroph_interaction:PRO:107>  (89) 
hydroph_interaction:PRO:107    0
hydroph_interaction:PRO:107    0
Name: 88, dtype: object

>  <hbond:PRO:107>  (89) 
hbond:PRO:107    0
hbond:PRO:107    0
Name: 88, dtype: object

>  <halogenbond:PRO:107>  (89) 
halogenbond:PRO:107    0
halogenbond:PRO:107    0
Name: 88, dtype: object

>  <hbond:GLY:108>  (89) 
hbond:GLY:108    0
hbond:GLY:108    0
Name: 88, dtype: object

>  <halogenbond:GLY:108>  (89) 
halogenbond:GLY:108    0
halogenbond:GLY:108    0
Name: 88, dtype: object

>  <hbond:ASP:109>  (89) 
hbond:ASP:109    0
hbond:ASP:109    0
Name: 88, dtype: object

>  <hydroph_interaction:ASP:109>  (89) 
hydroph_interaction:ASP:109    0
hydroph_interaction:ASP:109    0
Name: 88, dtype: object

>  <saltbridge:ASP:109>  (89) 
saltbridge:ASP:109    0
saltbridge:ASP:109    0
Name: 88, dtype: object

>  <hbond:CYS:110>  (89) 
hbond:CYS:110    0
hbond:CYS:110    0
Name: 88, dtype: object

>  <halogenbond:CYS:110>  (89) 
halogenbond:CYS:110    0
halogenbond:CYS:110    0
Name: 88, dtype: object

>  <hbond:GLY:111>  (89) 
hbond:GLY:111    0
hbond:GLY:111    0
Name: 88, dtype: object

>  <hbond:GLY:112>  (89) 
hbond:GLY:112    0
hbond:GLY:112    0
Name: 88, dtype: object

>  <hbond:ILE:113>  (89) 
hbond:ILE:113    0
hbond:ILE:113    0
Name: 88, dtype: object

>  <hydroph_interaction:LEU:114>  (89) 
hydroph_interaction:LEU:114    0
hydroph_interaction:LEU:114    0
Name: 88, dtype: object

>  <hbond:LEU:114>  (89) 
hbond:LEU:114    0
hbond:LEU:114    0
Name: 88, dtype: object

>  <hydroph_interaction:ILE:123>  (89) 
hydroph_interaction:ILE:123    0
hydroph_interaction:ILE:123    0
Name: 88, dtype: object

>  <hbond:ILE:123>  (89) 
hbond:ILE:123    0
hbond:ILE:123    0
Name: 88, dtype: object

>  <hydroph_interaction:VAL:124>  (89) 
hydroph_interaction:VAL:124    0
hydroph_interaction:VAL:124    0
Name: 88, dtype: object

>  <hbond:VAL:124>  (89) 
hbond:VAL:124    0
hbond:VAL:124    0
Name: 88, dtype: object

>  <halogenbond:VAL:124>  (89) 
halogenbond:VAL:124    0
halogenbond:VAL:124    0
Name: 88, dtype: object

>  <hbond:SER:125>  (89) 
hbond:SER:125    0
hbond:SER:125    0
Name: 88, dtype: object

>  <halogenbond:SER:125>  (89) 
halogenbond:SER:125    0
halogenbond:SER:125    0
Name: 88, dtype: object

>  <hydroph_interaction:THR:126>  (89) 
hydroph_interaction:THR:126    0
hydroph_interaction:THR:126    0
Name: 88, dtype: object

>  <hbond:THR:126>  (89) 
hbond:THR:126    0
hbond:THR:126    0
Name: 88, dtype: object

>  <halogenbond:THR:126>  (89) 
halogenbond:THR:126    0
halogenbond:THR:126    0
Name: 88, dtype: object

>  <hbond:GLY:127>  (89) 
hbond:GLY:127    0
hbond:GLY:127    0
Name: 88, dtype: object

>  <halogenbond:GLY:127>  (89) 
halogenbond:GLY:127    0
halogenbond:GLY:127    0
Name: 88, dtype: object

>  <hydroph_interaction:GLY:127>  (89) 
hydroph_interaction:GLY:127    0
hydroph_interaction:GLY:127    0
Name: 88, dtype: object

>  <hbond:GLY:128>  (89) 
hbond:GLY:128    0
hbond:GLY:128    0
Name: 88, dtype: object

>  <halogenbond:GLY:128>  (89) 
halogenbond:GLY:128    0
halogenbond:GLY:128    0
Name: 88, dtype: object

>  <hydroph_interaction:GLY:128>  (89) 
hydroph_interaction:GLY:128    0
hydroph_interaction:GLY:128    0
Name: 88, dtype: object

>  <hbond:ASN:129>  (89) 
hbond:ASN:129    0
hbond:ASN:129    0
Name: 88, dtype: object

>  <hydroph_interaction:ASN:129>  (89) 
hydroph_interaction:ASN:129    0
hydroph_interaction:ASN:129    0
Name: 88, dtype: object

>  <halogenbond:ASN:129>  (89) 
halogenbond:ASN:129    0
halogenbond:ASN:129    0
Name: 88, dtype: object

>  <hbond:GLY:130>  (89) 
hbond:GLY:130    0
hbond:GLY:130    0
Name: 88, dtype: object

>  <hydroph_interaction:LEU:131>  (89) 
hydroph_interaction:LEU:131    0
hydroph_interaction:LEU:131    0
Name: 88, dtype: object

>  <hbond:LEU:131>  (89) 
hbond:LEU:131    0
hbond:LEU:131    0
Name: 88, dtype: object

>  <halogenbond:LEU:131>  (89) 
halogenbond:LEU:131    0
halogenbond:LEU:131    0
Name: 88, dtype: object

>  <hydroph_interaction:VAL:132>  (89) 
hydroph_interaction:VAL:132    0
hydroph_interaction:VAL:132    0
Name: 88, dtype: object

>  <hbond:VAL:132>  (89) 
hbond:VAL:132    0
hbond:VAL:132    0
Name: 88, dtype: object

>  <hbond:GLY:133>  (89) 
hbond:GLY:133    0
hbond:GLY:133    0
Name: 88, dtype: object

>  <halogenbond:GLY:133>  (89) 
halogenbond:GLY:133    0
halogenbond:GLY:133    0
Name: 88, dtype: object

>  <hydroph_interaction:PHE:134>  (89) 
hydroph_interaction:PHE:134    0
hydroph_interaction:PHE:134    0
Name: 88, dtype: object

>  <hbond:PHE:134>  (89) 
hbond:PHE:134    0
hbond:PHE:134    0
Name: 88, dtype: object

>  <pistack:PHE:134>  (89) 
pistack:PHE:134    0
pistack:PHE:134    0
Name: 88, dtype: object

>  <pication:PHE:134>  (89) 
pication:PHE:134    0
pication:PHE:134    0
Name: 88, dtype: object

>  <hydroph_interaction:ALA:135>  (89) 
hydroph_interaction:ALA:135    0
hydroph_interaction:ALA:135    0
Name: 88, dtype: object

>  <hbond:ALA:135>  (89) 
hbond:ALA:135    0
hbond:ALA:135    0
Name: 88, dtype: object

$$$$
PV_006556612441
     RDKit          3D

 30 31  0  0  0  0  0  0  0  0999 V2000
   12.2670   15.0430   21.8740 C   0  0  0  0  0  0  0  0  0  0  0  0
   11.5550   14.0210   22.7270 C   0  0  0  0  0  0  0  0  0  0  0  0
   12.0480   13.9800   24.1460 C   0  0  0  0  0  0  0  0  0  0  0  0
   10.5780   13.2140   22.2990 C   0  0  0  0  0  0  0  0  0  0  0  0
    9.8840   12.2340   23.0250 C   0  0  0  0  0  0  0  0  0  0  0  0
    8.9570   12.6250   23.9440 C   0  0  0  0  0  0  0  0  0  0  0  0
    8.7650   13.9620   24.1050 C   0  0  0  0  0  0  0  0  0  0  0  0
    7.9070   14.5310   24.9500 N   0  0  0  0  0  0  0  0  0  0  0  0
    7.1730   13.6910   25.6940 C   0  0  0  0  0  0  0  0  0  0  0  0
    6.2200   14.3790   26.6240 C   0  0  0  0  0  0  0  0  0  0  0  0
    5.4770   13.7970   27.4110 O   0  0  0  0  0  0  0  0  0  0  0  0
    6.2740   15.6010   26.5040 O   0  0  0  0  0  0  0  0  0  0  0  0
    7.2890   12.3080   25.6090 C   0  0  0  0  0  0  0  0  0  0  0  0
    8.1930   11.7340   24.7240 C   0  0  0  0  0  0  0  0  0  0  0  0
    8.3750   10.4170   24.5730 C   0  0  0  0  0  0  0  0  0  0  0  0
    9.2950    9.9130   23.6650 C   0  0  0  0  0  0  0  0  0  0  0  0
   10.1050   10.8730   22.8310 C   0  0  0  0  0  0  0  0  0  0  0  0
   11.5740   15.8400   21.5970 H   0  0  0  0  0  0  0  0  0  0  0  0
   12.6420   14.5880   20.9510 H   0  0  0  0  0  0  0  0  0  0  0  0
   13.1010   15.4710   22.4420 H   0  0  0  0  0  0  0  0  0  0  0  0
   11.2360   13.7760   24.8470 H   0  0  0  0  0  0  0  0  0  0  0  0
   12.8180   13.2180   24.2900 H   0  0  0  0  0  0  0  0  0  0  0  0
   12.4910   14.9430   24.4290 H   0  0  0  0  0  0  0  0  0  0  0  0
   10.2600   13.3140   21.2780 H   0  0  0  0  0  0  0  0  0  0  0  0
    9.3600   14.6420   23.4970 H   0  0  0  0  0  0  0  0  0  0  0  0
    5.7650   15.8000   25.6870 H   0  0  0  0  0  0  0  0  0  0  0  0
    6.7160   11.5750   26.1940 H   0  0  0  0  0  0  0  0  0  0  0  0
    7.8000    9.7170   25.1610 H   0  0  0  0  0  0  0  0  0  0  0  0
    9.4340    8.8630   23.5500 H   0  0  0  0  0  0  0  0  0  0  0  0
   10.8250   10.5040   22.1090 H   0  0  0  0  0  0  0  0  0  0  0  0
  1  2  1  0
  2  3  1  0
  2  4  2  3
  4  5  1  0
  5  6  2  0
  6  7  1  0
  7  8  2  0
  8  9  1  0
  9 10  1  0
 10 11  2  0
 10 12  1  0
  9 13  2  0
 13 14  1  0
 14 15  2  0
 15 16  1  0
 16 17  2  0
 17  5  1  0
 14  6  1  0
  1 18  1  0
  1 19  1  0
  1 20  1  0
  3 21  1  0
  3 22  1  0
  3 23  1  0
  4 24  1  0
  7 25  1  0
 12 26  1  0
 13 27  1  0
 15 28  1  0
 16 29  1  0
 17 30  1  0
A    1
 C1 
A    2
 C2 
A    3
 C3 
A    4
 C4 
A    5
 C5 
A    6
 C6 
A    7
 C7 
A    8
 N1 
A    9
 C8 
A   10
 C9 
A   11
 O1 
A   12
 O2 
A   13
 C10
A   14
 C11
A   15
 C12
A   16
 C13
A   17
 C14
A   18
 H1 
A   19
 H2 
A   20
 H3 
A   21
 H4 
A   22
 H5 
A   23
 H6 
A   24
 H7 
A   25
 H8 
A   26
 H9 
A   27
 H10
A   28
 H11
A   29
 H12
A   30
 H13
M  END
>  <ref_pdb>  (90) 
x0310_0A

>  <ref_mols>  (90) 
x0554_0A,x0416_0A,x0446_0A

>  <original SMILES>  (90) 
CC(C)=Cc1cccc2cc(C(=O)O)ncc12

>  <rationale>  (90) 
info hydroph_interaction:P107; 

>  <intxn_cluster>  (90) 
208

>  <intxn_cluster_rank>  (90) 
693

>  <N_interactions>  (90) 
2

>  <∆∆G>  (90) 
-9.293871

>  <$/mg>  (90) 
nan

>  <comRMSD>  (90) 
0.835129

>  <N_rotatable_bonds>  (90) 
4

>  <hbond:SER:7>  (90) 
hbond:SER:7    0
hbond:SER:7    0
Name: 89, dtype: object

>  <halogenbond:SER:7>  (90) 
halogenbond:SER:7    0
halogenbond:SER:7    0
Name: 89, dtype: object

>  <hbond:GLY:8>  (90) 
hbond:GLY:8    0
hbond:GLY:8    0
Name: 89, dtype: object

>  <hydroph_interaction:ASN:19>  (90) 
hydroph_interaction:ASN:19    0
hydroph_interaction:ASN:19    0
Name: 89, dtype: object

>  <hbond:ASN:19>  (90) 
hbond:ASN:19    0
hbond:ASN:19    0
Name: 89, dtype: object

>  <halogenbond:ASN:19>  (90) 
halogenbond:ASN:19    0
halogenbond:ASN:19    0
Name: 89, dtype: object

>  <hbond:ARG:20>  (90) 
hbond:ARG:20    0
hbond:ARG:20    0
Name: 89, dtype: object

>  <hydroph_interaction:ARG:20>  (90) 
hydroph_interaction:ARG:20    0
hydroph_interaction:ARG:20    0
Name: 89, dtype: object

>  <saltbridge:ARG:20>  (90) 
saltbridge:ARG:20    0
saltbridge:ARG:20    0
Name: 89, dtype: object

>  <halogenbond:ARG:20>  (90) 
halogenbond:ARG:20    0
halogenbond:ARG:20    0
Name: 89, dtype: object

>  <pication:ARG:20>  (90) 
pication:ARG:20    0
pication:ARG:20    0
Name: 89, dtype: object

>  <hbond:HIS:21>  (90) 
hbond:HIS:21    0
hbond:HIS:21    0
Name: 89, dtype: object

>  <hydroph_interaction:HIS:21>  (90) 
hydroph_interaction:HIS:21    0
hydroph_interaction:HIS:21    0
Name: 89, dtype: object

>  <saltbridge:HIS:21>  (90) 
saltbridge:HIS:21    0
saltbridge:HIS:21    0
Name: 89, dtype: object

>  <pistack:HIS:21>  (90) 
pistack:HIS:21    0
pistack:HIS:21    0
Name: 89, dtype: object

>  <pication:HIS:21>  (90) 
pication:HIS:21    0
pication:HIS:21    0
Name: 89, dtype: object

>  <halogenbond:HIS:21>  (90) 
halogenbond:HIS:21    0
halogenbond:HIS:21    0
Name: 89, dtype: object

>  <hydroph_interaction:LEU:22>  (90) 
hydroph_interaction:LEU:22    0
hydroph_interaction:LEU:22    0
Name: 89, dtype: object

>  <hbond:LEU:22>  (90) 
hbond:LEU:22    0
hbond:LEU:22    0
Name: 89, dtype: object

>  <hydroph_interaction:TRP:28>  (90) 
hydroph_interaction:TRP:28    0
hydroph_interaction:TRP:28    0
Name: 89, dtype: object

>  <hbond:SER:36>  (90) 
hbond:SER:36    0
hbond:SER:36    0
Name: 89, dtype: object

>  <halogenbond:SER:36>  (90) 
halogenbond:SER:36    0
halogenbond:SER:36    0
Name: 89, dtype: object

>  <hbond:ARG:38>  (90) 
hbond:ARG:38    0
hbond:ARG:38    0
Name: 89, dtype: object

>  <halogenbond:ARG:38>  (90) 
halogenbond:ARG:38    0
halogenbond:ARG:38    0
Name: 89, dtype: object

>  <hbond:ASP:39>  (90) 
hbond:ASP:39    0
hbond:ASP:39    0
Name: 89, dtype: object

>  <saltbridge:ASP:39>  (90) 
saltbridge:ASP:39    0
saltbridge:ASP:39    0
Name: 89, dtype: object

>  <hydroph_interaction:ASP:39>  (90) 
hydroph_interaction:ASP:39    0
hydroph_interaction:ASP:39    0
Name: 89, dtype: object

>  <halogenbond:ASP:39>  (90) 
halogenbond:ASP:39    0
halogenbond:ASP:39    0
Name: 89, dtype: object

>  <hydroph_interaction:LEU:40>  (90) 
hydroph_interaction:LEU:40    0
hydroph_interaction:LEU:40    0
Name: 89, dtype: object

>  <hydroph_interaction:TYR:63>  (90) 
hydroph_interaction:TYR:63    0
hydroph_interaction:TYR:63    0
Name: 89, dtype: object

>  <pistack:TYR:63>  (90) 
pistack:TYR:63    0
pistack:TYR:63    0
Name: 89, dtype: object

>  <hbond:TYR:63>  (90) 
hbond:TYR:63    0
hbond:TYR:63    0
Name: 89, dtype: object

>  <hbond:TYR:64>  (90) 
hbond:TYR:64    0
hbond:TYR:64    0
Name: 89, dtype: object

>  <halogenbond:TYR:64>  (90) 
halogenbond:TYR:64    0
halogenbond:TYR:64    0
Name: 89, dtype: object

>  <hydroph_interaction:TYR:64>  (90) 
hydroph_interaction:TYR:64    0
hydroph_interaction:TYR:64    0
Name: 89, dtype: object

>  <hbond:CYS:65>  (90) 
hbond:CYS:65    0
hbond:CYS:65    0
Name: 89, dtype: object

>  <halogenbond:CYS:65>  (90) 
halogenbond:CYS:65    0
halogenbond:CYS:65    0
Name: 89, dtype: object

>  <hbond:SER:66>  (90) 
hbond:SER:66    0
hbond:SER:66    0
Name: 89, dtype: object

>  <hbond:SER:67>  (90) 
hbond:SER:67    0
hbond:SER:67    0
Name: 89, dtype: object

>  <halogenbond:SER:67>  (90) 
halogenbond:SER:67    0
halogenbond:SER:67    0
Name: 89, dtype: object

>  <hydroph_interaction:ARG:68>  (90) 
hydroph_interaction:ARG:68    0
hydroph_interaction:ARG:68    0
Name: 89, dtype: object

>  <hbond:ARG:68>  (90) 
hbond:ARG:68    0
hbond:ARG:68    0
Name: 89, dtype: object

>  <saltbridge:ARG:68>  (90) 
saltbridge:ARG:68    0
saltbridge:ARG:68    0
Name: 89, dtype: object

>  <pication:ARG:68>  (90) 
pication:ARG:68    0
pication:ARG:68    0
Name: 89, dtype: object

>  <hydroph_interaction:TYR:72>  (90) 
hydroph_interaction:TYR:72    0
hydroph_interaction:TYR:72    0
Name: 89, dtype: object

>  <hydroph_interaction:VAL:74>  (90) 
hydroph_interaction:VAL:74    0
hydroph_interaction:VAL:74    0
Name: 89, dtype: object

>  <hydroph_interaction:PHE:76>  (90) 
hydroph_interaction:PHE:76    0
hydroph_interaction:PHE:76    0
Name: 89, dtype: object

>  <hbond:SER:77>  (90) 
hbond:SER:77    0
hbond:SER:77    0
Name: 89, dtype: object

>  <hbond:SER:80>  (90) 
hbond:SER:80    0
hbond:SER:80    0
Name: 89, dtype: object

>  <hbond:LEU:81>  (90) 
hbond:LEU:81    0
hbond:LEU:81    0
Name: 89, dtype: object

>  <halogenbond:LEU:81>  (90) 
halogenbond:LEU:81    0
halogenbond:LEU:81    0
Name: 89, dtype: object

>  <hydroph_interaction:LEU:81>  (90) 
hydroph_interaction:LEU:81    0
hydroph_interaction:LEU:81    0
Name: 89, dtype: object

>  <hydroph_interaction:ILE:82>  (90) 
hydroph_interaction:ILE:82    0
hydroph_interaction:ILE:82    0
Name: 89, dtype: object

>  <hbond:ILE:82>  (90) 
hbond:ILE:82    0
hbond:ILE:82    0
Name: 89, dtype: object

>  <hydroph_interaction:PHE:83>  (90) 
hydroph_interaction:PHE:83    0
hydroph_interaction:PHE:83    0
Name: 89, dtype: object

>  <hbond:PHE:83>  (90) 
hbond:PHE:83    0
hbond:PHE:83    0
Name: 89, dtype: object

>  <halogenbond:PHE:83>  (90) 
halogenbond:PHE:83    0
halogenbond:PHE:83    0
Name: 89, dtype: object

>  <pistack:PHE:83>  (90) 
pistack:PHE:83    0
pistack:PHE:83    0
Name: 89, dtype: object

>  <hydroph_interaction:VAL:84>  (90) 
hydroph_interaction:VAL:84    0
hydroph_interaction:VAL:84    0
Name: 89, dtype: object

>  <hbond:VAL:84>  (90) 
hbond:VAL:84    0
hbond:VAL:84    0
Name: 89, dtype: object

>  <halogenbond:VAL:84>  (90) 
halogenbond:VAL:84    0
halogenbond:VAL:84    0
Name: 89, dtype: object

>  <hydroph_interaction:GLU:85>  (90) 
hydroph_interaction:GLU:85    0
hydroph_interaction:GLU:85    0
Name: 89, dtype: object

>  <hbond:GLU:85>  (90) 
hbond:GLU:85    0
hbond:GLU:85    0
Name: 89, dtype: object

>  <saltbridge:GLU:85>  (90) 
saltbridge:GLU:85    0
saltbridge:GLU:85    0
Name: 89, dtype: object

>  <halogenbond:GLU:85>  (90) 
halogenbond:GLU:85    0
halogenbond:GLU:85    0
Name: 89, dtype: object

>  <hbond:ALA:86>  (90) 
hbond:ALA:86    0
hbond:ALA:86    0
Name: 89, dtype: object

>  <halogenbond:ALA:86>  (90) 
halogenbond:ALA:86    0
halogenbond:ALA:86    0
Name: 89, dtype: object

>  <hydroph_interaction:ALA:86>  (90) 
hydroph_interaction:ALA:86    0
hydroph_interaction:ALA:86    0
Name: 89, dtype: object

>  <hbond:SER:87>  (90) 
hbond:SER:87    0
hbond:SER:87    0
Name: 89, dtype: object

>  <halogenbond:SER:87>  (90) 
halogenbond:SER:87    0
halogenbond:SER:87    0
Name: 89, dtype: object

>  <hbond:GLU:88>  (90) 
hbond:GLU:88    0
hbond:GLU:88    0
Name: 89, dtype: object

>  <hydroph_interaction:GLU:88>  (90) 
hydroph_interaction:GLU:88    0
hydroph_interaction:GLU:88    0
Name: 89, dtype: object

>  <halogenbond:GLU:88>  (90) 
halogenbond:GLU:88    0
halogenbond:GLU:88    0
Name: 89, dtype: object

>  <saltbridge:GLU:88>  (90) 
saltbridge:GLU:88    0
saltbridge:GLU:88    0
Name: 89, dtype: object

>  <hydroph_interaction:TYR:89>  (90) 
hydroph_interaction:TYR:89    0
hydroph_interaction:TYR:89    0
Name: 89, dtype: object

>  <pistack:TYR:89>  (90) 
pistack:TYR:89    0
pistack:TYR:89    0
Name: 89, dtype: object

>  <hbond:TYR:89>  (90) 
hbond:TYR:89    0
hbond:TYR:89    0
Name: 89, dtype: object

>  <halogenbond:TYR:89>  (90) 
halogenbond:TYR:89    0
halogenbond:TYR:89    0
Name: 89, dtype: object

>  <hbond:TYR:90>  (90) 
hbond:TYR:90    0
hbond:TYR:90    0
Name: 89, dtype: object

>  <hydroph_interaction:TYR:90>  (90) 
hydroph_interaction:TYR:90    0
hydroph_interaction:TYR:90    0
Name: 89, dtype: object

>  <pistack:TYR:90>  (90) 
pistack:TYR:90    0
pistack:TYR:90    0
Name: 89, dtype: object

>  <halogenbond:TYR:90>  (90) 
halogenbond:TYR:90    0
halogenbond:TYR:90    0
Name: 89, dtype: object

>  <pication:TYR:90>  (90) 
pication:TYR:90    0
pication:TYR:90    0
Name: 89, dtype: object

>  <hydroph_interaction:PRO:91>  (90) 
hydroph_interaction:PRO:91    0
hydroph_interaction:PRO:91    0
Name: 89, dtype: object

>  <halogenbond:PRO:91>  (90) 
halogenbond:PRO:91    0
halogenbond:PRO:91    0
Name: 89, dtype: object

>  <hbond:PRO:91>  (90) 
hbond:PRO:91    0
hbond:PRO:91    0
Name: 89, dtype: object

>  <hydroph_interaction:ALA:92>  (90) 
hydroph_interaction:ALA:92    0
hydroph_interaction:ALA:92    0
Name: 89, dtype: object

>  <hbond:ARG:93>  (90) 
hbond:ARG:93    0
hbond:ARG:93    0
Name: 89, dtype: object

>  <pication:ARG:93>  (90) 
pication:ARG:93    0
pication:ARG:93    0
Name: 89, dtype: object

>  <saltbridge:ARG:93>  (90) 
saltbridge:ARG:93    0
saltbridge:ARG:93    0
Name: 89, dtype: object

>  <hydroph_interaction:ARG:93>  (90) 
hydroph_interaction:ARG:93    0
hydroph_interaction:ARG:93    0
Name: 89, dtype: object

>  <halogenbond:ARG:93>  (90) 
halogenbond:ARG:93    0
halogenbond:ARG:93    0
Name: 89, dtype: object

>  <hydroph_interaction:TYR:94>  (90) 
hydroph_interaction:TYR:94    0
hydroph_interaction:TYR:94    0
Name: 89, dtype: object

>  <hbond:TYR:94>  (90) 
hbond:TYR:94    0
hbond:TYR:94    0
Name: 89, dtype: object

>  <halogenbond:GLN:95>  (90) 
halogenbond:GLN:95    0
halogenbond:GLN:95    0
Name: 89, dtype: object

>  <hbond:GLN:95>  (90) 
hbond:GLN:95    0
hbond:GLN:95    0
Name: 89, dtype: object

>  <hydroph_interaction:GLN:95>  (90) 
hydroph_interaction:GLN:95    0
hydroph_interaction:GLN:95    0
Name: 89, dtype: object

>  <hbond:SER:96>  (90) 
hbond:SER:96    0
hbond:SER:96    0
Name: 89, dtype: object

>  <hydroph_interaction:LEU:98>  (90) 
hydroph_interaction:LEU:98    0
hydroph_interaction:LEU:98    0
Name: 89, dtype: object

>  <hbond:LEU:98>  (90) 
hbond:LEU:98    0
hbond:LEU:98    0
Name: 89, dtype: object

>  <hbond:MET:99>  (90) 
hbond:MET:99    0
hbond:MET:99    0
Name: 89, dtype: object

>  <hydroph_interaction:MET:99>  (90) 
hydroph_interaction:MET:99    0
hydroph_interaction:MET:99    0
Name: 89, dtype: object

>  <halogenbond:MET:99>  (90) 
halogenbond:MET:99    0
halogenbond:MET:99    0
Name: 89, dtype: object

>  <hydroph_interaction:LEU:100>  (90) 
hydroph_interaction:LEU:100    0
hydroph_interaction:LEU:100    0
Name: 89, dtype: object

>  <hbond:LEU:100>  (90) 
hbond:LEU:100    0
hbond:LEU:100    0
Name: 89, dtype: object

>  <hbond:ALA:101>  (90) 
hbond:ALA:101    0
hbond:ALA:101    0
Name: 89, dtype: object

>  <hydroph_interaction:ALA:101>  (90) 
hydroph_interaction:ALA:101    0
hydroph_interaction:ALA:101    0
Name: 89, dtype: object

>  <hydroph_interaction:VAL:102>  (90) 
hydroph_interaction:VAL:102    0
hydroph_interaction:VAL:102    0
Name: 89, dtype: object

>  <hbond:VAL:102>  (90) 
hbond:VAL:102    0
hbond:VAL:102    0
Name: 89, dtype: object

>  <hbond:GLY:103>  (90) 
hbond:GLY:103    0
hbond:GLY:103    0
Name: 89, dtype: object

>  <halogenbond:GLY:103>  (90) 
halogenbond:GLY:103    0
halogenbond:GLY:103    0
Name: 89, dtype: object

>  <hydroph_interaction:HIS:104>  (90) 
hydroph_interaction:HIS:104    0
hydroph_interaction:HIS:104    0
Name: 89, dtype: object

>  <hbond:HIS:104>  (90) 
hbond:HIS:104    0
hbond:HIS:104    0
Name: 89, dtype: object

>  <saltbridge:HIS:104>  (90) 
saltbridge:HIS:104    0
saltbridge:HIS:104    0
Name: 89, dtype: object

>  <pication:HIS:104>  (90) 
pication:HIS:104    0
pication:HIS:104    0
Name: 89, dtype: object

>  <pistack:HIS:104>  (90) 
pistack:HIS:104    0
pistack:HIS:104    0
Name: 89, dtype: object

>  <halogenbond:HIS:104>  (90) 
halogenbond:HIS:104    0
halogenbond:HIS:104    0
Name: 89, dtype: object

>  <hbond:SER:105>  (90) 
hbond:SER:105    0
hbond:SER:105    0
Name: 89, dtype: object

>  <halogenbond:SER:105>  (90) 
halogenbond:SER:105    0
halogenbond:SER:105    0
Name: 89, dtype: object

>  <hbond:GLU:106>  (90) 
hbond:GLU:106    0
hbond:GLU:106    0
Name: 89, dtype: object

>  <hydroph_interaction:GLU:106>  (90) 
hydroph_interaction:GLU:106    0
hydroph_interaction:GLU:106    0
Name: 89, dtype: object

>  <saltbridge:GLU:106>  (90) 
saltbridge:GLU:106    0
saltbridge:GLU:106    0
Name: 89, dtype: object

>  <halogenbond:GLU:106>  (90) 
halogenbond:GLU:106    0
halogenbond:GLU:106    0
Name: 89, dtype: object

>  <hydroph_interaction:PRO:107>  (90) 
hydroph_interaction:PRO:107    2
hydroph_interaction:PRO:107    2
Name: 89, dtype: object

>  <hbond:PRO:107>  (90) 
hbond:PRO:107    0
hbond:PRO:107    0
Name: 89, dtype: object

>  <halogenbond:PRO:107>  (90) 
halogenbond:PRO:107    0
halogenbond:PRO:107    0
Name: 89, dtype: object

>  <hbond:GLY:108>  (90) 
hbond:GLY:108    0
hbond:GLY:108    0
Name: 89, dtype: object

>  <halogenbond:GLY:108>  (90) 
halogenbond:GLY:108    0
halogenbond:GLY:108    0
Name: 89, dtype: object

>  <hbond:ASP:109>  (90) 
hbond:ASP:109    0
hbond:ASP:109    0
Name: 89, dtype: object

>  <hydroph_interaction:ASP:109>  (90) 
hydroph_interaction:ASP:109    0
hydroph_interaction:ASP:109    0
Name: 89, dtype: object

>  <saltbridge:ASP:109>  (90) 
saltbridge:ASP:109    0
saltbridge:ASP:109    0
Name: 89, dtype: object

>  <hbond:CYS:110>  (90) 
hbond:CYS:110    0
hbond:CYS:110    0
Name: 89, dtype: object

>  <halogenbond:CYS:110>  (90) 
halogenbond:CYS:110    0
halogenbond:CYS:110    0
Name: 89, dtype: object

>  <hbond:GLY:111>  (90) 
hbond:GLY:111    0
hbond:GLY:111    0
Name: 89, dtype: object

>  <hbond:GLY:112>  (90) 
hbond:GLY:112    0
hbond:GLY:112    0
Name: 89, dtype: object

>  <hbond:ILE:113>  (90) 
hbond:ILE:113    0
hbond:ILE:113    0
Name: 89, dtype: object

>  <hydroph_interaction:LEU:114>  (90) 
hydroph_interaction:LEU:114    0
hydroph_interaction:LEU:114    0
Name: 89, dtype: object

>  <hbond:LEU:114>  (90) 
hbond:LEU:114    0
hbond:LEU:114    0
Name: 89, dtype: object

>  <hydroph_interaction:ILE:123>  (90) 
hydroph_interaction:ILE:123    0
hydroph_interaction:ILE:123    0
Name: 89, dtype: object

>  <hbond:ILE:123>  (90) 
hbond:ILE:123    0
hbond:ILE:123    0
Name: 89, dtype: object

>  <hydroph_interaction:VAL:124>  (90) 
hydroph_interaction:VAL:124    0
hydroph_interaction:VAL:124    0
Name: 89, dtype: object

>  <hbond:VAL:124>  (90) 
hbond:VAL:124    0
hbond:VAL:124    0
Name: 89, dtype: object

>  <halogenbond:VAL:124>  (90) 
halogenbond:VAL:124    0
halogenbond:VAL:124    0
Name: 89, dtype: object

>  <hbond:SER:125>  (90) 
hbond:SER:125    0
hbond:SER:125    0
Name: 89, dtype: object

>  <halogenbond:SER:125>  (90) 
halogenbond:SER:125    0
halogenbond:SER:125    0
Name: 89, dtype: object

>  <hydroph_interaction:THR:126>  (90) 
hydroph_interaction:THR:126    0
hydroph_interaction:THR:126    0
Name: 89, dtype: object

>  <hbond:THR:126>  (90) 
hbond:THR:126    0
hbond:THR:126    0
Name: 89, dtype: object

>  <halogenbond:THR:126>  (90) 
halogenbond:THR:126    0
halogenbond:THR:126    0
Name: 89, dtype: object

>  <hbond:GLY:127>  (90) 
hbond:GLY:127    0
hbond:GLY:127    0
Name: 89, dtype: object

>  <halogenbond:GLY:127>  (90) 
halogenbond:GLY:127    0
halogenbond:GLY:127    0
Name: 89, dtype: object

>  <hydroph_interaction:GLY:127>  (90) 
hydroph_interaction:GLY:127    0
hydroph_interaction:GLY:127    0
Name: 89, dtype: object

>  <hbond:GLY:128>  (90) 
hbond:GLY:128    0
hbond:GLY:128    0
Name: 89, dtype: object

>  <halogenbond:GLY:128>  (90) 
halogenbond:GLY:128    0
halogenbond:GLY:128    0
Name: 89, dtype: object

>  <hydroph_interaction:GLY:128>  (90) 
hydroph_interaction:GLY:128    0
hydroph_interaction:GLY:128    0
Name: 89, dtype: object

>  <hbond:ASN:129>  (90) 
hbond:ASN:129    0
hbond:ASN:129    0
Name: 89, dtype: object

>  <hydroph_interaction:ASN:129>  (90) 
hydroph_interaction:ASN:129    0
hydroph_interaction:ASN:129    0
Name: 89, dtype: object

>  <halogenbond:ASN:129>  (90) 
halogenbond:ASN:129    0
halogenbond:ASN:129    0
Name: 89, dtype: object

>  <hbond:GLY:130>  (90) 
hbond:GLY:130    0
hbond:GLY:130    0
Name: 89, dtype: object

>  <hydroph_interaction:LEU:131>  (90) 
hydroph_interaction:LEU:131    0
hydroph_interaction:LEU:131    0
Name: 89, dtype: object

>  <hbond:LEU:131>  (90) 
hbond:LEU:131    0
hbond:LEU:131    0
Name: 89, dtype: object

>  <halogenbond:LEU:131>  (90) 
halogenbond:LEU:131    0
halogenbond:LEU:131    0
Name: 89, dtype: object

>  <hydroph_interaction:VAL:132>  (90) 
hydroph_interaction:VAL:132    0
hydroph_interaction:VAL:132    0
Name: 89, dtype: object

>  <hbond:VAL:132>  (90) 
hbond:VAL:132    0
hbond:VAL:132    0
Name: 89, dtype: object

>  <hbond:GLY:133>  (90) 
hbond:GLY:133    0
hbond:GLY:133    0
Name: 89, dtype: object

>  <halogenbond:GLY:133>  (90) 
halogenbond:GLY:133    0
halogenbond:GLY:133    0
Name: 89, dtype: object

>  <hydroph_interaction:PHE:134>  (90) 
hydroph_interaction:PHE:134    0
hydroph_interaction:PHE:134    0
Name: 89, dtype: object

>  <hbond:PHE:134>  (90) 
hbond:PHE:134    0
hbond:PHE:134    0
Name: 89, dtype: object

>  <pistack:PHE:134>  (90) 
pistack:PHE:134    0
pistack:PHE:134    0
Name: 89, dtype: object

>  <pication:PHE:134>  (90) 
pication:PHE:134    0
pication:PHE:134    0
Name: 89, dtype: object

>  <hydroph_interaction:ALA:135>  (90) 
hydroph_interaction:ALA:135    0
hydroph_interaction:ALA:135    0
Name: 89, dtype: object

>  <hbond:ALA:135>  (90) 
hbond:ALA:135    0
hbond:ALA:135    0
Name: 89, dtype: object

$$$$
Z3484615251
     RDKit          3D

 25 27  0  0  0  0  0  0  0  0999 V2000
   12.5420   14.8670   21.8460 C   0  0  0  0  0  0  0  0  0  0  0  0
   11.7410   15.7020   20.9880 C   0  0  0  0  0  0  0  0  0  0  0  0
   10.3850   15.4370   20.8040 N   0  0  0  0  0  0  0  0  0  0  0  0
    9.8670   14.3530   21.4680 C   0  0  0  0  0  0  0  0  0  0  0  0
   10.6270   13.5170   22.3050 C   0  0  0  0  0  0  0  0  0  0  0  0
    9.9330   12.4520   22.8970 C   0  0  0  0  0  0  0  0  0  0  0  0
   10.2200   11.1150   22.6220 C   0  0  0  0  0  0  0  0  0  0  0  0
    9.3130   10.2660   23.4170 N   0  0  0  0  0  0  0  0  0  0  0  0
    8.5140   11.1060   24.1400 C   0  0  0  0  0  0  0  0  0  0  0  0
    7.5080   10.8230   25.0320 C   0  0  0  0  0  0  0  0  0  0  0  0
    6.7870   11.8000   25.6720 C   0  0  0  0  0  0  0  0  0  0  0  0
    7.1050   13.1250   25.3960 C   0  0  0  0  0  0  0  0  0  0  0  0
    8.1320   13.4470   24.4930 C   0  0  0  0  0  0  0  0  0  0  0  0
    8.8570   12.4410   23.8460 C   0  0  0  0  0  0  0  0  0  0  0  0
   11.9780   13.7830   22.4940 C   0  0  0  0  0  0  0  0  0  0  0  0
   13.5880   15.1720   21.9210 H   0  0  0  0  0  0  0  0  0  0  0  0
   12.1560   16.5560   20.4660 H   0  0  0  0  0  0  0  0  0  0  0  0
    8.8060   14.1800   21.2970 H   0  0  0  0  0  0  0  0  0  0  0  0
   10.9350   10.6540   21.9760 H   0  0  0  0  0  0  0  0  0  0  0  0
    9.2840    9.2390   23.4230 H   0  0  0  0  0  0  0  0  0  0  0  0
    7.2660    9.7900   25.2400 H   0  0  0  0  0  0  0  0  0  0  0  0
    5.9950   11.5440   26.3710 H   0  0  0  0  0  0  0  0  0  0  0  0
    6.5550   13.9250   25.8850 H   0  0  0  0  0  0  0  0  0  0  0  0
    8.3580   14.4900   24.3000 H   0  0  0  0  0  0  0  0  0  0  0  0
   12.5980   13.1540   23.1410 H   0  0  0  0  0  0  0  0  0  0  0  0
  1  2  2  0
  2  3  1  0
  3  4  2  0
  4  5  1  0
  5  6  1  0
  6  7  2  0
  7  8  1  0
  8  9  1  0
  9 10  2  0
 10 11  1  0
 11 12  2  0
 12 13  1  0
 13 14  2  0
  5 15  2  0
 15  1  1  0
 14  6  1  0
 14  9  1  0
  1 16  1  0
  2 17  1  0
  4 18  1  0
  7 19  1  0
  8 20  1  0
 10 21  1  0
 11 22  1  0
 12 23  1  0
 13 24  1  0
 15 25  1  0
A    1
 C1 
A    2
 C2 
A    3
 N1 
A    4
 C3 
A    5
 C4 
A    6
 C5 
A    7
 C6 
A    8
 N2 
A    9
 C7 
A   10
 C8 
A   11
 C9 
A   12
 C10
A   13
 C11
A   14
 C12
A   15
 C13
A   16
 H1 
A   17
 H2 
A   18
 H3 
A   19
 H4 
A   20
 H5 
A   21
 H6 
A   22
 H7 
A   23
 H8 
A   24
 H9 
A   25
 H10
M  END
>  <ref_pdb>  (91) 
x0310_0A

>  <ref_mols>  (91) 
x0554_0A,x0884_0A,x0812_0A

>  <original SMILES>  (91) 
c1cncc(-c2c[nH]c3ccccc23)c1

>  <rationale>  (91) 
info hbond:S87; 

>  <intxn_cluster>  (91) 
208

>  <intxn_cluster_rank>  (91) 
732

>  <N_interactions>  (91) 
1

>  <∆∆G>  (91) 
-7.799573

>  <$/mg>  (91) 
nan

>  <comRMSD>  (91) 
0.916899

>  <N_rotatable_bonds>  (91) 
1

>  <hbond:SER:7>  (91) 
hbond:SER:7    0
hbond:SER:7    0
Name: 90, dtype: object

>  <halogenbond:SER:7>  (91) 
halogenbond:SER:7    0
halogenbond:SER:7    0
Name: 90, dtype: object

>  <hbond:GLY:8>  (91) 
hbond:GLY:8    0
hbond:GLY:8    0
Name: 90, dtype: object

>  <hydroph_interaction:ASN:19>  (91) 
hydroph_interaction:ASN:19    0
hydroph_interaction:ASN:19    0
Name: 90, dtype: object

>  <hbond:ASN:19>  (91) 
hbond:ASN:19    0
hbond:ASN:19    0
Name: 90, dtype: object

>  <halogenbond:ASN:19>  (91) 
halogenbond:ASN:19    0
halogenbond:ASN:19    0
Name: 90, dtype: object

>  <hbond:ARG:20>  (91) 
hbond:ARG:20    0
hbond:ARG:20    0
Name: 90, dtype: object

>  <hydroph_interaction:ARG:20>  (91) 
hydroph_interaction:ARG:20    0
hydroph_interaction:ARG:20    0
Name: 90, dtype: object

>  <saltbridge:ARG:20>  (91) 
saltbridge:ARG:20    0
saltbridge:ARG:20    0
Name: 90, dtype: object

>  <halogenbond:ARG:20>  (91) 
halogenbond:ARG:20    0
halogenbond:ARG:20    0
Name: 90, dtype: object

>  <pication:ARG:20>  (91) 
pication:ARG:20    0
pication:ARG:20    0
Name: 90, dtype: object

>  <hbond:HIS:21>  (91) 
hbond:HIS:21    0
hbond:HIS:21    0
Name: 90, dtype: object

>  <hydroph_interaction:HIS:21>  (91) 
hydroph_interaction:HIS:21    0
hydroph_interaction:HIS:21    0
Name: 90, dtype: object

>  <saltbridge:HIS:21>  (91) 
saltbridge:HIS:21    0
saltbridge:HIS:21    0
Name: 90, dtype: object

>  <pistack:HIS:21>  (91) 
pistack:HIS:21    0
pistack:HIS:21    0
Name: 90, dtype: object

>  <pication:HIS:21>  (91) 
pication:HIS:21    0
pication:HIS:21    0
Name: 90, dtype: object

>  <halogenbond:HIS:21>  (91) 
halogenbond:HIS:21    0
halogenbond:HIS:21    0
Name: 90, dtype: object

>  <hydroph_interaction:LEU:22>  (91) 
hydroph_interaction:LEU:22    0
hydroph_interaction:LEU:22    0
Name: 90, dtype: object

>  <hbond:LEU:22>  (91) 
hbond:LEU:22    0
hbond:LEU:22    0
Name: 90, dtype: object

>  <hydroph_interaction:TRP:28>  (91) 
hydroph_interaction:TRP:28    0
hydroph_interaction:TRP:28    0
Name: 90, dtype: object

>  <hbond:SER:36>  (91) 
hbond:SER:36    0
hbond:SER:36    0
Name: 90, dtype: object

>  <halogenbond:SER:36>  (91) 
halogenbond:SER:36    0
halogenbond:SER:36    0
Name: 90, dtype: object

>  <hbond:ARG:38>  (91) 
hbond:ARG:38    0
hbond:ARG:38    0
Name: 90, dtype: object

>  <halogenbond:ARG:38>  (91) 
halogenbond:ARG:38    0
halogenbond:ARG:38    0
Name: 90, dtype: object

>  <hbond:ASP:39>  (91) 
hbond:ASP:39    0
hbond:ASP:39    0
Name: 90, dtype: object

>  <saltbridge:ASP:39>  (91) 
saltbridge:ASP:39    0
saltbridge:ASP:39    0
Name: 90, dtype: object

>  <hydroph_interaction:ASP:39>  (91) 
hydroph_interaction:ASP:39    0
hydroph_interaction:ASP:39    0
Name: 90, dtype: object

>  <halogenbond:ASP:39>  (91) 
halogenbond:ASP:39    0
halogenbond:ASP:39    0
Name: 90, dtype: object

>  <hydroph_interaction:LEU:40>  (91) 
hydroph_interaction:LEU:40    0
hydroph_interaction:LEU:40    0
Name: 90, dtype: object

>  <hydroph_interaction:TYR:63>  (91) 
hydroph_interaction:TYR:63    0
hydroph_interaction:TYR:63    0
Name: 90, dtype: object

>  <pistack:TYR:63>  (91) 
pistack:TYR:63    0
pistack:TYR:63    0
Name: 90, dtype: object

>  <hbond:TYR:63>  (91) 
hbond:TYR:63    0
hbond:TYR:63    0
Name: 90, dtype: object

>  <hbond:TYR:64>  (91) 
hbond:TYR:64    0
hbond:TYR:64    0
Name: 90, dtype: object

>  <halogenbond:TYR:64>  (91) 
halogenbond:TYR:64    0
halogenbond:TYR:64    0
Name: 90, dtype: object

>  <hydroph_interaction:TYR:64>  (91) 
hydroph_interaction:TYR:64    0
hydroph_interaction:TYR:64    0
Name: 90, dtype: object

>  <hbond:CYS:65>  (91) 
hbond:CYS:65    0
hbond:CYS:65    0
Name: 90, dtype: object

>  <halogenbond:CYS:65>  (91) 
halogenbond:CYS:65    0
halogenbond:CYS:65    0
Name: 90, dtype: object

>  <hbond:SER:66>  (91) 
hbond:SER:66    0
hbond:SER:66    0
Name: 90, dtype: object

>  <hbond:SER:67>  (91) 
hbond:SER:67    0
hbond:SER:67    0
Name: 90, dtype: object

>  <halogenbond:SER:67>  (91) 
halogenbond:SER:67    0
halogenbond:SER:67    0
Name: 90, dtype: object

>  <hydroph_interaction:ARG:68>  (91) 
hydroph_interaction:ARG:68    0
hydroph_interaction:ARG:68    0
Name: 90, dtype: object

>  <hbond:ARG:68>  (91) 
hbond:ARG:68    0
hbond:ARG:68    0
Name: 90, dtype: object

>  <saltbridge:ARG:68>  (91) 
saltbridge:ARG:68    0
saltbridge:ARG:68    0
Name: 90, dtype: object

>  <pication:ARG:68>  (91) 
pication:ARG:68    0
pication:ARG:68    0
Name: 90, dtype: object

>  <hydroph_interaction:TYR:72>  (91) 
hydroph_interaction:TYR:72    0
hydroph_interaction:TYR:72    0
Name: 90, dtype: object

>  <hydroph_interaction:VAL:74>  (91) 
hydroph_interaction:VAL:74    0
hydroph_interaction:VAL:74    0
Name: 90, dtype: object

>  <hydroph_interaction:PHE:76>  (91) 
hydroph_interaction:PHE:76    0
hydroph_interaction:PHE:76    0
Name: 90, dtype: object

>  <hbond:SER:77>  (91) 
hbond:SER:77    0
hbond:SER:77    0
Name: 90, dtype: object

>  <hbond:SER:80>  (91) 
hbond:SER:80    0
hbond:SER:80    0
Name: 90, dtype: object

>  <hbond:LEU:81>  (91) 
hbond:LEU:81    0
hbond:LEU:81    0
Name: 90, dtype: object

>  <halogenbond:LEU:81>  (91) 
halogenbond:LEU:81    0
halogenbond:LEU:81    0
Name: 90, dtype: object

>  <hydroph_interaction:LEU:81>  (91) 
hydroph_interaction:LEU:81    0
hydroph_interaction:LEU:81    0
Name: 90, dtype: object

>  <hydroph_interaction:ILE:82>  (91) 
hydroph_interaction:ILE:82    0
hydroph_interaction:ILE:82    0
Name: 90, dtype: object

>  <hbond:ILE:82>  (91) 
hbond:ILE:82    0
hbond:ILE:82    0
Name: 90, dtype: object

>  <hydroph_interaction:PHE:83>  (91) 
hydroph_interaction:PHE:83    0
hydroph_interaction:PHE:83    0
Name: 90, dtype: object

>  <hbond:PHE:83>  (91) 
hbond:PHE:83    0
hbond:PHE:83    0
Name: 90, dtype: object

>  <halogenbond:PHE:83>  (91) 
halogenbond:PHE:83    0
halogenbond:PHE:83    0
Name: 90, dtype: object

>  <pistack:PHE:83>  (91) 
pistack:PHE:83    0
pistack:PHE:83    0
Name: 90, dtype: object

>  <hydroph_interaction:VAL:84>  (91) 
hydroph_interaction:VAL:84    0
hydroph_interaction:VAL:84    0
Name: 90, dtype: object

>  <hbond:VAL:84>  (91) 
hbond:VAL:84    0
hbond:VAL:84    0
Name: 90, dtype: object

>  <halogenbond:VAL:84>  (91) 
halogenbond:VAL:84    0
halogenbond:VAL:84    0
Name: 90, dtype: object

>  <hydroph_interaction:GLU:85>  (91) 
hydroph_interaction:GLU:85    0
hydroph_interaction:GLU:85    0
Name: 90, dtype: object

>  <hbond:GLU:85>  (91) 
hbond:GLU:85    0
hbond:GLU:85    0
Name: 90, dtype: object

>  <saltbridge:GLU:85>  (91) 
saltbridge:GLU:85    0
saltbridge:GLU:85    0
Name: 90, dtype: object

>  <halogenbond:GLU:85>  (91) 
halogenbond:GLU:85    0
halogenbond:GLU:85    0
Name: 90, dtype: object

>  <hbond:ALA:86>  (91) 
hbond:ALA:86    0
hbond:ALA:86    0
Name: 90, dtype: object

>  <halogenbond:ALA:86>  (91) 
halogenbond:ALA:86    0
halogenbond:ALA:86    0
Name: 90, dtype: object

>  <hydroph_interaction:ALA:86>  (91) 
hydroph_interaction:ALA:86    0
hydroph_interaction:ALA:86    0
Name: 90, dtype: object

>  <hbond:SER:87>  (91) 
hbond:SER:87    1
hbond:SER:87    1
Name: 90, dtype: object

>  <halogenbond:SER:87>  (91) 
halogenbond:SER:87    0
halogenbond:SER:87    0
Name: 90, dtype: object

>  <hbond:GLU:88>  (91) 
hbond:GLU:88    0
hbond:GLU:88    0
Name: 90, dtype: object

>  <hydroph_interaction:GLU:88>  (91) 
hydroph_interaction:GLU:88    0
hydroph_interaction:GLU:88    0
Name: 90, dtype: object

>  <halogenbond:GLU:88>  (91) 
halogenbond:GLU:88    0
halogenbond:GLU:88    0
Name: 90, dtype: object

>  <saltbridge:GLU:88>  (91) 
saltbridge:GLU:88    0
saltbridge:GLU:88    0
Name: 90, dtype: object

>  <hydroph_interaction:TYR:89>  (91) 
hydroph_interaction:TYR:89    0
hydroph_interaction:TYR:89    0
Name: 90, dtype: object

>  <pistack:TYR:89>  (91) 
pistack:TYR:89    0
pistack:TYR:89    0
Name: 90, dtype: object

>  <hbond:TYR:89>  (91) 
hbond:TYR:89    0
hbond:TYR:89    0
Name: 90, dtype: object

>  <halogenbond:TYR:89>  (91) 
halogenbond:TYR:89    0
halogenbond:TYR:89    0
Name: 90, dtype: object

>  <hbond:TYR:90>  (91) 
hbond:TYR:90    0
hbond:TYR:90    0
Name: 90, dtype: object

>  <hydroph_interaction:TYR:90>  (91) 
hydroph_interaction:TYR:90    0
hydroph_interaction:TYR:90    0
Name: 90, dtype: object

>  <pistack:TYR:90>  (91) 
pistack:TYR:90    0
pistack:TYR:90    0
Name: 90, dtype: object

>  <halogenbond:TYR:90>  (91) 
halogenbond:TYR:90    0
halogenbond:TYR:90    0
Name: 90, dtype: object

>  <pication:TYR:90>  (91) 
pication:TYR:90    0
pication:TYR:90    0
Name: 90, dtype: object

>  <hydroph_interaction:PRO:91>  (91) 
hydroph_interaction:PRO:91    0
hydroph_interaction:PRO:91    0
Name: 90, dtype: object

>  <halogenbond:PRO:91>  (91) 
halogenbond:PRO:91    0
halogenbond:PRO:91    0
Name: 90, dtype: object

>  <hbond:PRO:91>  (91) 
hbond:PRO:91    0
hbond:PRO:91    0
Name: 90, dtype: object

>  <hydroph_interaction:ALA:92>  (91) 
hydroph_interaction:ALA:92    0
hydroph_interaction:ALA:92    0
Name: 90, dtype: object

>  <hbond:ARG:93>  (91) 
hbond:ARG:93    0
hbond:ARG:93    0
Name: 90, dtype: object

>  <pication:ARG:93>  (91) 
pication:ARG:93    0
pication:ARG:93    0
Name: 90, dtype: object

>  <saltbridge:ARG:93>  (91) 
saltbridge:ARG:93    0
saltbridge:ARG:93    0
Name: 90, dtype: object

>  <hydroph_interaction:ARG:93>  (91) 
hydroph_interaction:ARG:93    0
hydroph_interaction:ARG:93    0
Name: 90, dtype: object

>  <halogenbond:ARG:93>  (91) 
halogenbond:ARG:93    0
halogenbond:ARG:93    0
Name: 90, dtype: object

>  <hydroph_interaction:TYR:94>  (91) 
hydroph_interaction:TYR:94    0
hydroph_interaction:TYR:94    0
Name: 90, dtype: object

>  <hbond:TYR:94>  (91) 
hbond:TYR:94    0
hbond:TYR:94    0
Name: 90, dtype: object

>  <halogenbond:GLN:95>  (91) 
halogenbond:GLN:95    0
halogenbond:GLN:95    0
Name: 90, dtype: object

>  <hbond:GLN:95>  (91) 
hbond:GLN:95    0
hbond:GLN:95    0
Name: 90, dtype: object

>  <hydroph_interaction:GLN:95>  (91) 
hydroph_interaction:GLN:95    0
hydroph_interaction:GLN:95    0
Name: 90, dtype: object

>  <hbond:SER:96>  (91) 
hbond:SER:96    0
hbond:SER:96    0
Name: 90, dtype: object

>  <hydroph_interaction:LEU:98>  (91) 
hydroph_interaction:LEU:98    0
hydroph_interaction:LEU:98    0
Name: 90, dtype: object

>  <hbond:LEU:98>  (91) 
hbond:LEU:98    0
hbond:LEU:98    0
Name: 90, dtype: object

>  <hbond:MET:99>  (91) 
hbond:MET:99    0
hbond:MET:99    0
Name: 90, dtype: object

>  <hydroph_interaction:MET:99>  (91) 
hydroph_interaction:MET:99    0
hydroph_interaction:MET:99    0
Name: 90, dtype: object

>  <halogenbond:MET:99>  (91) 
halogenbond:MET:99    0
halogenbond:MET:99    0
Name: 90, dtype: object

>  <hydroph_interaction:LEU:100>  (91) 
hydroph_interaction:LEU:100    0
hydroph_interaction:LEU:100    0
Name: 90, dtype: object

>  <hbond:LEU:100>  (91) 
hbond:LEU:100    0
hbond:LEU:100    0
Name: 90, dtype: object

>  <hbond:ALA:101>  (91) 
hbond:ALA:101    0
hbond:ALA:101    0
Name: 90, dtype: object

>  <hydroph_interaction:ALA:101>  (91) 
hydroph_interaction:ALA:101    0
hydroph_interaction:ALA:101    0
Name: 90, dtype: object

>  <hydroph_interaction:VAL:102>  (91) 
hydroph_interaction:VAL:102    0
hydroph_interaction:VAL:102    0
Name: 90, dtype: object

>  <hbond:VAL:102>  (91) 
hbond:VAL:102    0
hbond:VAL:102    0
Name: 90, dtype: object

>  <hbond:GLY:103>  (91) 
hbond:GLY:103    0
hbond:GLY:103    0
Name: 90, dtype: object

>  <halogenbond:GLY:103>  (91) 
halogenbond:GLY:103    0
halogenbond:GLY:103    0
Name: 90, dtype: object

>  <hydroph_interaction:HIS:104>  (91) 
hydroph_interaction:HIS:104    0
hydroph_interaction:HIS:104    0
Name: 90, dtype: object

>  <hbond:HIS:104>  (91) 
hbond:HIS:104    0
hbond:HIS:104    0
Name: 90, dtype: object

>  <saltbridge:HIS:104>  (91) 
saltbridge:HIS:104    0
saltbridge:HIS:104    0
Name: 90, dtype: object

>  <pication:HIS:104>  (91) 
pication:HIS:104    0
pication:HIS:104    0
Name: 90, dtype: object

>  <pistack:HIS:104>  (91) 
pistack:HIS:104    0
pistack:HIS:104    0
Name: 90, dtype: object

>  <halogenbond:HIS:104>  (91) 
halogenbond:HIS:104    0
halogenbond:HIS:104    0
Name: 90, dtype: object

>  <hbond:SER:105>  (91) 
hbond:SER:105    0
hbond:SER:105    0
Name: 90, dtype: object

>  <halogenbond:SER:105>  (91) 
halogenbond:SER:105    0
halogenbond:SER:105    0
Name: 90, dtype: object

>  <hbond:GLU:106>  (91) 
hbond:GLU:106    0
hbond:GLU:106    0
Name: 90, dtype: object

>  <hydroph_interaction:GLU:106>  (91) 
hydroph_interaction:GLU:106    0
hydroph_interaction:GLU:106    0
Name: 90, dtype: object

>  <saltbridge:GLU:106>  (91) 
saltbridge:GLU:106    0
saltbridge:GLU:106    0
Name: 90, dtype: object

>  <halogenbond:GLU:106>  (91) 
halogenbond:GLU:106    0
halogenbond:GLU:106    0
Name: 90, dtype: object

>  <hydroph_interaction:PRO:107>  (91) 
hydroph_interaction:PRO:107    0
hydroph_interaction:PRO:107    0
Name: 90, dtype: object

>  <hbond:PRO:107>  (91) 
hbond:PRO:107    0
hbond:PRO:107    0
Name: 90, dtype: object

>  <halogenbond:PRO:107>  (91) 
halogenbond:PRO:107    0
halogenbond:PRO:107    0
Name: 90, dtype: object

>  <hbond:GLY:108>  (91) 
hbond:GLY:108    0
hbond:GLY:108    0
Name: 90, dtype: object

>  <halogenbond:GLY:108>  (91) 
halogenbond:GLY:108    0
halogenbond:GLY:108    0
Name: 90, dtype: object

>  <hbond:ASP:109>  (91) 
hbond:ASP:109    0
hbond:ASP:109    0
Name: 90, dtype: object

>  <hydroph_interaction:ASP:109>  (91) 
hydroph_interaction:ASP:109    0
hydroph_interaction:ASP:109    0
Name: 90, dtype: object

>  <saltbridge:ASP:109>  (91) 
saltbridge:ASP:109    0
saltbridge:ASP:109    0
Name: 90, dtype: object

>  <hbond:CYS:110>  (91) 
hbond:CYS:110    0
hbond:CYS:110    0
Name: 90, dtype: object

>  <halogenbond:CYS:110>  (91) 
halogenbond:CYS:110    0
halogenbond:CYS:110    0
Name: 90, dtype: object

>  <hbond:GLY:111>  (91) 
hbond:GLY:111    0
hbond:GLY:111    0
Name: 90, dtype: object

>  <hbond:GLY:112>  (91) 
hbond:GLY:112    0
hbond:GLY:112    0
Name: 90, dtype: object

>  <hbond:ILE:113>  (91) 
hbond:ILE:113    0
hbond:ILE:113    0
Name: 90, dtype: object

>  <hydroph_interaction:LEU:114>  (91) 
hydroph_interaction:LEU:114    0
hydroph_interaction:LEU:114    0
Name: 90, dtype: object

>  <hbond:LEU:114>  (91) 
hbond:LEU:114    0
hbond:LEU:114    0
Name: 90, dtype: object

>  <hydroph_interaction:ILE:123>  (91) 
hydroph_interaction:ILE:123    0
hydroph_interaction:ILE:123    0
Name: 90, dtype: object

>  <hbond:ILE:123>  (91) 
hbond:ILE:123    0
hbond:ILE:123    0
Name: 90, dtype: object

>  <hydroph_interaction:VAL:124>  (91) 
hydroph_interaction:VAL:124    0
hydroph_interaction:VAL:124    0
Name: 90, dtype: object

>  <hbond:VAL:124>  (91) 
hbond:VAL:124    0
hbond:VAL:124    0
Name: 90, dtype: object

>  <halogenbond:VAL:124>  (91) 
halogenbond:VAL:124    0
halogenbond:VAL:124    0
Name: 90, dtype: object

>  <hbond:SER:125>  (91) 
hbond:SER:125    0
hbond:SER:125    0
Name: 90, dtype: object

>  <halogenbond:SER:125>  (91) 
halogenbond:SER:125    0
halogenbond:SER:125    0
Name: 90, dtype: object

>  <hydroph_interaction:THR:126>  (91) 
hydroph_interaction:THR:126    0
hydroph_interaction:THR:126    0
Name: 90, dtype: object

>  <hbond:THR:126>  (91) 
hbond:THR:126    0
hbond:THR:126    0
Name: 90, dtype: object

>  <halogenbond:THR:126>  (91) 
halogenbond:THR:126    0
halogenbond:THR:126    0
Name: 90, dtype: object

>  <hbond:GLY:127>  (91) 
hbond:GLY:127    0
hbond:GLY:127    0
Name: 90, dtype: object

>  <halogenbond:GLY:127>  (91) 
halogenbond:GLY:127    0
halogenbond:GLY:127    0
Name: 90, dtype: object

>  <hydroph_interaction:GLY:127>  (91) 
hydroph_interaction:GLY:127    0
hydroph_interaction:GLY:127    0
Name: 90, dtype: object

>  <hbond:GLY:128>  (91) 
hbond:GLY:128    0
hbond:GLY:128    0
Name: 90, dtype: object

>  <halogenbond:GLY:128>  (91) 
halogenbond:GLY:128    0
halogenbond:GLY:128    0
Name: 90, dtype: object

>  <hydroph_interaction:GLY:128>  (91) 
hydroph_interaction:GLY:128    0
hydroph_interaction:GLY:128    0
Name: 90, dtype: object

>  <hbond:ASN:129>  (91) 
hbond:ASN:129    0
hbond:ASN:129    0
Name: 90, dtype: object

>  <hydroph_interaction:ASN:129>  (91) 
hydroph_interaction:ASN:129    0
hydroph_interaction:ASN:129    0
Name: 90, dtype: object

>  <halogenbond:ASN:129>  (91) 
halogenbond:ASN:129    0
halogenbond:ASN:129    0
Name: 90, dtype: object

>  <hbond:GLY:130>  (91) 
hbond:GLY:130    0
hbond:GLY:130    0
Name: 90, dtype: object

>  <hydroph_interaction:LEU:131>  (91) 
hydroph_interaction:LEU:131    0
hydroph_interaction:LEU:131    0
Name: 90, dtype: object

>  <hbond:LEU:131>  (91) 
hbond:LEU:131    0
hbond:LEU:131    0
Name: 90, dtype: object

>  <halogenbond:LEU:131>  (91) 
halogenbond:LEU:131    0
halogenbond:LEU:131    0
Name: 90, dtype: object

>  <hydroph_interaction:VAL:132>  (91) 
hydroph_interaction:VAL:132    0
hydroph_interaction:VAL:132    0
Name: 90, dtype: object

>  <hbond:VAL:132>  (91) 
hbond:VAL:132    0
hbond:VAL:132    0
Name: 90, dtype: object

>  <hbond:GLY:133>  (91) 
hbond:GLY:133    0
hbond:GLY:133    0
Name: 90, dtype: object

>  <halogenbond:GLY:133>  (91) 
halogenbond:GLY:133    0
halogenbond:GLY:133    0
Name: 90, dtype: object

>  <hydroph_interaction:PHE:134>  (91) 
hydroph_interaction:PHE:134    0
hydroph_interaction:PHE:134    0
Name: 90, dtype: object

>  <hbond:PHE:134>  (91) 
hbond:PHE:134    0
hbond:PHE:134    0
Name: 90, dtype: object

>  <pistack:PHE:134>  (91) 
pistack:PHE:134    0
pistack:PHE:134    0
Name: 90, dtype: object

>  <pication:PHE:134>  (91) 
pication:PHE:134    0
pication:PHE:134    0
Name: 90, dtype: object

>  <hydroph_interaction:ALA:135>  (91) 
hydroph_interaction:ALA:135    0
hydroph_interaction:ALA:135    0
Name: 90, dtype: object

>  <hbond:ALA:135>  (91) 
hbond:ALA:135    0
hbond:ALA:135    0
Name: 90, dtype: object

$$$$
PV_006152895195
     RDKit          3D

 24 25  0  0  0  0  0  0  0  0999 V2000
   12.3300   15.5450   22.0230 C   0  0  0  0  0  0  0  0  0  0  0  0
   11.5880   14.2480   22.2450 C   0  0  0  0  0  0  0  0  0  0  0  0
   10.7060   13.9460   23.2920 C   0  0  0  0  0  0  0  0  0  0  0  0
   10.0490   12.7430   23.4870 C   0  0  0  0  0  0  0  0  0  0  0  0
   10.5040   11.6480   22.8090 N   0  0  0  0  0  0  0  0  0  0  0  0
    9.6450   10.6490   23.2750 N   0  0  0  0  0  0  0  0  0  0  0  0
    9.8430    9.3300   22.7670 C   0  0  0  0  0  0  0  0  0  0  0  0
    8.7090   11.0890   24.1810 C   0  0  0  0  0  0  0  0  0  0  0  0
    7.6950   10.5000   24.8970 C   0  0  0  0  0  0  0  0  0  0  0  0
    6.9100   11.2670   25.7400 C   0  0  0  0  0  0  0  0  0  0  0  0
    7.1930   12.6170   25.8240 C   0  0  0  0  0  0  0  0  0  0  0  0
    8.1850   13.2520   25.1510 N   0  0  0  0  0  0  0  0  0  0  0  0
    8.9370   12.4590   24.3290 C   0  0  0  0  0  0  0  0  0  0  0  0
   11.8630   16.1150   21.2170 H   0  0  0  0  0  0  0  0  0  0  0  0
   13.3730   15.3730   21.7400 H   0  0  0  0  0  0  0  0  0  0  0  0
   12.3370   16.1440   22.9410 H   0  0  0  0  0  0  0  0  0  0  0  0
   11.7740   13.4670   21.5030 H   0  0  0  0  0  0  0  0  0  0  0  0
   10.5790   14.7630   23.9940 H   0  0  0  0  0  0  0  0  0  0  0  0
    8.8700    8.8510   22.7000 H   0  0  0  0  0  0  0  0  0  0  0  0
   10.2930    9.3870   21.7730 H   0  0  0  0  0  0  0  0  0  0  0  0
   10.5030    8.7930   23.4450 H   0  0  0  0  0  0  0  0  0  0  0  0
    7.5170    9.4410   24.7960 H   0  0  0  0  0  0  0  0  0  0  0  0
    6.1000   10.8230   26.3130 H   0  0  0  0  0  0  0  0  0  0  0  0
    6.5970   13.2520   26.4740 H   0  0  0  0  0  0  0  0  0  0  0  0
  1  2  1  0
  2  3  2  0
  3  4  1  0
  4  5  2  0
  5  6  1  0
  6  7  1  0
  6  8  1  0
  8  9  2  0
  9 10  1  0
 10 11  2  0
 11 12  1  0
 12 13  2  0
 13  4  1  0
 13  8  1  0
  1 14  1  0
  1 15  1  0
  1 16  1  0
  2 17  1  0
  3 18  1  0
  7 19  1  0
  7 20  1  0
  7 21  1  0
  9 22  1  0
 10 23  1  0
 11 24  1  0
A    1
 C1 
A    2
 C2 
A    3
 C3 
A    4
 C4 
A    5
 N1 
A    6
 N2 
A    7
 C5 
A    8
 C6 
A    9
 C7 
A   10
 C8 
A   11
 C9 
A   12
 N3 
A   13
 C10
A   14
 H1 
A   15
 H2 
A   16
 H3 
A   17
 H4 
A   18
 H5 
A   19
 H6 
A   20
 H7 
A   21
 H8 
A   22
 H9 
A   23
 H10
A   24
 H11
M  END
>  <ref_pdb>  (92) 
x0310_0A

>  <ref_mols>  (92) 
x0451_0A,x0528_0A

>  <original SMILES>  (92) 
C/C=C/c1nn(C)c2cccnc12

>  <rationale>  (92) 
info 

>  <intxn_cluster>  (92) 
208

>  <intxn_cluster_rank>  (92) 
781

>  <N_interactions>  (92) 
0

>  <∆∆G>  (92) 
-8.59212

>  <$/mg>  (92) 
nan

>  <comRMSD>  (92) 
0.58667

>  <N_rotatable_bonds>  (92) 
3

>  <hbond:SER:7>  (92) 
hbond:SER:7    0
hbond:SER:7    0
Name: 91, dtype: object

>  <halogenbond:SER:7>  (92) 
halogenbond:SER:7    0
halogenbond:SER:7    0
Name: 91, dtype: object

>  <hbond:GLY:8>  (92) 
hbond:GLY:8    0
hbond:GLY:8    0
Name: 91, dtype: object

>  <hydroph_interaction:ASN:19>  (92) 
hydroph_interaction:ASN:19    0
hydroph_interaction:ASN:19    0
Name: 91, dtype: object

>  <hbond:ASN:19>  (92) 
hbond:ASN:19    0
hbond:ASN:19    0
Name: 91, dtype: object

>  <halogenbond:ASN:19>  (92) 
halogenbond:ASN:19    0
halogenbond:ASN:19    0
Name: 91, dtype: object

>  <hbond:ARG:20>  (92) 
hbond:ARG:20    0
hbond:ARG:20    0
Name: 91, dtype: object

>  <hydroph_interaction:ARG:20>  (92) 
hydroph_interaction:ARG:20    0
hydroph_interaction:ARG:20    0
Name: 91, dtype: object

>  <saltbridge:ARG:20>  (92) 
saltbridge:ARG:20    0
saltbridge:ARG:20    0
Name: 91, dtype: object

>  <halogenbond:ARG:20>  (92) 
halogenbond:ARG:20    0
halogenbond:ARG:20    0
Name: 91, dtype: object

>  <pication:ARG:20>  (92) 
pication:ARG:20    0
pication:ARG:20    0
Name: 91, dtype: object

>  <hbond:HIS:21>  (92) 
hbond:HIS:21    0
hbond:HIS:21    0
Name: 91, dtype: object

>  <hydroph_interaction:HIS:21>  (92) 
hydroph_interaction:HIS:21    0
hydroph_interaction:HIS:21    0
Name: 91, dtype: object

>  <saltbridge:HIS:21>  (92) 
saltbridge:HIS:21    0
saltbridge:HIS:21    0
Name: 91, dtype: object

>  <pistack:HIS:21>  (92) 
pistack:HIS:21    0
pistack:HIS:21    0
Name: 91, dtype: object

>  <pication:HIS:21>  (92) 
pication:HIS:21    0
pication:HIS:21    0
Name: 91, dtype: object

>  <halogenbond:HIS:21>  (92) 
halogenbond:HIS:21    0
halogenbond:HIS:21    0
Name: 91, dtype: object

>  <hydroph_interaction:LEU:22>  (92) 
hydroph_interaction:LEU:22    0
hydroph_interaction:LEU:22    0
Name: 91, dtype: object

>  <hbond:LEU:22>  (92) 
hbond:LEU:22    0
hbond:LEU:22    0
Name: 91, dtype: object

>  <hydroph_interaction:TRP:28>  (92) 
hydroph_interaction:TRP:28    0
hydroph_interaction:TRP:28    0
Name: 91, dtype: object

>  <hbond:SER:36>  (92) 
hbond:SER:36    0
hbond:SER:36    0
Name: 91, dtype: object

>  <halogenbond:SER:36>  (92) 
halogenbond:SER:36    0
halogenbond:SER:36    0
Name: 91, dtype: object

>  <hbond:ARG:38>  (92) 
hbond:ARG:38    0
hbond:ARG:38    0
Name: 91, dtype: object

>  <halogenbond:ARG:38>  (92) 
halogenbond:ARG:38    0
halogenbond:ARG:38    0
Name: 91, dtype: object

>  <hbond:ASP:39>  (92) 
hbond:ASP:39    0
hbond:ASP:39    0
Name: 91, dtype: object

>  <saltbridge:ASP:39>  (92) 
saltbridge:ASP:39    0
saltbridge:ASP:39    0
Name: 91, dtype: object

>  <hydroph_interaction:ASP:39>  (92) 
hydroph_interaction:ASP:39    0
hydroph_interaction:ASP:39    0
Name: 91, dtype: object

>  <halogenbond:ASP:39>  (92) 
halogenbond:ASP:39    0
halogenbond:ASP:39    0
Name: 91, dtype: object

>  <hydroph_interaction:LEU:40>  (92) 
hydroph_interaction:LEU:40    0
hydroph_interaction:LEU:40    0
Name: 91, dtype: object

>  <hydroph_interaction:TYR:63>  (92) 
hydroph_interaction:TYR:63    0
hydroph_interaction:TYR:63    0
Name: 91, dtype: object

>  <pistack:TYR:63>  (92) 
pistack:TYR:63    0
pistack:TYR:63    0
Name: 91, dtype: object

>  <hbond:TYR:63>  (92) 
hbond:TYR:63    0
hbond:TYR:63    0
Name: 91, dtype: object

>  <hbond:TYR:64>  (92) 
hbond:TYR:64    0
hbond:TYR:64    0
Name: 91, dtype: object

>  <halogenbond:TYR:64>  (92) 
halogenbond:TYR:64    0
halogenbond:TYR:64    0
Name: 91, dtype: object

>  <hydroph_interaction:TYR:64>  (92) 
hydroph_interaction:TYR:64    0
hydroph_interaction:TYR:64    0
Name: 91, dtype: object

>  <hbond:CYS:65>  (92) 
hbond:CYS:65    0
hbond:CYS:65    0
Name: 91, dtype: object

>  <halogenbond:CYS:65>  (92) 
halogenbond:CYS:65    0
halogenbond:CYS:65    0
Name: 91, dtype: object

>  <hbond:SER:66>  (92) 
hbond:SER:66    0
hbond:SER:66    0
Name: 91, dtype: object

>  <hbond:SER:67>  (92) 
hbond:SER:67    0
hbond:SER:67    0
Name: 91, dtype: object

>  <halogenbond:SER:67>  (92) 
halogenbond:SER:67    0
halogenbond:SER:67    0
Name: 91, dtype: object

>  <hydroph_interaction:ARG:68>  (92) 
hydroph_interaction:ARG:68    0
hydroph_interaction:ARG:68    0
Name: 91, dtype: object

>  <hbond:ARG:68>  (92) 
hbond:ARG:68    0
hbond:ARG:68    0
Name: 91, dtype: object

>  <saltbridge:ARG:68>  (92) 
saltbridge:ARG:68    0
saltbridge:ARG:68    0
Name: 91, dtype: object

>  <pication:ARG:68>  (92) 
pication:ARG:68    0
pication:ARG:68    0
Name: 91, dtype: object

>  <hydroph_interaction:TYR:72>  (92) 
hydroph_interaction:TYR:72    0
hydroph_interaction:TYR:72    0
Name: 91, dtype: object

>  <hydroph_interaction:VAL:74>  (92) 
hydroph_interaction:VAL:74    0
hydroph_interaction:VAL:74    0
Name: 91, dtype: object

>  <hydroph_interaction:PHE:76>  (92) 
hydroph_interaction:PHE:76    0
hydroph_interaction:PHE:76    0
Name: 91, dtype: object

>  <hbond:SER:77>  (92) 
hbond:SER:77    0
hbond:SER:77    0
Name: 91, dtype: object

>  <hbond:SER:80>  (92) 
hbond:SER:80    0
hbond:SER:80    0
Name: 91, dtype: object

>  <hbond:LEU:81>  (92) 
hbond:LEU:81    0
hbond:LEU:81    0
Name: 91, dtype: object

>  <halogenbond:LEU:81>  (92) 
halogenbond:LEU:81    0
halogenbond:LEU:81    0
Name: 91, dtype: object

>  <hydroph_interaction:LEU:81>  (92) 
hydroph_interaction:LEU:81    0
hydroph_interaction:LEU:81    0
Name: 91, dtype: object

>  <hydroph_interaction:ILE:82>  (92) 
hydroph_interaction:ILE:82    0
hydroph_interaction:ILE:82    0
Name: 91, dtype: object

>  <hbond:ILE:82>  (92) 
hbond:ILE:82    0
hbond:ILE:82    0
Name: 91, dtype: object

>  <hydroph_interaction:PHE:83>  (92) 
hydroph_interaction:PHE:83    0
hydroph_interaction:PHE:83    0
Name: 91, dtype: object

>  <hbond:PHE:83>  (92) 
hbond:PHE:83    0
hbond:PHE:83    0
Name: 91, dtype: object

>  <halogenbond:PHE:83>  (92) 
halogenbond:PHE:83    0
halogenbond:PHE:83    0
Name: 91, dtype: object

>  <pistack:PHE:83>  (92) 
pistack:PHE:83    0
pistack:PHE:83    0
Name: 91, dtype: object

>  <hydroph_interaction:VAL:84>  (92) 
hydroph_interaction:VAL:84    0
hydroph_interaction:VAL:84    0
Name: 91, dtype: object

>  <hbond:VAL:84>  (92) 
hbond:VAL:84    0
hbond:VAL:84    0
Name: 91, dtype: object

>  <halogenbond:VAL:84>  (92) 
halogenbond:VAL:84    0
halogenbond:VAL:84    0
Name: 91, dtype: object

>  <hydroph_interaction:GLU:85>  (92) 
hydroph_interaction:GLU:85    0
hydroph_interaction:GLU:85    0
Name: 91, dtype: object

>  <hbond:GLU:85>  (92) 
hbond:GLU:85    0
hbond:GLU:85    0
Name: 91, dtype: object

>  <saltbridge:GLU:85>  (92) 
saltbridge:GLU:85    0
saltbridge:GLU:85    0
Name: 91, dtype: object

>  <halogenbond:GLU:85>  (92) 
halogenbond:GLU:85    0
halogenbond:GLU:85    0
Name: 91, dtype: object

>  <hbond:ALA:86>  (92) 
hbond:ALA:86    0
hbond:ALA:86    0
Name: 91, dtype: object

>  <halogenbond:ALA:86>  (92) 
halogenbond:ALA:86    0
halogenbond:ALA:86    0
Name: 91, dtype: object

>  <hydroph_interaction:ALA:86>  (92) 
hydroph_interaction:ALA:86    0
hydroph_interaction:ALA:86    0
Name: 91, dtype: object

>  <hbond:SER:87>  (92) 
hbond:SER:87    0
hbond:SER:87    0
Name: 91, dtype: object

>  <halogenbond:SER:87>  (92) 
halogenbond:SER:87    0
halogenbond:SER:87    0
Name: 91, dtype: object

>  <hbond:GLU:88>  (92) 
hbond:GLU:88    0
hbond:GLU:88    0
Name: 91, dtype: object

>  <hydroph_interaction:GLU:88>  (92) 
hydroph_interaction:GLU:88    0
hydroph_interaction:GLU:88    0
Name: 91, dtype: object

>  <halogenbond:GLU:88>  (92) 
halogenbond:GLU:88    0
halogenbond:GLU:88    0
Name: 91, dtype: object

>  <saltbridge:GLU:88>  (92) 
saltbridge:GLU:88    0
saltbridge:GLU:88    0
Name: 91, dtype: object

>  <hydroph_interaction:TYR:89>  (92) 
hydroph_interaction:TYR:89    0
hydroph_interaction:TYR:89    0
Name: 91, dtype: object

>  <pistack:TYR:89>  (92) 
pistack:TYR:89    0
pistack:TYR:89    0
Name: 91, dtype: object

>  <hbond:TYR:89>  (92) 
hbond:TYR:89    0
hbond:TYR:89    0
Name: 91, dtype: object

>  <halogenbond:TYR:89>  (92) 
halogenbond:TYR:89    0
halogenbond:TYR:89    0
Name: 91, dtype: object

>  <hbond:TYR:90>  (92) 
hbond:TYR:90    0
hbond:TYR:90    0
Name: 91, dtype: object

>  <hydroph_interaction:TYR:90>  (92) 
hydroph_interaction:TYR:90    0
hydroph_interaction:TYR:90    0
Name: 91, dtype: object

>  <pistack:TYR:90>  (92) 
pistack:TYR:90    0
pistack:TYR:90    0
Name: 91, dtype: object

>  <halogenbond:TYR:90>  (92) 
halogenbond:TYR:90    0
halogenbond:TYR:90    0
Name: 91, dtype: object

>  <pication:TYR:90>  (92) 
pication:TYR:90    0
pication:TYR:90    0
Name: 91, dtype: object

>  <hydroph_interaction:PRO:91>  (92) 
hydroph_interaction:PRO:91    0
hydroph_interaction:PRO:91    0
Name: 91, dtype: object

>  <halogenbond:PRO:91>  (92) 
halogenbond:PRO:91    0
halogenbond:PRO:91    0
Name: 91, dtype: object

>  <hbond:PRO:91>  (92) 
hbond:PRO:91    0
hbond:PRO:91    0
Name: 91, dtype: object

>  <hydroph_interaction:ALA:92>  (92) 
hydroph_interaction:ALA:92    0
hydroph_interaction:ALA:92    0
Name: 91, dtype: object

>  <hbond:ARG:93>  (92) 
hbond:ARG:93    0
hbond:ARG:93    0
Name: 91, dtype: object

>  <pication:ARG:93>  (92) 
pication:ARG:93    0
pication:ARG:93    0
Name: 91, dtype: object

>  <saltbridge:ARG:93>  (92) 
saltbridge:ARG:93    0
saltbridge:ARG:93    0
Name: 91, dtype: object

>  <hydroph_interaction:ARG:93>  (92) 
hydroph_interaction:ARG:93    0
hydroph_interaction:ARG:93    0
Name: 91, dtype: object

>  <halogenbond:ARG:93>  (92) 
halogenbond:ARG:93    0
halogenbond:ARG:93    0
Name: 91, dtype: object

>  <hydroph_interaction:TYR:94>  (92) 
hydroph_interaction:TYR:94    0
hydroph_interaction:TYR:94    0
Name: 91, dtype: object

>  <hbond:TYR:94>  (92) 
hbond:TYR:94    0
hbond:TYR:94    0
Name: 91, dtype: object

>  <halogenbond:GLN:95>  (92) 
halogenbond:GLN:95    0
halogenbond:GLN:95    0
Name: 91, dtype: object

>  <hbond:GLN:95>  (92) 
hbond:GLN:95    0
hbond:GLN:95    0
Name: 91, dtype: object

>  <hydroph_interaction:GLN:95>  (92) 
hydroph_interaction:GLN:95    0
hydroph_interaction:GLN:95    0
Name: 91, dtype: object

>  <hbond:SER:96>  (92) 
hbond:SER:96    0
hbond:SER:96    0
Name: 91, dtype: object

>  <hydroph_interaction:LEU:98>  (92) 
hydroph_interaction:LEU:98    0
hydroph_interaction:LEU:98    0
Name: 91, dtype: object

>  <hbond:LEU:98>  (92) 
hbond:LEU:98    0
hbond:LEU:98    0
Name: 91, dtype: object

>  <hbond:MET:99>  (92) 
hbond:MET:99    0
hbond:MET:99    0
Name: 91, dtype: object

>  <hydroph_interaction:MET:99>  (92) 
hydroph_interaction:MET:99    0
hydroph_interaction:MET:99    0
Name: 91, dtype: object

>  <halogenbond:MET:99>  (92) 
halogenbond:MET:99    0
halogenbond:MET:99    0
Name: 91, dtype: object

>  <hydroph_interaction:LEU:100>  (92) 
hydroph_interaction:LEU:100    0
hydroph_interaction:LEU:100    0
Name: 91, dtype: object

>  <hbond:LEU:100>  (92) 
hbond:LEU:100    0
hbond:LEU:100    0
Name: 91, dtype: object

>  <hbond:ALA:101>  (92) 
hbond:ALA:101    0
hbond:ALA:101    0
Name: 91, dtype: object

>  <hydroph_interaction:ALA:101>  (92) 
hydroph_interaction:ALA:101    0
hydroph_interaction:ALA:101    0
Name: 91, dtype: object

>  <hydroph_interaction:VAL:102>  (92) 
hydroph_interaction:VAL:102    0
hydroph_interaction:VAL:102    0
Name: 91, dtype: object

>  <hbond:VAL:102>  (92) 
hbond:VAL:102    0
hbond:VAL:102    0
Name: 91, dtype: object

>  <hbond:GLY:103>  (92) 
hbond:GLY:103    0
hbond:GLY:103    0
Name: 91, dtype: object

>  <halogenbond:GLY:103>  (92) 
halogenbond:GLY:103    0
halogenbond:GLY:103    0
Name: 91, dtype: object

>  <hydroph_interaction:HIS:104>  (92) 
hydroph_interaction:HIS:104    0
hydroph_interaction:HIS:104    0
Name: 91, dtype: object

>  <hbond:HIS:104>  (92) 
hbond:HIS:104    0
hbond:HIS:104    0
Name: 91, dtype: object

>  <saltbridge:HIS:104>  (92) 
saltbridge:HIS:104    0
saltbridge:HIS:104    0
Name: 91, dtype: object

>  <pication:HIS:104>  (92) 
pication:HIS:104    0
pication:HIS:104    0
Name: 91, dtype: object

>  <pistack:HIS:104>  (92) 
pistack:HIS:104    0
pistack:HIS:104    0
Name: 91, dtype: object

>  <halogenbond:HIS:104>  (92) 
halogenbond:HIS:104    0
halogenbond:HIS:104    0
Name: 91, dtype: object

>  <hbond:SER:105>  (92) 
hbond:SER:105    0
hbond:SER:105    0
Name: 91, dtype: object

>  <halogenbond:SER:105>  (92) 
halogenbond:SER:105    0
halogenbond:SER:105    0
Name: 91, dtype: object

>  <hbond:GLU:106>  (92) 
hbond:GLU:106    0
hbond:GLU:106    0
Name: 91, dtype: object

>  <hydroph_interaction:GLU:106>  (92) 
hydroph_interaction:GLU:106    0
hydroph_interaction:GLU:106    0
Name: 91, dtype: object

>  <saltbridge:GLU:106>  (92) 
saltbridge:GLU:106    0
saltbridge:GLU:106    0
Name: 91, dtype: object

>  <halogenbond:GLU:106>  (92) 
halogenbond:GLU:106    0
halogenbond:GLU:106    0
Name: 91, dtype: object

>  <hydroph_interaction:PRO:107>  (92) 
hydroph_interaction:PRO:107    0
hydroph_interaction:PRO:107    0
Name: 91, dtype: object

>  <hbond:PRO:107>  (92) 
hbond:PRO:107    0
hbond:PRO:107    0
Name: 91, dtype: object

>  <halogenbond:PRO:107>  (92) 
halogenbond:PRO:107    0
halogenbond:PRO:107    0
Name: 91, dtype: object

>  <hbond:GLY:108>  (92) 
hbond:GLY:108    0
hbond:GLY:108    0
Name: 91, dtype: object

>  <halogenbond:GLY:108>  (92) 
halogenbond:GLY:108    0
halogenbond:GLY:108    0
Name: 91, dtype: object

>  <hbond:ASP:109>  (92) 
hbond:ASP:109    0
hbond:ASP:109    0
Name: 91, dtype: object

>  <hydroph_interaction:ASP:109>  (92) 
hydroph_interaction:ASP:109    0
hydroph_interaction:ASP:109    0
Name: 91, dtype: object

>  <saltbridge:ASP:109>  (92) 
saltbridge:ASP:109    0
saltbridge:ASP:109    0
Name: 91, dtype: object

>  <hbond:CYS:110>  (92) 
hbond:CYS:110    0
hbond:CYS:110    0
Name: 91, dtype: object

>  <halogenbond:CYS:110>  (92) 
halogenbond:CYS:110    0
halogenbond:CYS:110    0
Name: 91, dtype: object

>  <hbond:GLY:111>  (92) 
hbond:GLY:111    0
hbond:GLY:111    0
Name: 91, dtype: object

>  <hbond:GLY:112>  (92) 
hbond:GLY:112    0
hbond:GLY:112    0
Name: 91, dtype: object

>  <hbond:ILE:113>  (92) 
hbond:ILE:113    0
hbond:ILE:113    0
Name: 91, dtype: object

>  <hydroph_interaction:LEU:114>  (92) 
hydroph_interaction:LEU:114    0
hydroph_interaction:LEU:114    0
Name: 91, dtype: object

>  <hbond:LEU:114>  (92) 
hbond:LEU:114    0
hbond:LEU:114    0
Name: 91, dtype: object

>  <hydroph_interaction:ILE:123>  (92) 
hydroph_interaction:ILE:123    0
hydroph_interaction:ILE:123    0
Name: 91, dtype: object

>  <hbond:ILE:123>  (92) 
hbond:ILE:123    0
hbond:ILE:123    0
Name: 91, dtype: object

>  <hydroph_interaction:VAL:124>  (92) 
hydroph_interaction:VAL:124    0
hydroph_interaction:VAL:124    0
Name: 91, dtype: object

>  <hbond:VAL:124>  (92) 
hbond:VAL:124    0
hbond:VAL:124    0
Name: 91, dtype: object

>  <halogenbond:VAL:124>  (92) 
halogenbond:VAL:124    0
halogenbond:VAL:124    0
Name: 91, dtype: object

>  <hbond:SER:125>  (92) 
hbond:SER:125    0
hbond:SER:125    0
Name: 91, dtype: object

>  <halogenbond:SER:125>  (92) 
halogenbond:SER:125    0
halogenbond:SER:125    0
Name: 91, dtype: object

>  <hydroph_interaction:THR:126>  (92) 
hydroph_interaction:THR:126    0
hydroph_interaction:THR:126    0
Name: 91, dtype: object

>  <hbond:THR:126>  (92) 
hbond:THR:126    0
hbond:THR:126    0
Name: 91, dtype: object

>  <halogenbond:THR:126>  (92) 
halogenbond:THR:126    0
halogenbond:THR:126    0
Name: 91, dtype: object

>  <hbond:GLY:127>  (92) 
hbond:GLY:127    0
hbond:GLY:127    0
Name: 91, dtype: object

>  <halogenbond:GLY:127>  (92) 
halogenbond:GLY:127    0
halogenbond:GLY:127    0
Name: 91, dtype: object

>  <hydroph_interaction:GLY:127>  (92) 
hydroph_interaction:GLY:127    0
hydroph_interaction:GLY:127    0
Name: 91, dtype: object

>  <hbond:GLY:128>  (92) 
hbond:GLY:128    0
hbond:GLY:128    0
Name: 91, dtype: object

>  <halogenbond:GLY:128>  (92) 
halogenbond:GLY:128    0
halogenbond:GLY:128    0
Name: 91, dtype: object

>  <hydroph_interaction:GLY:128>  (92) 
hydroph_interaction:GLY:128    0
hydroph_interaction:GLY:128    0
Name: 91, dtype: object

>  <hbond:ASN:129>  (92) 
hbond:ASN:129    0
hbond:ASN:129    0
Name: 91, dtype: object

>  <hydroph_interaction:ASN:129>  (92) 
hydroph_interaction:ASN:129    0
hydroph_interaction:ASN:129    0
Name: 91, dtype: object

>  <halogenbond:ASN:129>  (92) 
halogenbond:ASN:129    0
halogenbond:ASN:129    0
Name: 91, dtype: object

>  <hbond:GLY:130>  (92) 
hbond:GLY:130    0
hbond:GLY:130    0
Name: 91, dtype: object

>  <hydroph_interaction:LEU:131>  (92) 
hydroph_interaction:LEU:131    0
hydroph_interaction:LEU:131    0
Name: 91, dtype: object

>  <hbond:LEU:131>  (92) 
hbond:LEU:131    0
hbond:LEU:131    0
Name: 91, dtype: object

>  <halogenbond:LEU:131>  (92) 
halogenbond:LEU:131    0
halogenbond:LEU:131    0
Name: 91, dtype: object

>  <hydroph_interaction:VAL:132>  (92) 
hydroph_interaction:VAL:132    0
hydroph_interaction:VAL:132    0
Name: 91, dtype: object

>  <hbond:VAL:132>  (92) 
hbond:VAL:132    0
hbond:VAL:132    0
Name: 91, dtype: object

>  <hbond:GLY:133>  (92) 
hbond:GLY:133    0
hbond:GLY:133    0
Name: 91, dtype: object

>  <halogenbond:GLY:133>  (92) 
halogenbond:GLY:133    0
halogenbond:GLY:133    0
Name: 91, dtype: object

>  <hydroph_interaction:PHE:134>  (92) 
hydroph_interaction:PHE:134    0
hydroph_interaction:PHE:134    0
Name: 91, dtype: object

>  <hbond:PHE:134>  (92) 
hbond:PHE:134    0
hbond:PHE:134    0
Name: 91, dtype: object

>  <pistack:PHE:134>  (92) 
pistack:PHE:134    0
pistack:PHE:134    0
Name: 91, dtype: object

>  <pication:PHE:134>  (92) 
pication:PHE:134    0
pication:PHE:134    0
Name: 91, dtype: object

>  <hydroph_interaction:ALA:135>  (92) 
hydroph_interaction:ALA:135    0
hydroph_interaction:ALA:135    0
Name: 91, dtype: object

>  <hbond:ALA:135>  (92) 
hbond:ALA:135    0
hbond:ALA:135    0
Name: 91, dtype: object

$$$$
PV_006757995231
     RDKit          3D

 29 30  0  0  0  0  0  0  0  0999 V2000
   12.4040   14.5250   21.7720 C   0  0  0  0  0  0  0  0  0  0  0  0
   11.5260   13.9890   22.7880 N   0  0  0  0  0  0  0  0  0  0  0  0
   11.8150   14.1860   24.0970 C   0  0  0  0  0  0  0  0  0  0  0  0
   10.2800   13.4790   22.3890 C   0  0  0  0  0  0  0  0  0  0  0  0
    9.6070   14.0030   21.5070 O   0  0  0  0  0  0  0  0  0  0  0  0
    9.7590   12.3450   23.0180 C   0  0  0  0  0  0  0  0  0  0  0  0
    8.7940   12.4920   23.9820 C   0  0  0  0  0  0  0  0  0  0  0  0
    8.2180   13.6460   24.4740 N   0  0  0  0  0  0  0  0  0  0  0  0
    7.2820   13.3770   25.4390 C   0  0  0  0  0  0  0  0  0  0  0  0
    6.5740   14.5560   26.0680 C   0  0  0  0  0  0  0  0  0  0  0  0
    6.8610   15.7390   25.9830 O   0  0  0  0  0  0  0  0  0  0  0  0
    5.5050   14.1630   26.7940 O   0  0  0  0  0  0  0  0  0  0  0  0
    7.2700   11.9850   25.5560 C   0  0  0  0  0  0  0  0  0  0  0  0
    8.2210   11.4400   24.6390 C   0  0  0  0  0  0  0  0  0  0  0  0
    8.5770   10.1360   24.3770 C   0  0  0  0  0  0  0  0  0  0  0  0
    9.5590    9.9230   23.4100 C   0  0  0  0  0  0  0  0  0  0  0  0
   10.1320   11.0060   22.7470 C   0  0  0  0  0  0  0  0  0  0  0  0
   13.3740   14.7280   22.2290 H   0  0  0  0  0  0  0  0  0  0  0  0
   11.9790   15.4520   21.3740 H   0  0  0  0  0  0  0  0  0  0  0  0
   12.5040   13.7870   20.9730 H   0  0  0  0  0  0  0  0  0  0  0  0
   12.7430   13.8040   24.4940 H   0  0  0  0  0  0  0  0  0  0  0  0
   11.0130   13.7620   24.7080 H   0  0  0  0  0  0  0  0  0  0  0  0
   11.8110   15.2700   24.2600 H   0  0  0  0  0  0  0  0  0  0  0  0
    8.4630   14.5780   24.1550 H   0  0  0  0  0  0  0  0  0  0  0  0
    4.7830   14.1620   26.1300 H   0  0  0  0  0  0  0  0  0  0  0  0
    6.7010   11.2870   26.1810 H   0  0  0  0  0  0  0  0  0  0  0  0
    8.1160    9.3170   24.8980 H   0  0  0  0  0  0  0  0  0  0  0  0
    9.8790    8.9200   23.1660 H   0  0  0  0  0  0  0  0  0  0  0  0
   10.8820   10.8040   22.0020 H   0  0  0  0  0  0  0  0  0  0  0  0
  1  2  1  0
  2  3  1  0
  2  4  1  0
  4  5  2  0
  4  6  1  0
  6  7  2  0
  7  8  1  0
  8  9  1  0
  9 10  1  0
 10 11  2  0
 10 12  1  0
  9 13  2  0
 13 14  1  0
 14 15  2  0
 15 16  1  0
 16 17  2  0
 17  6  1  0
 14  7  1  0
  1 18  1  0
  1 19  1  0
  1 20  1  0
  3 21  1  0
  3 22  1  0
  3 23  1  0
  8 24  1  0
 12 25  1  0
 13 26  1  0
 15 27  1  0
 16 28  1  0
 17 29  1  0
A    1
 C1 
A    2
 N1 
A    3
 C2 
A    4
 C3 
A    5
 O1 
A    6
 C4 
A    7
 C5 
A    8
 N2 
A    9
 C6 
A   10
 C7 
A   11
 O2 
A   12
 O3 
A   13
 C8 
A   14
 C9 
A   15
 C10
A   16
 C11
A   17
 C12
A   18
 H1 
A   19
 H2 
A   20
 H3 
A   21
 H4 
A   22
 H5 
A   23
 H6 
A   24
 H7 
A   25
 H8 
A   26
 H9 
A   27
 H10
A   28
 H11
A   29
 H12
M  END
>  <ref_pdb>  (93) 
x0310_0A

>  <ref_mols>  (93) 
x0554_0A,x0416_0A,x0446_0A

>  <original SMILES>  (93) 
CN(C)C(=O)c1cccc2cc(C(=O)O)[nH]c12

>  <rationale>  (93) 
info hbond:S87; 

>  <intxn_cluster>  (93) 
208

>  <intxn_cluster_rank>  (93) 
920

>  <N_interactions>  (93) 
1

>  <∆∆G>  (93) 
-9.601916

>  <$/mg>  (93) 
nan

>  <comRMSD>  (93) 
0.87987

>  <N_rotatable_bonds>  (93) 
4

>  <hbond:SER:7>  (93) 
hbond:SER:7    0
hbond:SER:7    0
Name: 92, dtype: object

>  <halogenbond:SER:7>  (93) 
halogenbond:SER:7    0
halogenbond:SER:7    0
Name: 92, dtype: object

>  <hbond:GLY:8>  (93) 
hbond:GLY:8    0
hbond:GLY:8    0
Name: 92, dtype: object

>  <hydroph_interaction:ASN:19>  (93) 
hydroph_interaction:ASN:19    0
hydroph_interaction:ASN:19    0
Name: 92, dtype: object

>  <hbond:ASN:19>  (93) 
hbond:ASN:19    0
hbond:ASN:19    0
Name: 92, dtype: object

>  <halogenbond:ASN:19>  (93) 
halogenbond:ASN:19    0
halogenbond:ASN:19    0
Name: 92, dtype: object

>  <hbond:ARG:20>  (93) 
hbond:ARG:20    0
hbond:ARG:20    0
Name: 92, dtype: object

>  <hydroph_interaction:ARG:20>  (93) 
hydroph_interaction:ARG:20    0
hydroph_interaction:ARG:20    0
Name: 92, dtype: object

>  <saltbridge:ARG:20>  (93) 
saltbridge:ARG:20    0
saltbridge:ARG:20    0
Name: 92, dtype: object

>  <halogenbond:ARG:20>  (93) 
halogenbond:ARG:20    0
halogenbond:ARG:20    0
Name: 92, dtype: object

>  <pication:ARG:20>  (93) 
pication:ARG:20    0
pication:ARG:20    0
Name: 92, dtype: object

>  <hbond:HIS:21>  (93) 
hbond:HIS:21    0
hbond:HIS:21    0
Name: 92, dtype: object

>  <hydroph_interaction:HIS:21>  (93) 
hydroph_interaction:HIS:21    0
hydroph_interaction:HIS:21    0
Name: 92, dtype: object

>  <saltbridge:HIS:21>  (93) 
saltbridge:HIS:21    0
saltbridge:HIS:21    0
Name: 92, dtype: object

>  <pistack:HIS:21>  (93) 
pistack:HIS:21    0
pistack:HIS:21    0
Name: 92, dtype: object

>  <pication:HIS:21>  (93) 
pication:HIS:21    0
pication:HIS:21    0
Name: 92, dtype: object

>  <halogenbond:HIS:21>  (93) 
halogenbond:HIS:21    0
halogenbond:HIS:21    0
Name: 92, dtype: object

>  <hydroph_interaction:LEU:22>  (93) 
hydroph_interaction:LEU:22    0
hydroph_interaction:LEU:22    0
Name: 92, dtype: object

>  <hbond:LEU:22>  (93) 
hbond:LEU:22    0
hbond:LEU:22    0
Name: 92, dtype: object

>  <hydroph_interaction:TRP:28>  (93) 
hydroph_interaction:TRP:28    0
hydroph_interaction:TRP:28    0
Name: 92, dtype: object

>  <hbond:SER:36>  (93) 
hbond:SER:36    0
hbond:SER:36    0
Name: 92, dtype: object

>  <halogenbond:SER:36>  (93) 
halogenbond:SER:36    0
halogenbond:SER:36    0
Name: 92, dtype: object

>  <hbond:ARG:38>  (93) 
hbond:ARG:38    0
hbond:ARG:38    0
Name: 92, dtype: object

>  <halogenbond:ARG:38>  (93) 
halogenbond:ARG:38    0
halogenbond:ARG:38    0
Name: 92, dtype: object

>  <hbond:ASP:39>  (93) 
hbond:ASP:39    0
hbond:ASP:39    0
Name: 92, dtype: object

>  <saltbridge:ASP:39>  (93) 
saltbridge:ASP:39    0
saltbridge:ASP:39    0
Name: 92, dtype: object

>  <hydroph_interaction:ASP:39>  (93) 
hydroph_interaction:ASP:39    0
hydroph_interaction:ASP:39    0
Name: 92, dtype: object

>  <halogenbond:ASP:39>  (93) 
halogenbond:ASP:39    0
halogenbond:ASP:39    0
Name: 92, dtype: object

>  <hydroph_interaction:LEU:40>  (93) 
hydroph_interaction:LEU:40    0
hydroph_interaction:LEU:40    0
Name: 92, dtype: object

>  <hydroph_interaction:TYR:63>  (93) 
hydroph_interaction:TYR:63    0
hydroph_interaction:TYR:63    0
Name: 92, dtype: object

>  <pistack:TYR:63>  (93) 
pistack:TYR:63    0
pistack:TYR:63    0
Name: 92, dtype: object

>  <hbond:TYR:63>  (93) 
hbond:TYR:63    0
hbond:TYR:63    0
Name: 92, dtype: object

>  <hbond:TYR:64>  (93) 
hbond:TYR:64    0
hbond:TYR:64    0
Name: 92, dtype: object

>  <halogenbond:TYR:64>  (93) 
halogenbond:TYR:64    0
halogenbond:TYR:64    0
Name: 92, dtype: object

>  <hydroph_interaction:TYR:64>  (93) 
hydroph_interaction:TYR:64    0
hydroph_interaction:TYR:64    0
Name: 92, dtype: object

>  <hbond:CYS:65>  (93) 
hbond:CYS:65    0
hbond:CYS:65    0
Name: 92, dtype: object

>  <halogenbond:CYS:65>  (93) 
halogenbond:CYS:65    0
halogenbond:CYS:65    0
Name: 92, dtype: object

>  <hbond:SER:66>  (93) 
hbond:SER:66    0
hbond:SER:66    0
Name: 92, dtype: object

>  <hbond:SER:67>  (93) 
hbond:SER:67    0
hbond:SER:67    0
Name: 92, dtype: object

>  <halogenbond:SER:67>  (93) 
halogenbond:SER:67    0
halogenbond:SER:67    0
Name: 92, dtype: object

>  <hydroph_interaction:ARG:68>  (93) 
hydroph_interaction:ARG:68    0
hydroph_interaction:ARG:68    0
Name: 92, dtype: object

>  <hbond:ARG:68>  (93) 
hbond:ARG:68    0
hbond:ARG:68    0
Name: 92, dtype: object

>  <saltbridge:ARG:68>  (93) 
saltbridge:ARG:68    0
saltbridge:ARG:68    0
Name: 92, dtype: object

>  <pication:ARG:68>  (93) 
pication:ARG:68    0
pication:ARG:68    0
Name: 92, dtype: object

>  <hydroph_interaction:TYR:72>  (93) 
hydroph_interaction:TYR:72    0
hydroph_interaction:TYR:72    0
Name: 92, dtype: object

>  <hydroph_interaction:VAL:74>  (93) 
hydroph_interaction:VAL:74    0
hydroph_interaction:VAL:74    0
Name: 92, dtype: object

>  <hydroph_interaction:PHE:76>  (93) 
hydroph_interaction:PHE:76    0
hydroph_interaction:PHE:76    0
Name: 92, dtype: object

>  <hbond:SER:77>  (93) 
hbond:SER:77    0
hbond:SER:77    0
Name: 92, dtype: object

>  <hbond:SER:80>  (93) 
hbond:SER:80    0
hbond:SER:80    0
Name: 92, dtype: object

>  <hbond:LEU:81>  (93) 
hbond:LEU:81    0
hbond:LEU:81    0
Name: 92, dtype: object

>  <halogenbond:LEU:81>  (93) 
halogenbond:LEU:81    0
halogenbond:LEU:81    0
Name: 92, dtype: object

>  <hydroph_interaction:LEU:81>  (93) 
hydroph_interaction:LEU:81    0
hydroph_interaction:LEU:81    0
Name: 92, dtype: object

>  <hydroph_interaction:ILE:82>  (93) 
hydroph_interaction:ILE:82    0
hydroph_interaction:ILE:82    0
Name: 92, dtype: object

>  <hbond:ILE:82>  (93) 
hbond:ILE:82    0
hbond:ILE:82    0
Name: 92, dtype: object

>  <hydroph_interaction:PHE:83>  (93) 
hydroph_interaction:PHE:83    0
hydroph_interaction:PHE:83    0
Name: 92, dtype: object

>  <hbond:PHE:83>  (93) 
hbond:PHE:83    0
hbond:PHE:83    0
Name: 92, dtype: object

>  <halogenbond:PHE:83>  (93) 
halogenbond:PHE:83    0
halogenbond:PHE:83    0
Name: 92, dtype: object

>  <pistack:PHE:83>  (93) 
pistack:PHE:83    0
pistack:PHE:83    0
Name: 92, dtype: object

>  <hydroph_interaction:VAL:84>  (93) 
hydroph_interaction:VAL:84    0
hydroph_interaction:VAL:84    0
Name: 92, dtype: object

>  <hbond:VAL:84>  (93) 
hbond:VAL:84    0
hbond:VAL:84    0
Name: 92, dtype: object

>  <halogenbond:VAL:84>  (93) 
halogenbond:VAL:84    0
halogenbond:VAL:84    0
Name: 92, dtype: object

>  <hydroph_interaction:GLU:85>  (93) 
hydroph_interaction:GLU:85    0
hydroph_interaction:GLU:85    0
Name: 92, dtype: object

>  <hbond:GLU:85>  (93) 
hbond:GLU:85    0
hbond:GLU:85    0
Name: 92, dtype: object

>  <saltbridge:GLU:85>  (93) 
saltbridge:GLU:85    0
saltbridge:GLU:85    0
Name: 92, dtype: object

>  <halogenbond:GLU:85>  (93) 
halogenbond:GLU:85    0
halogenbond:GLU:85    0
Name: 92, dtype: object

>  <hbond:ALA:86>  (93) 
hbond:ALA:86    0
hbond:ALA:86    0
Name: 92, dtype: object

>  <halogenbond:ALA:86>  (93) 
halogenbond:ALA:86    0
halogenbond:ALA:86    0
Name: 92, dtype: object

>  <hydroph_interaction:ALA:86>  (93) 
hydroph_interaction:ALA:86    0
hydroph_interaction:ALA:86    0
Name: 92, dtype: object

>  <hbond:SER:87>  (93) 
hbond:SER:87    1
hbond:SER:87    1
Name: 92, dtype: object

>  <halogenbond:SER:87>  (93) 
halogenbond:SER:87    0
halogenbond:SER:87    0
Name: 92, dtype: object

>  <hbond:GLU:88>  (93) 
hbond:GLU:88    0
hbond:GLU:88    0
Name: 92, dtype: object

>  <hydroph_interaction:GLU:88>  (93) 
hydroph_interaction:GLU:88    0
hydroph_interaction:GLU:88    0
Name: 92, dtype: object

>  <halogenbond:GLU:88>  (93) 
halogenbond:GLU:88    0
halogenbond:GLU:88    0
Name: 92, dtype: object

>  <saltbridge:GLU:88>  (93) 
saltbridge:GLU:88    0
saltbridge:GLU:88    0
Name: 92, dtype: object

>  <hydroph_interaction:TYR:89>  (93) 
hydroph_interaction:TYR:89    0
hydroph_interaction:TYR:89    0
Name: 92, dtype: object

>  <pistack:TYR:89>  (93) 
pistack:TYR:89    0
pistack:TYR:89    0
Name: 92, dtype: object

>  <hbond:TYR:89>  (93) 
hbond:TYR:89    0
hbond:TYR:89    0
Name: 92, dtype: object

>  <halogenbond:TYR:89>  (93) 
halogenbond:TYR:89    0
halogenbond:TYR:89    0
Name: 92, dtype: object

>  <hbond:TYR:90>  (93) 
hbond:TYR:90    0
hbond:TYR:90    0
Name: 92, dtype: object

>  <hydroph_interaction:TYR:90>  (93) 
hydroph_interaction:TYR:90    0
hydroph_interaction:TYR:90    0
Name: 92, dtype: object

>  <pistack:TYR:90>  (93) 
pistack:TYR:90    0
pistack:TYR:90    0
Name: 92, dtype: object

>  <halogenbond:TYR:90>  (93) 
halogenbond:TYR:90    0
halogenbond:TYR:90    0
Name: 92, dtype: object

>  <pication:TYR:90>  (93) 
pication:TYR:90    0
pication:TYR:90    0
Name: 92, dtype: object

>  <hydroph_interaction:PRO:91>  (93) 
hydroph_interaction:PRO:91    0
hydroph_interaction:PRO:91    0
Name: 92, dtype: object

>  <halogenbond:PRO:91>  (93) 
halogenbond:PRO:91    0
halogenbond:PRO:91    0
Name: 92, dtype: object

>  <hbond:PRO:91>  (93) 
hbond:PRO:91    0
hbond:PRO:91    0
Name: 92, dtype: object

>  <hydroph_interaction:ALA:92>  (93) 
hydroph_interaction:ALA:92    0
hydroph_interaction:ALA:92    0
Name: 92, dtype: object

>  <hbond:ARG:93>  (93) 
hbond:ARG:93    0
hbond:ARG:93    0
Name: 92, dtype: object

>  <pication:ARG:93>  (93) 
pication:ARG:93    0
pication:ARG:93    0
Name: 92, dtype: object

>  <saltbridge:ARG:93>  (93) 
saltbridge:ARG:93    0
saltbridge:ARG:93    0
Name: 92, dtype: object

>  <hydroph_interaction:ARG:93>  (93) 
hydroph_interaction:ARG:93    0
hydroph_interaction:ARG:93    0
Name: 92, dtype: object

>  <halogenbond:ARG:93>  (93) 
halogenbond:ARG:93    0
halogenbond:ARG:93    0
Name: 92, dtype: object

>  <hydroph_interaction:TYR:94>  (93) 
hydroph_interaction:TYR:94    0
hydroph_interaction:TYR:94    0
Name: 92, dtype: object

>  <hbond:TYR:94>  (93) 
hbond:TYR:94    0
hbond:TYR:94    0
Name: 92, dtype: object

>  <halogenbond:GLN:95>  (93) 
halogenbond:GLN:95    0
halogenbond:GLN:95    0
Name: 92, dtype: object

>  <hbond:GLN:95>  (93) 
hbond:GLN:95    0
hbond:GLN:95    0
Name: 92, dtype: object

>  <hydroph_interaction:GLN:95>  (93) 
hydroph_interaction:GLN:95    0
hydroph_interaction:GLN:95    0
Name: 92, dtype: object

>  <hbond:SER:96>  (93) 
hbond:SER:96    0
hbond:SER:96    0
Name: 92, dtype: object

>  <hydroph_interaction:LEU:98>  (93) 
hydroph_interaction:LEU:98    0
hydroph_interaction:LEU:98    0
Name: 92, dtype: object

>  <hbond:LEU:98>  (93) 
hbond:LEU:98    0
hbond:LEU:98    0
Name: 92, dtype: object

>  <hbond:MET:99>  (93) 
hbond:MET:99    0
hbond:MET:99    0
Name: 92, dtype: object

>  <hydroph_interaction:MET:99>  (93) 
hydroph_interaction:MET:99    0
hydroph_interaction:MET:99    0
Name: 92, dtype: object

>  <halogenbond:MET:99>  (93) 
halogenbond:MET:99    0
halogenbond:MET:99    0
Name: 92, dtype: object

>  <hydroph_interaction:LEU:100>  (93) 
hydroph_interaction:LEU:100    0
hydroph_interaction:LEU:100    0
Name: 92, dtype: object

>  <hbond:LEU:100>  (93) 
hbond:LEU:100    0
hbond:LEU:100    0
Name: 92, dtype: object

>  <hbond:ALA:101>  (93) 
hbond:ALA:101    0
hbond:ALA:101    0
Name: 92, dtype: object

>  <hydroph_interaction:ALA:101>  (93) 
hydroph_interaction:ALA:101    0
hydroph_interaction:ALA:101    0
Name: 92, dtype: object

>  <hydroph_interaction:VAL:102>  (93) 
hydroph_interaction:VAL:102    0
hydroph_interaction:VAL:102    0
Name: 92, dtype: object

>  <hbond:VAL:102>  (93) 
hbond:VAL:102    0
hbond:VAL:102    0
Name: 92, dtype: object

>  <hbond:GLY:103>  (93) 
hbond:GLY:103    0
hbond:GLY:103    0
Name: 92, dtype: object

>  <halogenbond:GLY:103>  (93) 
halogenbond:GLY:103    0
halogenbond:GLY:103    0
Name: 92, dtype: object

>  <hydroph_interaction:HIS:104>  (93) 
hydroph_interaction:HIS:104    0
hydroph_interaction:HIS:104    0
Name: 92, dtype: object

>  <hbond:HIS:104>  (93) 
hbond:HIS:104    0
hbond:HIS:104    0
Name: 92, dtype: object

>  <saltbridge:HIS:104>  (93) 
saltbridge:HIS:104    0
saltbridge:HIS:104    0
Name: 92, dtype: object

>  <pication:HIS:104>  (93) 
pication:HIS:104    0
pication:HIS:104    0
Name: 92, dtype: object

>  <pistack:HIS:104>  (93) 
pistack:HIS:104    0
pistack:HIS:104    0
Name: 92, dtype: object

>  <halogenbond:HIS:104>  (93) 
halogenbond:HIS:104    0
halogenbond:HIS:104    0
Name: 92, dtype: object

>  <hbond:SER:105>  (93) 
hbond:SER:105    0
hbond:SER:105    0
Name: 92, dtype: object

>  <halogenbond:SER:105>  (93) 
halogenbond:SER:105    0
halogenbond:SER:105    0
Name: 92, dtype: object

>  <hbond:GLU:106>  (93) 
hbond:GLU:106    0
hbond:GLU:106    0
Name: 92, dtype: object

>  <hydroph_interaction:GLU:106>  (93) 
hydroph_interaction:GLU:106    0
hydroph_interaction:GLU:106    0
Name: 92, dtype: object

>  <saltbridge:GLU:106>  (93) 
saltbridge:GLU:106    0
saltbridge:GLU:106    0
Name: 92, dtype: object

>  <halogenbond:GLU:106>  (93) 
halogenbond:GLU:106    0
halogenbond:GLU:106    0
Name: 92, dtype: object

>  <hydroph_interaction:PRO:107>  (93) 
hydroph_interaction:PRO:107    0
hydroph_interaction:PRO:107    0
Name: 92, dtype: object

>  <hbond:PRO:107>  (93) 
hbond:PRO:107    0
hbond:PRO:107    0
Name: 92, dtype: object

>  <halogenbond:PRO:107>  (93) 
halogenbond:PRO:107    0
halogenbond:PRO:107    0
Name: 92, dtype: object

>  <hbond:GLY:108>  (93) 
hbond:GLY:108    0
hbond:GLY:108    0
Name: 92, dtype: object

>  <halogenbond:GLY:108>  (93) 
halogenbond:GLY:108    0
halogenbond:GLY:108    0
Name: 92, dtype: object

>  <hbond:ASP:109>  (93) 
hbond:ASP:109    0
hbond:ASP:109    0
Name: 92, dtype: object

>  <hydroph_interaction:ASP:109>  (93) 
hydroph_interaction:ASP:109    0
hydroph_interaction:ASP:109    0
Name: 92, dtype: object

>  <saltbridge:ASP:109>  (93) 
saltbridge:ASP:109    0
saltbridge:ASP:109    0
Name: 92, dtype: object

>  <hbond:CYS:110>  (93) 
hbond:CYS:110    0
hbond:CYS:110    0
Name: 92, dtype: object

>  <halogenbond:CYS:110>  (93) 
halogenbond:CYS:110    0
halogenbond:CYS:110    0
Name: 92, dtype: object

>  <hbond:GLY:111>  (93) 
hbond:GLY:111    0
hbond:GLY:111    0
Name: 92, dtype: object

>  <hbond:GLY:112>  (93) 
hbond:GLY:112    0
hbond:GLY:112    0
Name: 92, dtype: object

>  <hbond:ILE:113>  (93) 
hbond:ILE:113    0
hbond:ILE:113    0
Name: 92, dtype: object

>  <hydroph_interaction:LEU:114>  (93) 
hydroph_interaction:LEU:114    0
hydroph_interaction:LEU:114    0
Name: 92, dtype: object

>  <hbond:LEU:114>  (93) 
hbond:LEU:114    0
hbond:LEU:114    0
Name: 92, dtype: object

>  <hydroph_interaction:ILE:123>  (93) 
hydroph_interaction:ILE:123    0
hydroph_interaction:ILE:123    0
Name: 92, dtype: object

>  <hbond:ILE:123>  (93) 
hbond:ILE:123    0
hbond:ILE:123    0
Name: 92, dtype: object

>  <hydroph_interaction:VAL:124>  (93) 
hydroph_interaction:VAL:124    0
hydroph_interaction:VAL:124    0
Name: 92, dtype: object

>  <hbond:VAL:124>  (93) 
hbond:VAL:124    0
hbond:VAL:124    0
Name: 92, dtype: object

>  <halogenbond:VAL:124>  (93) 
halogenbond:VAL:124    0
halogenbond:VAL:124    0
Name: 92, dtype: object

>  <hbond:SER:125>  (93) 
hbond:SER:125    0
hbond:SER:125    0
Name: 92, dtype: object

>  <halogenbond:SER:125>  (93) 
halogenbond:SER:125    0
halogenbond:SER:125    0
Name: 92, dtype: object

>  <hydroph_interaction:THR:126>  (93) 
hydroph_interaction:THR:126    0
hydroph_interaction:THR:126    0
Name: 92, dtype: object

>  <hbond:THR:126>  (93) 
hbond:THR:126    0
hbond:THR:126    0
Name: 92, dtype: object

>  <halogenbond:THR:126>  (93) 
halogenbond:THR:126    0
halogenbond:THR:126    0
Name: 92, dtype: object

>  <hbond:GLY:127>  (93) 
hbond:GLY:127    0
hbond:GLY:127    0
Name: 92, dtype: object

>  <halogenbond:GLY:127>  (93) 
halogenbond:GLY:127    0
halogenbond:GLY:127    0
Name: 92, dtype: object

>  <hydroph_interaction:GLY:127>  (93) 
hydroph_interaction:GLY:127    0
hydroph_interaction:GLY:127    0
Name: 92, dtype: object

>  <hbond:GLY:128>  (93) 
hbond:GLY:128    0
hbond:GLY:128    0
Name: 92, dtype: object

>  <halogenbond:GLY:128>  (93) 
halogenbond:GLY:128    0
halogenbond:GLY:128    0
Name: 92, dtype: object

>  <hydroph_interaction:GLY:128>  (93) 
hydroph_interaction:GLY:128    0
hydroph_interaction:GLY:128    0
Name: 92, dtype: object

>  <hbond:ASN:129>  (93) 
hbond:ASN:129    0
hbond:ASN:129    0
Name: 92, dtype: object

>  <hydroph_interaction:ASN:129>  (93) 
hydroph_interaction:ASN:129    0
hydroph_interaction:ASN:129    0
Name: 92, dtype: object

>  <halogenbond:ASN:129>  (93) 
halogenbond:ASN:129    0
halogenbond:ASN:129    0
Name: 92, dtype: object

>  <hbond:GLY:130>  (93) 
hbond:GLY:130    0
hbond:GLY:130    0
Name: 92, dtype: object

>  <hydroph_interaction:LEU:131>  (93) 
hydroph_interaction:LEU:131    0
hydroph_interaction:LEU:131    0
Name: 92, dtype: object

>  <hbond:LEU:131>  (93) 
hbond:LEU:131    0
hbond:LEU:131    0
Name: 92, dtype: object

>  <halogenbond:LEU:131>  (93) 
halogenbond:LEU:131    0
halogenbond:LEU:131    0
Name: 92, dtype: object

>  <hydroph_interaction:VAL:132>  (93) 
hydroph_interaction:VAL:132    0
hydroph_interaction:VAL:132    0
Name: 92, dtype: object

>  <hbond:VAL:132>  (93) 
hbond:VAL:132    0
hbond:VAL:132    0
Name: 92, dtype: object

>  <hbond:GLY:133>  (93) 
hbond:GLY:133    0
hbond:GLY:133    0
Name: 92, dtype: object

>  <halogenbond:GLY:133>  (93) 
halogenbond:GLY:133    0
halogenbond:GLY:133    0
Name: 92, dtype: object

>  <hydroph_interaction:PHE:134>  (93) 
hydroph_interaction:PHE:134    0
hydroph_interaction:PHE:134    0
Name: 92, dtype: object

>  <hbond:PHE:134>  (93) 
hbond:PHE:134    0
hbond:PHE:134    0
Name: 92, dtype: object

>  <pistack:PHE:134>  (93) 
pistack:PHE:134    0
pistack:PHE:134    0
Name: 92, dtype: object

>  <pication:PHE:134>  (93) 
pication:PHE:134    0
pication:PHE:134    0
Name: 92, dtype: object

>  <hydroph_interaction:ALA:135>  (93) 
hydroph_interaction:ALA:135    0
hydroph_interaction:ALA:135    0
Name: 92, dtype: object

>  <hbond:ALA:135>  (93) 
hbond:ALA:135    0
hbond:ALA:135    0
Name: 92, dtype: object

$$$$
Z68248136
     RDKit          3D

 33 34  0  0  0  0  0  0  0  0999 V2000
   10.3140    9.3120   22.4440 C   0  0  0  0  0  0  0  0  0  0  0  0
    9.7370   10.2370   23.1950 C   0  0  0  0  0  0  0  0  0  0  0  0
    8.5940    9.9460   24.1050 C   0  0  0  0  0  0  0  0  0  0  0  0
    8.0010   10.9180   24.8780 C   0  0  0  0  0  0  0  0  0  0  0  0
    8.5040   12.1920   24.8100 C   0  0  0  0  0  0  0  0  0  0  0  0
    7.8420   13.0380   25.6280 N   0  0  0  0  0  0  0  0  0  0  0  0
    8.3550   14.3800   25.6460 C   0  0  0  0  0  0  0  0  0  0  0  0
    7.6500   15.3600   26.5720 C   0  0  0  0  0  0  0  0  0  0  0  0
    9.4160   14.7670   24.8960 C   0  0  0  0  0  0  0  0  0  0  0  0
   10.0640   13.8490   24.0080 C   0  0  0  0  0  0  0  0  0  0  0  0
   11.2670   14.2530   23.1170 C   0  0  0  0  0  0  0  0  0  0  0  0
   12.3330   13.7380   23.4150 O   0  0  0  0  0  0  0  0  0  0  0  0
   11.1800   15.1600   22.0490 N   0  0  0  0  0  0  0  0  0  0  0  0
   10.1860   14.9790   20.9920 C   0  0  0  0  0  0  0  0  0  0  0  0
   12.3110   16.0030   21.6920 C   0  0  0  0  0  0  0  0  0  0  0  0
    9.6010   12.5390   23.9770 C   0  0  0  0  0  0  0  0  0  0  0  0
   10.1920   11.5470   23.1640 C   0  0  0  0  0  0  0  0  0  0  0  0
    9.6620    8.6300   21.8990 H   0  0  0  0  0  0  0  0  0  0  0  0
   11.0430    8.6690   22.9480 H   0  0  0  0  0  0  0  0  0  0  0  0
   10.8590    9.8520   21.6810 H   0  0  0  0  0  0  0  0  0  0  0  0
    8.2080    8.9290   24.1600 H   0  0  0  0  0  0  0  0  0  0  0  0
    7.1640   10.7090   25.5360 H   0  0  0  0  0  0  0  0  0  0  0  0
    8.2860   16.1290   26.9970 H   0  0  0  0  0  0  0  0  0  0  0  0
    6.8080   15.8970   26.1320 H   0  0  0  0  0  0  0  0  0  0  0  0
    7.2400   14.7900   27.4100 H   0  0  0  0  0  0  0  0  0  0  0  0
    9.7350   15.7670   25.0040 H   0  0  0  0  0  0  0  0  0  0  0  0
   10.5470   14.3220   20.1950 H   0  0  0  0  0  0  0  0  0  0  0  0
    9.2820   14.5330   21.4210 H   0  0  0  0  0  0  0  0  0  0  0  0
    9.9440   15.9540   20.5550 H   0  0  0  0  0  0  0  0  0  0  0  0
   12.7270   15.6550   20.7390 H   0  0  0  0  0  0  0  0  0  0  0  0
   13.0700   15.8870   22.4710 H   0  0  0  0  0  0  0  0  0  0  0  0
   12.0480   17.0600   21.5980 H   0  0  0  0  0  0  0  0  0  0  0  0
   11.0230   11.8020   22.5140 H   0  0  0  0  0  0  0  0  0  0  0  0
  1  2  1  0
  2  3  2  0
  3  4  1  0
  4  5  2  0
  5  6  1  0
  6  7  2  0
  7  8  1  0
  7  9  1  0
  9 10  2  0
 10 11  1  0
 11 12  2  0
 11 13  1  0
 13 14  1  0
 13 15  1  0
 10 16  1  0
 16 17  2  0
 17  2  1  0
 16  5  1  0
  1 18  1  0
  1 19  1  0
  1 20  1  0
  3 21  1  0
  4 22  1  0
  8 23  1  0
  8 24  1  0
  8 25  1  0
  9 26  1  0
 14 27  1  0
 14 28  1  0
 14 29  1  0
 15 30  1  0
 15 31  1  0
 15 32  1  0
 17 33  1  0
A    1
 C1 
A    2
 C2 
A    3
 C3 
A    4
 C4 
A    5
 C5 
A    6
 N1 
A    7
 C6 
A    8
 C7 
A    9
 C8 
A   10
 C9 
A   11
 C10
A   12
 O1 
A   13
 N2 
A   14
 C11
A   15
 C12
A   16
 C13
A   17
 C14
A   18
 H1 
A   19
 H2 
A   20
 H3 
A   21
 H4 
A   22
 H5 
A   23
 H6 
A   24
 H7 
A   25
 H8 
A   26
 H9 
A   27
 H10
A   28
 H11
A   29
 H12
A   30
 H13
A   31
 H14
A   32
 H15
A   33
 H16
M  END
>  <ref_pdb>  (94) 
x0310_0A

>  <ref_mols>  (94) 
x0416_0A,x0556_0A,x0528_0A

>  <original SMILES>  (94) 
Cc1ccc2nc(C)cc(C(=O)N(C)C)c2c1

>  <rationale>  (94) 
info hydroph_interaction:P107+V124; 

>  <intxn_cluster>  (94) 
103

>  <intxn_cluster_rank>  (94) 
921

>  <N_interactions>  (94) 
2

>  <∆∆G>  (94) 
-10.997406

>  <$/mg>  (94) 
nan

>  <comRMSD>  (94) 
0.992232

>  <N_rotatable_bonds>  (94) 
5

>  <hbond:SER:7>  (94) 
hbond:SER:7    0
hbond:SER:7    0
Name: 93, dtype: object

>  <halogenbond:SER:7>  (94) 
halogenbond:SER:7    0
halogenbond:SER:7    0
Name: 93, dtype: object

>  <hbond:GLY:8>  (94) 
hbond:GLY:8    0
hbond:GLY:8    0
Name: 93, dtype: object

>  <hydroph_interaction:ASN:19>  (94) 
hydroph_interaction:ASN:19    0
hydroph_interaction:ASN:19    0
Name: 93, dtype: object

>  <hbond:ASN:19>  (94) 
hbond:ASN:19    0
hbond:ASN:19    0
Name: 93, dtype: object

>  <halogenbond:ASN:19>  (94) 
halogenbond:ASN:19    0
halogenbond:ASN:19    0
Name: 93, dtype: object

>  <hbond:ARG:20>  (94) 
hbond:ARG:20    0
hbond:ARG:20    0
Name: 93, dtype: object

>  <hydroph_interaction:ARG:20>  (94) 
hydroph_interaction:ARG:20    0
hydroph_interaction:ARG:20    0
Name: 93, dtype: object

>  <saltbridge:ARG:20>  (94) 
saltbridge:ARG:20    0
saltbridge:ARG:20    0
Name: 93, dtype: object

>  <halogenbond:ARG:20>  (94) 
halogenbond:ARG:20    0
halogenbond:ARG:20    0
Name: 93, dtype: object

>  <pication:ARG:20>  (94) 
pication:ARG:20    0
pication:ARG:20    0
Name: 93, dtype: object

>  <hbond:HIS:21>  (94) 
hbond:HIS:21    0
hbond:HIS:21    0
Name: 93, dtype: object

>  <hydroph_interaction:HIS:21>  (94) 
hydroph_interaction:HIS:21    0
hydroph_interaction:HIS:21    0
Name: 93, dtype: object

>  <saltbridge:HIS:21>  (94) 
saltbridge:HIS:21    0
saltbridge:HIS:21    0
Name: 93, dtype: object

>  <pistack:HIS:21>  (94) 
pistack:HIS:21    0
pistack:HIS:21    0
Name: 93, dtype: object

>  <pication:HIS:21>  (94) 
pication:HIS:21    0
pication:HIS:21    0
Name: 93, dtype: object

>  <halogenbond:HIS:21>  (94) 
halogenbond:HIS:21    0
halogenbond:HIS:21    0
Name: 93, dtype: object

>  <hydroph_interaction:LEU:22>  (94) 
hydroph_interaction:LEU:22    0
hydroph_interaction:LEU:22    0
Name: 93, dtype: object

>  <hbond:LEU:22>  (94) 
hbond:LEU:22    0
hbond:LEU:22    0
Name: 93, dtype: object

>  <hydroph_interaction:TRP:28>  (94) 
hydroph_interaction:TRP:28    0
hydroph_interaction:TRP:28    0
Name: 93, dtype: object

>  <hbond:SER:36>  (94) 
hbond:SER:36    0
hbond:SER:36    0
Name: 93, dtype: object

>  <halogenbond:SER:36>  (94) 
halogenbond:SER:36    0
halogenbond:SER:36    0
Name: 93, dtype: object

>  <hbond:ARG:38>  (94) 
hbond:ARG:38    0
hbond:ARG:38    0
Name: 93, dtype: object

>  <halogenbond:ARG:38>  (94) 
halogenbond:ARG:38    0
halogenbond:ARG:38    0
Name: 93, dtype: object

>  <hbond:ASP:39>  (94) 
hbond:ASP:39    0
hbond:ASP:39    0
Name: 93, dtype: object

>  <saltbridge:ASP:39>  (94) 
saltbridge:ASP:39    0
saltbridge:ASP:39    0
Name: 93, dtype: object

>  <hydroph_interaction:ASP:39>  (94) 
hydroph_interaction:ASP:39    0
hydroph_interaction:ASP:39    0
Name: 93, dtype: object

>  <halogenbond:ASP:39>  (94) 
halogenbond:ASP:39    0
halogenbond:ASP:39    0
Name: 93, dtype: object

>  <hydroph_interaction:LEU:40>  (94) 
hydroph_interaction:LEU:40    0
hydroph_interaction:LEU:40    0
Name: 93, dtype: object

>  <hydroph_interaction:TYR:63>  (94) 
hydroph_interaction:TYR:63    0
hydroph_interaction:TYR:63    0
Name: 93, dtype: object

>  <pistack:TYR:63>  (94) 
pistack:TYR:63    0
pistack:TYR:63    0
Name: 93, dtype: object

>  <hbond:TYR:63>  (94) 
hbond:TYR:63    0
hbond:TYR:63    0
Name: 93, dtype: object

>  <hbond:TYR:64>  (94) 
hbond:TYR:64    0
hbond:TYR:64    0
Name: 93, dtype: object

>  <halogenbond:TYR:64>  (94) 
halogenbond:TYR:64    0
halogenbond:TYR:64    0
Name: 93, dtype: object

>  <hydroph_interaction:TYR:64>  (94) 
hydroph_interaction:TYR:64    0
hydroph_interaction:TYR:64    0
Name: 93, dtype: object

>  <hbond:CYS:65>  (94) 
hbond:CYS:65    0
hbond:CYS:65    0
Name: 93, dtype: object

>  <halogenbond:CYS:65>  (94) 
halogenbond:CYS:65    0
halogenbond:CYS:65    0
Name: 93, dtype: object

>  <hbond:SER:66>  (94) 
hbond:SER:66    0
hbond:SER:66    0
Name: 93, dtype: object

>  <hbond:SER:67>  (94) 
hbond:SER:67    0
hbond:SER:67    0
Name: 93, dtype: object

>  <halogenbond:SER:67>  (94) 
halogenbond:SER:67    0
halogenbond:SER:67    0
Name: 93, dtype: object

>  <hydroph_interaction:ARG:68>  (94) 
hydroph_interaction:ARG:68    0
hydroph_interaction:ARG:68    0
Name: 93, dtype: object

>  <hbond:ARG:68>  (94) 
hbond:ARG:68    0
hbond:ARG:68    0
Name: 93, dtype: object

>  <saltbridge:ARG:68>  (94) 
saltbridge:ARG:68    0
saltbridge:ARG:68    0
Name: 93, dtype: object

>  <pication:ARG:68>  (94) 
pication:ARG:68    0
pication:ARG:68    0
Name: 93, dtype: object

>  <hydroph_interaction:TYR:72>  (94) 
hydroph_interaction:TYR:72    0
hydroph_interaction:TYR:72    0
Name: 93, dtype: object

>  <hydroph_interaction:VAL:74>  (94) 
hydroph_interaction:VAL:74    0
hydroph_interaction:VAL:74    0
Name: 93, dtype: object

>  <hydroph_interaction:PHE:76>  (94) 
hydroph_interaction:PHE:76    0
hydroph_interaction:PHE:76    0
Name: 93, dtype: object

>  <hbond:SER:77>  (94) 
hbond:SER:77    0
hbond:SER:77    0
Name: 93, dtype: object

>  <hbond:SER:80>  (94) 
hbond:SER:80    0
hbond:SER:80    0
Name: 93, dtype: object

>  <hbond:LEU:81>  (94) 
hbond:LEU:81    0
hbond:LEU:81    0
Name: 93, dtype: object

>  <halogenbond:LEU:81>  (94) 
halogenbond:LEU:81    0
halogenbond:LEU:81    0
Name: 93, dtype: object

>  <hydroph_interaction:LEU:81>  (94) 
hydroph_interaction:LEU:81    0
hydroph_interaction:LEU:81    0
Name: 93, dtype: object

>  <hydroph_interaction:ILE:82>  (94) 
hydroph_interaction:ILE:82    0
hydroph_interaction:ILE:82    0
Name: 93, dtype: object

>  <hbond:ILE:82>  (94) 
hbond:ILE:82    0
hbond:ILE:82    0
Name: 93, dtype: object

>  <hydroph_interaction:PHE:83>  (94) 
hydroph_interaction:PHE:83    0
hydroph_interaction:PHE:83    0
Name: 93, dtype: object

>  <hbond:PHE:83>  (94) 
hbond:PHE:83    0
hbond:PHE:83    0
Name: 93, dtype: object

>  <halogenbond:PHE:83>  (94) 
halogenbond:PHE:83    0
halogenbond:PHE:83    0
Name: 93, dtype: object

>  <pistack:PHE:83>  (94) 
pistack:PHE:83    0
pistack:PHE:83    0
Name: 93, dtype: object

>  <hydroph_interaction:VAL:84>  (94) 
hydroph_interaction:VAL:84    0
hydroph_interaction:VAL:84    0
Name: 93, dtype: object

>  <hbond:VAL:84>  (94) 
hbond:VAL:84    0
hbond:VAL:84    0
Name: 93, dtype: object

>  <halogenbond:VAL:84>  (94) 
halogenbond:VAL:84    0
halogenbond:VAL:84    0
Name: 93, dtype: object

>  <hydroph_interaction:GLU:85>  (94) 
hydroph_interaction:GLU:85    0
hydroph_interaction:GLU:85    0
Name: 93, dtype: object

>  <hbond:GLU:85>  (94) 
hbond:GLU:85    0
hbond:GLU:85    0
Name: 93, dtype: object

>  <saltbridge:GLU:85>  (94) 
saltbridge:GLU:85    0
saltbridge:GLU:85    0
Name: 93, dtype: object

>  <halogenbond:GLU:85>  (94) 
halogenbond:GLU:85    0
halogenbond:GLU:85    0
Name: 93, dtype: object

>  <hbond:ALA:86>  (94) 
hbond:ALA:86    0
hbond:ALA:86    0
Name: 93, dtype: object

>  <halogenbond:ALA:86>  (94) 
halogenbond:ALA:86    0
halogenbond:ALA:86    0
Name: 93, dtype: object

>  <hydroph_interaction:ALA:86>  (94) 
hydroph_interaction:ALA:86    0
hydroph_interaction:ALA:86    0
Name: 93, dtype: object

>  <hbond:SER:87>  (94) 
hbond:SER:87    0
hbond:SER:87    0
Name: 93, dtype: object

>  <halogenbond:SER:87>  (94) 
halogenbond:SER:87    0
halogenbond:SER:87    0
Name: 93, dtype: object

>  <hbond:GLU:88>  (94) 
hbond:GLU:88    0
hbond:GLU:88    0
Name: 93, dtype: object

>  <hydroph_interaction:GLU:88>  (94) 
hydroph_interaction:GLU:88    0
hydroph_interaction:GLU:88    0
Name: 93, dtype: object

>  <halogenbond:GLU:88>  (94) 
halogenbond:GLU:88    0
halogenbond:GLU:88    0
Name: 93, dtype: object

>  <saltbridge:GLU:88>  (94) 
saltbridge:GLU:88    0
saltbridge:GLU:88    0
Name: 93, dtype: object

>  <hydroph_interaction:TYR:89>  (94) 
hydroph_interaction:TYR:89    0
hydroph_interaction:TYR:89    0
Name: 93, dtype: object

>  <pistack:TYR:89>  (94) 
pistack:TYR:89    0
pistack:TYR:89    0
Name: 93, dtype: object

>  <hbond:TYR:89>  (94) 
hbond:TYR:89    0
hbond:TYR:89    0
Name: 93, dtype: object

>  <halogenbond:TYR:89>  (94) 
halogenbond:TYR:89    0
halogenbond:TYR:89    0
Name: 93, dtype: object

>  <hbond:TYR:90>  (94) 
hbond:TYR:90    0
hbond:TYR:90    0
Name: 93, dtype: object

>  <hydroph_interaction:TYR:90>  (94) 
hydroph_interaction:TYR:90    0
hydroph_interaction:TYR:90    0
Name: 93, dtype: object

>  <pistack:TYR:90>  (94) 
pistack:TYR:90    0
pistack:TYR:90    0
Name: 93, dtype: object

>  <halogenbond:TYR:90>  (94) 
halogenbond:TYR:90    0
halogenbond:TYR:90    0
Name: 93, dtype: object

>  <pication:TYR:90>  (94) 
pication:TYR:90    0
pication:TYR:90    0
Name: 93, dtype: object

>  <hydroph_interaction:PRO:91>  (94) 
hydroph_interaction:PRO:91    0
hydroph_interaction:PRO:91    0
Name: 93, dtype: object

>  <halogenbond:PRO:91>  (94) 
halogenbond:PRO:91    0
halogenbond:PRO:91    0
Name: 93, dtype: object

>  <hbond:PRO:91>  (94) 
hbond:PRO:91    0
hbond:PRO:91    0
Name: 93, dtype: object

>  <hydroph_interaction:ALA:92>  (94) 
hydroph_interaction:ALA:92    0
hydroph_interaction:ALA:92    0
Name: 93, dtype: object

>  <hbond:ARG:93>  (94) 
hbond:ARG:93    0
hbond:ARG:93    0
Name: 93, dtype: object

>  <pication:ARG:93>  (94) 
pication:ARG:93    0
pication:ARG:93    0
Name: 93, dtype: object

>  <saltbridge:ARG:93>  (94) 
saltbridge:ARG:93    0
saltbridge:ARG:93    0
Name: 93, dtype: object

>  <hydroph_interaction:ARG:93>  (94) 
hydroph_interaction:ARG:93    0
hydroph_interaction:ARG:93    0
Name: 93, dtype: object

>  <halogenbond:ARG:93>  (94) 
halogenbond:ARG:93    0
halogenbond:ARG:93    0
Name: 93, dtype: object

>  <hydroph_interaction:TYR:94>  (94) 
hydroph_interaction:TYR:94    0
hydroph_interaction:TYR:94    0
Name: 93, dtype: object

>  <hbond:TYR:94>  (94) 
hbond:TYR:94    0
hbond:TYR:94    0
Name: 93, dtype: object

>  <halogenbond:GLN:95>  (94) 
halogenbond:GLN:95    0
halogenbond:GLN:95    0
Name: 93, dtype: object

>  <hbond:GLN:95>  (94) 
hbond:GLN:95    0
hbond:GLN:95    0
Name: 93, dtype: object

>  <hydroph_interaction:GLN:95>  (94) 
hydroph_interaction:GLN:95    0
hydroph_interaction:GLN:95    0
Name: 93, dtype: object

>  <hbond:SER:96>  (94) 
hbond:SER:96    0
hbond:SER:96    0
Name: 93, dtype: object

>  <hydroph_interaction:LEU:98>  (94) 
hydroph_interaction:LEU:98    0
hydroph_interaction:LEU:98    0
Name: 93, dtype: object

>  <hbond:LEU:98>  (94) 
hbond:LEU:98    0
hbond:LEU:98    0
Name: 93, dtype: object

>  <hbond:MET:99>  (94) 
hbond:MET:99    0
hbond:MET:99    0
Name: 93, dtype: object

>  <hydroph_interaction:MET:99>  (94) 
hydroph_interaction:MET:99    0
hydroph_interaction:MET:99    0
Name: 93, dtype: object

>  <halogenbond:MET:99>  (94) 
halogenbond:MET:99    0
halogenbond:MET:99    0
Name: 93, dtype: object

>  <hydroph_interaction:LEU:100>  (94) 
hydroph_interaction:LEU:100    0
hydroph_interaction:LEU:100    0
Name: 93, dtype: object

>  <hbond:LEU:100>  (94) 
hbond:LEU:100    0
hbond:LEU:100    0
Name: 93, dtype: object

>  <hbond:ALA:101>  (94) 
hbond:ALA:101    0
hbond:ALA:101    0
Name: 93, dtype: object

>  <hydroph_interaction:ALA:101>  (94) 
hydroph_interaction:ALA:101    0
hydroph_interaction:ALA:101    0
Name: 93, dtype: object

>  <hydroph_interaction:VAL:102>  (94) 
hydroph_interaction:VAL:102    0
hydroph_interaction:VAL:102    0
Name: 93, dtype: object

>  <hbond:VAL:102>  (94) 
hbond:VAL:102    0
hbond:VAL:102    0
Name: 93, dtype: object

>  <hbond:GLY:103>  (94) 
hbond:GLY:103    0
hbond:GLY:103    0
Name: 93, dtype: object

>  <halogenbond:GLY:103>  (94) 
halogenbond:GLY:103    0
halogenbond:GLY:103    0
Name: 93, dtype: object

>  <hydroph_interaction:HIS:104>  (94) 
hydroph_interaction:HIS:104    0
hydroph_interaction:HIS:104    0
Name: 93, dtype: object

>  <hbond:HIS:104>  (94) 
hbond:HIS:104    0
hbond:HIS:104    0
Name: 93, dtype: object

>  <saltbridge:HIS:104>  (94) 
saltbridge:HIS:104    0
saltbridge:HIS:104    0
Name: 93, dtype: object

>  <pication:HIS:104>  (94) 
pication:HIS:104    0
pication:HIS:104    0
Name: 93, dtype: object

>  <pistack:HIS:104>  (94) 
pistack:HIS:104    0
pistack:HIS:104    0
Name: 93, dtype: object

>  <halogenbond:HIS:104>  (94) 
halogenbond:HIS:104    0
halogenbond:HIS:104    0
Name: 93, dtype: object

>  <hbond:SER:105>  (94) 
hbond:SER:105    0
hbond:SER:105    0
Name: 93, dtype: object

>  <halogenbond:SER:105>  (94) 
halogenbond:SER:105    0
halogenbond:SER:105    0
Name: 93, dtype: object

>  <hbond:GLU:106>  (94) 
hbond:GLU:106    0
hbond:GLU:106    0
Name: 93, dtype: object

>  <hydroph_interaction:GLU:106>  (94) 
hydroph_interaction:GLU:106    0
hydroph_interaction:GLU:106    0
Name: 93, dtype: object

>  <saltbridge:GLU:106>  (94) 
saltbridge:GLU:106    0
saltbridge:GLU:106    0
Name: 93, dtype: object

>  <halogenbond:GLU:106>  (94) 
halogenbond:GLU:106    0
halogenbond:GLU:106    0
Name: 93, dtype: object

>  <hydroph_interaction:PRO:107>  (94) 
hydroph_interaction:PRO:107    1
hydroph_interaction:PRO:107    1
Name: 93, dtype: object

>  <hbond:PRO:107>  (94) 
hbond:PRO:107    0
hbond:PRO:107    0
Name: 93, dtype: object

>  <halogenbond:PRO:107>  (94) 
halogenbond:PRO:107    0
halogenbond:PRO:107    0
Name: 93, dtype: object

>  <hbond:GLY:108>  (94) 
hbond:GLY:108    0
hbond:GLY:108    0
Name: 93, dtype: object

>  <halogenbond:GLY:108>  (94) 
halogenbond:GLY:108    0
halogenbond:GLY:108    0
Name: 93, dtype: object

>  <hbond:ASP:109>  (94) 
hbond:ASP:109    0
hbond:ASP:109    0
Name: 93, dtype: object

>  <hydroph_interaction:ASP:109>  (94) 
hydroph_interaction:ASP:109    0
hydroph_interaction:ASP:109    0
Name: 93, dtype: object

>  <saltbridge:ASP:109>  (94) 
saltbridge:ASP:109    0
saltbridge:ASP:109    0
Name: 93, dtype: object

>  <hbond:CYS:110>  (94) 
hbond:CYS:110    0
hbond:CYS:110    0
Name: 93, dtype: object

>  <halogenbond:CYS:110>  (94) 
halogenbond:CYS:110    0
halogenbond:CYS:110    0
Name: 93, dtype: object

>  <hbond:GLY:111>  (94) 
hbond:GLY:111    0
hbond:GLY:111    0
Name: 93, dtype: object

>  <hbond:GLY:112>  (94) 
hbond:GLY:112    0
hbond:GLY:112    0
Name: 93, dtype: object

>  <hbond:ILE:113>  (94) 
hbond:ILE:113    0
hbond:ILE:113    0
Name: 93, dtype: object

>  <hydroph_interaction:LEU:114>  (94) 
hydroph_interaction:LEU:114    0
hydroph_interaction:LEU:114    0
Name: 93, dtype: object

>  <hbond:LEU:114>  (94) 
hbond:LEU:114    0
hbond:LEU:114    0
Name: 93, dtype: object

>  <hydroph_interaction:ILE:123>  (94) 
hydroph_interaction:ILE:123    0
hydroph_interaction:ILE:123    0
Name: 93, dtype: object

>  <hbond:ILE:123>  (94) 
hbond:ILE:123    0
hbond:ILE:123    0
Name: 93, dtype: object

>  <hydroph_interaction:VAL:124>  (94) 
hydroph_interaction:VAL:124    1
hydroph_interaction:VAL:124    1
Name: 93, dtype: object

>  <hbond:VAL:124>  (94) 
hbond:VAL:124    0
hbond:VAL:124    0
Name: 93, dtype: object

>  <halogenbond:VAL:124>  (94) 
halogenbond:VAL:124    0
halogenbond:VAL:124    0
Name: 93, dtype: object

>  <hbond:SER:125>  (94) 
hbond:SER:125    0
hbond:SER:125    0
Name: 93, dtype: object

>  <halogenbond:SER:125>  (94) 
halogenbond:SER:125    0
halogenbond:SER:125    0
Name: 93, dtype: object

>  <hydroph_interaction:THR:126>  (94) 
hydroph_interaction:THR:126    0
hydroph_interaction:THR:126    0
Name: 93, dtype: object

>  <hbond:THR:126>  (94) 
hbond:THR:126    0
hbond:THR:126    0
Name: 93, dtype: object

>  <halogenbond:THR:126>  (94) 
halogenbond:THR:126    0
halogenbond:THR:126    0
Name: 93, dtype: object

>  <hbond:GLY:127>  (94) 
hbond:GLY:127    0
hbond:GLY:127    0
Name: 93, dtype: object

>  <halogenbond:GLY:127>  (94) 
halogenbond:GLY:127    0
halogenbond:GLY:127    0
Name: 93, dtype: object

>  <hydroph_interaction:GLY:127>  (94) 
hydroph_interaction:GLY:127    0
hydroph_interaction:GLY:127    0
Name: 93, dtype: object

>  <hbond:GLY:128>  (94) 
hbond:GLY:128    0
hbond:GLY:128    0
Name: 93, dtype: object

>  <halogenbond:GLY:128>  (94) 
halogenbond:GLY:128    0
halogenbond:GLY:128    0
Name: 93, dtype: object

>  <hydroph_interaction:GLY:128>  (94) 
hydroph_interaction:GLY:128    0
hydroph_interaction:GLY:128    0
Name: 93, dtype: object

>  <hbond:ASN:129>  (94) 
hbond:ASN:129    0
hbond:ASN:129    0
Name: 93, dtype: object

>  <hydroph_interaction:ASN:129>  (94) 
hydroph_interaction:ASN:129    0
hydroph_interaction:ASN:129    0
Name: 93, dtype: object

>  <halogenbond:ASN:129>  (94) 
halogenbond:ASN:129    0
halogenbond:ASN:129    0
Name: 93, dtype: object

>  <hbond:GLY:130>  (94) 
hbond:GLY:130    0
hbond:GLY:130    0
Name: 93, dtype: object

>  <hydroph_interaction:LEU:131>  (94) 
hydroph_interaction:LEU:131    0
hydroph_interaction:LEU:131    0
Name: 93, dtype: object

>  <hbond:LEU:131>  (94) 
hbond:LEU:131    0
hbond:LEU:131    0
Name: 93, dtype: object

>  <halogenbond:LEU:131>  (94) 
halogenbond:LEU:131    0
halogenbond:LEU:131    0
Name: 93, dtype: object

>  <hydroph_interaction:VAL:132>  (94) 
hydroph_interaction:VAL:132    0
hydroph_interaction:VAL:132    0
Name: 93, dtype: object

>  <hbond:VAL:132>  (94) 
hbond:VAL:132    0
hbond:VAL:132    0
Name: 93, dtype: object

>  <hbond:GLY:133>  (94) 
hbond:GLY:133    0
hbond:GLY:133    0
Name: 93, dtype: object

>  <halogenbond:GLY:133>  (94) 
halogenbond:GLY:133    0
halogenbond:GLY:133    0
Name: 93, dtype: object

>  <hydroph_interaction:PHE:134>  (94) 
hydroph_interaction:PHE:134    0
hydroph_interaction:PHE:134    0
Name: 93, dtype: object

>  <hbond:PHE:134>  (94) 
hbond:PHE:134    0
hbond:PHE:134    0
Name: 93, dtype: object

>  <pistack:PHE:134>  (94) 
pistack:PHE:134    0
pistack:PHE:134    0
Name: 93, dtype: object

>  <pication:PHE:134>  (94) 
pication:PHE:134    0
pication:PHE:134    0
Name: 93, dtype: object

>  <hydroph_interaction:ALA:135>  (94) 
hydroph_interaction:ALA:135    0
hydroph_interaction:ALA:135    0
Name: 93, dtype: object

>  <hbond:ALA:135>  (94) 
hbond:ALA:135    0
hbond:ALA:135    0
Name: 93, dtype: object

$$$$
PV_002806883970
     RDKit          3D

 27 28  0  0  0  0  0  0  0  0999 V2000
   12.2490   15.3760   21.9000 C   0  0  0  0  0  0  0  0  0  0  0  0
   11.5730   14.3150   22.7470 C   0  0  0  0  0  0  0  0  0  0  0  0
   12.0860   14.2230   24.1700 C   0  0  0  0  0  0  0  0  0  0  0  0
   10.4810   13.3640   22.3510 C   0  0  0  0  0  0  0  0  0  0  0  0
    9.7600   12.2750   23.1000 C   0  0  0  0  0  0  0  0  0  0  0  0
    8.7720   12.5760   24.0690 C   0  0  0  0  0  0  0  0  0  0  0  0
    8.2440   13.7560   24.5490 N   0  0  0  0  0  0  0  0  0  0  0  0
    7.3560   13.3590   25.4390 C   0  0  0  0  0  0  0  0  0  0  0  0
    6.5150   14.1340   26.2380 C   0  0  0  0  0  0  0  0  0  0  0  0
    7.2430   12.0070   25.6030 O   0  0  0  0  0  0  0  0  0  0  0  0
    8.1500   11.5270   24.7200 C   0  0  0  0  0  0  0  0  0  0  0  0
    8.5000   10.0970   24.4180 C   0  0  0  0  0  0  0  0  0  0  0  0
    9.4640    9.8910   23.4710 C   0  0  0  0  0  0  0  0  0  0  0  0
   10.0810   10.9300   22.8260 C   0  0  0  0  0  0  0  0  0  0  0  0
   13.2570   15.0540   21.6310 H   0  0  0  0  0  0  0  0  0  0  0  0
   12.3300   16.3140   22.4560 H   0  0  0  0  0  0  0  0  0  0  0  0
   11.6680   15.5660   20.9920 H   0  0  0  0  0  0  0  0  0  0  0  0
   11.2540   14.0320   24.8540 H   0  0  0  0  0  0  0  0  0  0  0  0
   12.5740   15.1500   24.4900 H   0  0  0  0  0  0  0  0  0  0  0  0
   12.7980   13.3900   24.2270 H   0  0  0  0  0  0  0  0  0  0  0  0
   10.1640   13.5000   21.3150 H   0  0  0  0  0  0  0  0  0  0  0  0
    5.4570   13.8970   26.2050 H   0  0  0  0  0  0  0  0  0  0  0  0
    6.8200   13.9730   27.2780 H   0  0  0  0  0  0  0  0  0  0  0  0
    6.5740   15.2080   26.0870 H   0  0  0  0  0  0  0  0  0  0  0  0
    7.9430    9.3620   24.9890 H   0  0  0  0  0  0  0  0  0  0  0  0
    9.7850    8.8950   23.1870 H   0  0  0  0  0  0  0  0  0  0  0  0
   10.8270   10.6260   22.0930 H   0  0  0  0  0  0  0  0  0  0  0  0
  1  2  1  0
  2  3  1  0
  2  4  2  3
  4  5  1  0
  5  6  2  0
  6  7  1  0
  7  8  2  0
  8  9  1  0
  8 10  1  0
 10 11  1  0
 11 12  2  0
 12 13  1  0
 13 14  2  0
 14  5  1  0
 11  6  1  0
  1 15  1  0
  1 16  1  0
  1 17  1  0
  3 18  1  0
  3 19  1  0
  3 20  1  0
  4 21  1  0
  9 22  1  0
  9 23  1  0
  9 24  1  0
 12 25  1  0
 13 26  1  0
 14 27  1  0
A    1
 C1 
A    2
 C2 
A    3
 C3 
A    4
 C4 
A    5
 C5 
A    6
 C6 
A    7
 N1 
A    8
 C7 
A    9
 C8 
A   10
 O1 
A   11
 C9 
A   12
 C10
A   13
 C11
A   14
 C12
A   15
 H1 
A   16
 H2 
A   17
 H3 
A   18
 H4 
A   19
 H5 
A   20
 H6 
A   21
 H7 
A   22
 H8 
A   23
 H9 
A   24
 H10
A   25
 H11
A   26
 H12
A   27
 H13
M  END
>  <ref_pdb>  (95) 
x0310_0A

>  <ref_mols>  (95) 
x0554_0A,x0416_0A,x0446_0A

>  <original SMILES>  (95) 
CC(C)=Cc1cccc2oc(C)nc12

>  <rationale>  (95) 
info hydroph_interaction:P107; 

>  <intxn_cluster>  (95) 
208

>  <intxn_cluster_rank>  (95) 
985

>  <N_interactions>  (95) 
1

>  <∆∆G>  (95) 
-9.055611

>  <$/mg>  (95) 
nan

>  <comRMSD>  (95) 
0.726019

>  <N_rotatable_bonds>  (95) 
4

>  <hbond:SER:7>  (95) 
hbond:SER:7    0
hbond:SER:7    0
Name: 94, dtype: object

>  <halogenbond:SER:7>  (95) 
halogenbond:SER:7    0
halogenbond:SER:7    0
Name: 94, dtype: object

>  <hbond:GLY:8>  (95) 
hbond:GLY:8    0
hbond:GLY:8    0
Name: 94, dtype: object

>  <hydroph_interaction:ASN:19>  (95) 
hydroph_interaction:ASN:19    0
hydroph_interaction:ASN:19    0
Name: 94, dtype: object

>  <hbond:ASN:19>  (95) 
hbond:ASN:19    0
hbond:ASN:19    0
Name: 94, dtype: object

>  <halogenbond:ASN:19>  (95) 
halogenbond:ASN:19    0
halogenbond:ASN:19    0
Name: 94, dtype: object

>  <hbond:ARG:20>  (95) 
hbond:ARG:20    0
hbond:ARG:20    0
Name: 94, dtype: object

>  <hydroph_interaction:ARG:20>  (95) 
hydroph_interaction:ARG:20    0
hydroph_interaction:ARG:20    0
Name: 94, dtype: object

>  <saltbridge:ARG:20>  (95) 
saltbridge:ARG:20    0
saltbridge:ARG:20    0
Name: 94, dtype: object

>  <halogenbond:ARG:20>  (95) 
halogenbond:ARG:20    0
halogenbond:ARG:20    0
Name: 94, dtype: object

>  <pication:ARG:20>  (95) 
pication:ARG:20    0
pication:ARG:20    0
Name: 94, dtype: object

>  <hbond:HIS:21>  (95) 
hbond:HIS:21    0
hbond:HIS:21    0
Name: 94, dtype: object

>  <hydroph_interaction:HIS:21>  (95) 
hydroph_interaction:HIS:21    0
hydroph_interaction:HIS:21    0
Name: 94, dtype: object

>  <saltbridge:HIS:21>  (95) 
saltbridge:HIS:21    0
saltbridge:HIS:21    0
Name: 94, dtype: object

>  <pistack:HIS:21>  (95) 
pistack:HIS:21    0
pistack:HIS:21    0
Name: 94, dtype: object

>  <pication:HIS:21>  (95) 
pication:HIS:21    0
pication:HIS:21    0
Name: 94, dtype: object

>  <halogenbond:HIS:21>  (95) 
halogenbond:HIS:21    0
halogenbond:HIS:21    0
Name: 94, dtype: object

>  <hydroph_interaction:LEU:22>  (95) 
hydroph_interaction:LEU:22    0
hydroph_interaction:LEU:22    0
Name: 94, dtype: object

>  <hbond:LEU:22>  (95) 
hbond:LEU:22    0
hbond:LEU:22    0
Name: 94, dtype: object

>  <hydroph_interaction:TRP:28>  (95) 
hydroph_interaction:TRP:28    0
hydroph_interaction:TRP:28    0
Name: 94, dtype: object

>  <hbond:SER:36>  (95) 
hbond:SER:36    0
hbond:SER:36    0
Name: 94, dtype: object

>  <halogenbond:SER:36>  (95) 
halogenbond:SER:36    0
halogenbond:SER:36    0
Name: 94, dtype: object

>  <hbond:ARG:38>  (95) 
hbond:ARG:38    0
hbond:ARG:38    0
Name: 94, dtype: object

>  <halogenbond:ARG:38>  (95) 
halogenbond:ARG:38    0
halogenbond:ARG:38    0
Name: 94, dtype: object

>  <hbond:ASP:39>  (95) 
hbond:ASP:39    0
hbond:ASP:39    0
Name: 94, dtype: object

>  <saltbridge:ASP:39>  (95) 
saltbridge:ASP:39    0
saltbridge:ASP:39    0
Name: 94, dtype: object

>  <hydroph_interaction:ASP:39>  (95) 
hydroph_interaction:ASP:39    0
hydroph_interaction:ASP:39    0
Name: 94, dtype: object

>  <halogenbond:ASP:39>  (95) 
halogenbond:ASP:39    0
halogenbond:ASP:39    0
Name: 94, dtype: object

>  <hydroph_interaction:LEU:40>  (95) 
hydroph_interaction:LEU:40    0
hydroph_interaction:LEU:40    0
Name: 94, dtype: object

>  <hydroph_interaction:TYR:63>  (95) 
hydroph_interaction:TYR:63    0
hydroph_interaction:TYR:63    0
Name: 94, dtype: object

>  <pistack:TYR:63>  (95) 
pistack:TYR:63    0
pistack:TYR:63    0
Name: 94, dtype: object

>  <hbond:TYR:63>  (95) 
hbond:TYR:63    0
hbond:TYR:63    0
Name: 94, dtype: object

>  <hbond:TYR:64>  (95) 
hbond:TYR:64    0
hbond:TYR:64    0
Name: 94, dtype: object

>  <halogenbond:TYR:64>  (95) 
halogenbond:TYR:64    0
halogenbond:TYR:64    0
Name: 94, dtype: object

>  <hydroph_interaction:TYR:64>  (95) 
hydroph_interaction:TYR:64    0
hydroph_interaction:TYR:64    0
Name: 94, dtype: object

>  <hbond:CYS:65>  (95) 
hbond:CYS:65    0
hbond:CYS:65    0
Name: 94, dtype: object

>  <halogenbond:CYS:65>  (95) 
halogenbond:CYS:65    0
halogenbond:CYS:65    0
Name: 94, dtype: object

>  <hbond:SER:66>  (95) 
hbond:SER:66    0
hbond:SER:66    0
Name: 94, dtype: object

>  <hbond:SER:67>  (95) 
hbond:SER:67    0
hbond:SER:67    0
Name: 94, dtype: object

>  <halogenbond:SER:67>  (95) 
halogenbond:SER:67    0
halogenbond:SER:67    0
Name: 94, dtype: object

>  <hydroph_interaction:ARG:68>  (95) 
hydroph_interaction:ARG:68    0
hydroph_interaction:ARG:68    0
Name: 94, dtype: object

>  <hbond:ARG:68>  (95) 
hbond:ARG:68    0
hbond:ARG:68    0
Name: 94, dtype: object

>  <saltbridge:ARG:68>  (95) 
saltbridge:ARG:68    0
saltbridge:ARG:68    0
Name: 94, dtype: object

>  <pication:ARG:68>  (95) 
pication:ARG:68    0
pication:ARG:68    0
Name: 94, dtype: object

>  <hydroph_interaction:TYR:72>  (95) 
hydroph_interaction:TYR:72    0
hydroph_interaction:TYR:72    0
Name: 94, dtype: object

>  <hydroph_interaction:VAL:74>  (95) 
hydroph_interaction:VAL:74    0
hydroph_interaction:VAL:74    0
Name: 94, dtype: object

>  <hydroph_interaction:PHE:76>  (95) 
hydroph_interaction:PHE:76    0
hydroph_interaction:PHE:76    0
Name: 94, dtype: object

>  <hbond:SER:77>  (95) 
hbond:SER:77    0
hbond:SER:77    0
Name: 94, dtype: object

>  <hbond:SER:80>  (95) 
hbond:SER:80    0
hbond:SER:80    0
Name: 94, dtype: object

>  <hbond:LEU:81>  (95) 
hbond:LEU:81    0
hbond:LEU:81    0
Name: 94, dtype: object

>  <halogenbond:LEU:81>  (95) 
halogenbond:LEU:81    0
halogenbond:LEU:81    0
Name: 94, dtype: object

>  <hydroph_interaction:LEU:81>  (95) 
hydroph_interaction:LEU:81    0
hydroph_interaction:LEU:81    0
Name: 94, dtype: object

>  <hydroph_interaction:ILE:82>  (95) 
hydroph_interaction:ILE:82    0
hydroph_interaction:ILE:82    0
Name: 94, dtype: object

>  <hbond:ILE:82>  (95) 
hbond:ILE:82    0
hbond:ILE:82    0
Name: 94, dtype: object

>  <hydroph_interaction:PHE:83>  (95) 
hydroph_interaction:PHE:83    0
hydroph_interaction:PHE:83    0
Name: 94, dtype: object

>  <hbond:PHE:83>  (95) 
hbond:PHE:83    0
hbond:PHE:83    0
Name: 94, dtype: object

>  <halogenbond:PHE:83>  (95) 
halogenbond:PHE:83    0
halogenbond:PHE:83    0
Name: 94, dtype: object

>  <pistack:PHE:83>  (95) 
pistack:PHE:83    0
pistack:PHE:83    0
Name: 94, dtype: object

>  <hydroph_interaction:VAL:84>  (95) 
hydroph_interaction:VAL:84    0
hydroph_interaction:VAL:84    0
Name: 94, dtype: object

>  <hbond:VAL:84>  (95) 
hbond:VAL:84    0
hbond:VAL:84    0
Name: 94, dtype: object

>  <halogenbond:VAL:84>  (95) 
halogenbond:VAL:84    0
halogenbond:VAL:84    0
Name: 94, dtype: object

>  <hydroph_interaction:GLU:85>  (95) 
hydroph_interaction:GLU:85    0
hydroph_interaction:GLU:85    0
Name: 94, dtype: object

>  <hbond:GLU:85>  (95) 
hbond:GLU:85    0
hbond:GLU:85    0
Name: 94, dtype: object

>  <saltbridge:GLU:85>  (95) 
saltbridge:GLU:85    0
saltbridge:GLU:85    0
Name: 94, dtype: object

>  <halogenbond:GLU:85>  (95) 
halogenbond:GLU:85    0
halogenbond:GLU:85    0
Name: 94, dtype: object

>  <hbond:ALA:86>  (95) 
hbond:ALA:86    0
hbond:ALA:86    0
Name: 94, dtype: object

>  <halogenbond:ALA:86>  (95) 
halogenbond:ALA:86    0
halogenbond:ALA:86    0
Name: 94, dtype: object

>  <hydroph_interaction:ALA:86>  (95) 
hydroph_interaction:ALA:86    0
hydroph_interaction:ALA:86    0
Name: 94, dtype: object

>  <hbond:SER:87>  (95) 
hbond:SER:87    0
hbond:SER:87    0
Name: 94, dtype: object

>  <halogenbond:SER:87>  (95) 
halogenbond:SER:87    0
halogenbond:SER:87    0
Name: 94, dtype: object

>  <hbond:GLU:88>  (95) 
hbond:GLU:88    0
hbond:GLU:88    0
Name: 94, dtype: object

>  <hydroph_interaction:GLU:88>  (95) 
hydroph_interaction:GLU:88    0
hydroph_interaction:GLU:88    0
Name: 94, dtype: object

>  <halogenbond:GLU:88>  (95) 
halogenbond:GLU:88    0
halogenbond:GLU:88    0
Name: 94, dtype: object

>  <saltbridge:GLU:88>  (95) 
saltbridge:GLU:88    0
saltbridge:GLU:88    0
Name: 94, dtype: object

>  <hydroph_interaction:TYR:89>  (95) 
hydroph_interaction:TYR:89    0
hydroph_interaction:TYR:89    0
Name: 94, dtype: object

>  <pistack:TYR:89>  (95) 
pistack:TYR:89    0
pistack:TYR:89    0
Name: 94, dtype: object

>  <hbond:TYR:89>  (95) 
hbond:TYR:89    0
hbond:TYR:89    0
Name: 94, dtype: object

>  <halogenbond:TYR:89>  (95) 
halogenbond:TYR:89    0
halogenbond:TYR:89    0
Name: 94, dtype: object

>  <hbond:TYR:90>  (95) 
hbond:TYR:90    0
hbond:TYR:90    0
Name: 94, dtype: object

>  <hydroph_interaction:TYR:90>  (95) 
hydroph_interaction:TYR:90    0
hydroph_interaction:TYR:90    0
Name: 94, dtype: object

>  <pistack:TYR:90>  (95) 
pistack:TYR:90    0
pistack:TYR:90    0
Name: 94, dtype: object

>  <halogenbond:TYR:90>  (95) 
halogenbond:TYR:90    0
halogenbond:TYR:90    0
Name: 94, dtype: object

>  <pication:TYR:90>  (95) 
pication:TYR:90    0
pication:TYR:90    0
Name: 94, dtype: object

>  <hydroph_interaction:PRO:91>  (95) 
hydroph_interaction:PRO:91    0
hydroph_interaction:PRO:91    0
Name: 94, dtype: object

>  <halogenbond:PRO:91>  (95) 
halogenbond:PRO:91    0
halogenbond:PRO:91    0
Name: 94, dtype: object

>  <hbond:PRO:91>  (95) 
hbond:PRO:91    0
hbond:PRO:91    0
Name: 94, dtype: object

>  <hydroph_interaction:ALA:92>  (95) 
hydroph_interaction:ALA:92    0
hydroph_interaction:ALA:92    0
Name: 94, dtype: object

>  <hbond:ARG:93>  (95) 
hbond:ARG:93    0
hbond:ARG:93    0
Name: 94, dtype: object

>  <pication:ARG:93>  (95) 
pication:ARG:93    0
pication:ARG:93    0
Name: 94, dtype: object

>  <saltbridge:ARG:93>  (95) 
saltbridge:ARG:93    0
saltbridge:ARG:93    0
Name: 94, dtype: object

>  <hydroph_interaction:ARG:93>  (95) 
hydroph_interaction:ARG:93    0
hydroph_interaction:ARG:93    0
Name: 94, dtype: object

>  <halogenbond:ARG:93>  (95) 
halogenbond:ARG:93    0
halogenbond:ARG:93    0
Name: 94, dtype: object

>  <hydroph_interaction:TYR:94>  (95) 
hydroph_interaction:TYR:94    0
hydroph_interaction:TYR:94    0
Name: 94, dtype: object

>  <hbond:TYR:94>  (95) 
hbond:TYR:94    0
hbond:TYR:94    0
Name: 94, dtype: object

>  <halogenbond:GLN:95>  (95) 
halogenbond:GLN:95    0
halogenbond:GLN:95    0
Name: 94, dtype: object

>  <hbond:GLN:95>  (95) 
hbond:GLN:95    0
hbond:GLN:95    0
Name: 94, dtype: object

>  <hydroph_interaction:GLN:95>  (95) 
hydroph_interaction:GLN:95    0
hydroph_interaction:GLN:95    0
Name: 94, dtype: object

>  <hbond:SER:96>  (95) 
hbond:SER:96    0
hbond:SER:96    0
Name: 94, dtype: object

>  <hydroph_interaction:LEU:98>  (95) 
hydroph_interaction:LEU:98    0
hydroph_interaction:LEU:98    0
Name: 94, dtype: object

>  <hbond:LEU:98>  (95) 
hbond:LEU:98    0
hbond:LEU:98    0
Name: 94, dtype: object

>  <hbond:MET:99>  (95) 
hbond:MET:99    0
hbond:MET:99    0
Name: 94, dtype: object

>  <hydroph_interaction:MET:99>  (95) 
hydroph_interaction:MET:99    0
hydroph_interaction:MET:99    0
Name: 94, dtype: object

>  <halogenbond:MET:99>  (95) 
halogenbond:MET:99    0
halogenbond:MET:99    0
Name: 94, dtype: object

>  <hydroph_interaction:LEU:100>  (95) 
hydroph_interaction:LEU:100    0
hydroph_interaction:LEU:100    0
Name: 94, dtype: object

>  <hbond:LEU:100>  (95) 
hbond:LEU:100    0
hbond:LEU:100    0
Name: 94, dtype: object

>  <hbond:ALA:101>  (95) 
hbond:ALA:101    0
hbond:ALA:101    0
Name: 94, dtype: object

>  <hydroph_interaction:ALA:101>  (95) 
hydroph_interaction:ALA:101    0
hydroph_interaction:ALA:101    0
Name: 94, dtype: object

>  <hydroph_interaction:VAL:102>  (95) 
hydroph_interaction:VAL:102    0
hydroph_interaction:VAL:102    0
Name: 94, dtype: object

>  <hbond:VAL:102>  (95) 
hbond:VAL:102    0
hbond:VAL:102    0
Name: 94, dtype: object

>  <hbond:GLY:103>  (95) 
hbond:GLY:103    0
hbond:GLY:103    0
Name: 94, dtype: object

>  <halogenbond:GLY:103>  (95) 
halogenbond:GLY:103    0
halogenbond:GLY:103    0
Name: 94, dtype: object

>  <hydroph_interaction:HIS:104>  (95) 
hydroph_interaction:HIS:104    0
hydroph_interaction:HIS:104    0
Name: 94, dtype: object

>  <hbond:HIS:104>  (95) 
hbond:HIS:104    0
hbond:HIS:104    0
Name: 94, dtype: object

>  <saltbridge:HIS:104>  (95) 
saltbridge:HIS:104    0
saltbridge:HIS:104    0
Name: 94, dtype: object

>  <pication:HIS:104>  (95) 
pication:HIS:104    0
pication:HIS:104    0
Name: 94, dtype: object

>  <pistack:HIS:104>  (95) 
pistack:HIS:104    0
pistack:HIS:104    0
Name: 94, dtype: object

>  <halogenbond:HIS:104>  (95) 
halogenbond:HIS:104    0
halogenbond:HIS:104    0
Name: 94, dtype: object

>  <hbond:SER:105>  (95) 
hbond:SER:105    0
hbond:SER:105    0
Name: 94, dtype: object

>  <halogenbond:SER:105>  (95) 
halogenbond:SER:105    0
halogenbond:SER:105    0
Name: 94, dtype: object

>  <hbond:GLU:106>  (95) 
hbond:GLU:106    0
hbond:GLU:106    0
Name: 94, dtype: object

>  <hydroph_interaction:GLU:106>  (95) 
hydroph_interaction:GLU:106    0
hydroph_interaction:GLU:106    0
Name: 94, dtype: object

>  <saltbridge:GLU:106>  (95) 
saltbridge:GLU:106    0
saltbridge:GLU:106    0
Name: 94, dtype: object

>  <halogenbond:GLU:106>  (95) 
halogenbond:GLU:106    0
halogenbond:GLU:106    0
Name: 94, dtype: object

>  <hydroph_interaction:PRO:107>  (95) 
hydroph_interaction:PRO:107    1
hydroph_interaction:PRO:107    1
Name: 94, dtype: object

>  <hbond:PRO:107>  (95) 
hbond:PRO:107    0
hbond:PRO:107    0
Name: 94, dtype: object

>  <halogenbond:PRO:107>  (95) 
halogenbond:PRO:107    0
halogenbond:PRO:107    0
Name: 94, dtype: object

>  <hbond:GLY:108>  (95) 
hbond:GLY:108    0
hbond:GLY:108    0
Name: 94, dtype: object

>  <halogenbond:GLY:108>  (95) 
halogenbond:GLY:108    0
halogenbond:GLY:108    0
Name: 94, dtype: object

>  <hbond:ASP:109>  (95) 
hbond:ASP:109    0
hbond:ASP:109    0
Name: 94, dtype: object

>  <hydroph_interaction:ASP:109>  (95) 
hydroph_interaction:ASP:109    0
hydroph_interaction:ASP:109    0
Name: 94, dtype: object

>  <saltbridge:ASP:109>  (95) 
saltbridge:ASP:109    0
saltbridge:ASP:109    0
Name: 94, dtype: object

>  <hbond:CYS:110>  (95) 
hbond:CYS:110    0
hbond:CYS:110    0
Name: 94, dtype: object

>  <halogenbond:CYS:110>  (95) 
halogenbond:CYS:110    0
halogenbond:CYS:110    0
Name: 94, dtype: object

>  <hbond:GLY:111>  (95) 
hbond:GLY:111    0
hbond:GLY:111    0
Name: 94, dtype: object

>  <hbond:GLY:112>  (95) 
hbond:GLY:112    0
hbond:GLY:112    0
Name: 94, dtype: object

>  <hbond:ILE:113>  (95) 
hbond:ILE:113    0
hbond:ILE:113    0
Name: 94, dtype: object

>  <hydroph_interaction:LEU:114>  (95) 
hydroph_interaction:LEU:114    0
hydroph_interaction:LEU:114    0
Name: 94, dtype: object

>  <hbond:LEU:114>  (95) 
hbond:LEU:114    0
hbond:LEU:114    0
Name: 94, dtype: object

>  <hydroph_interaction:ILE:123>  (95) 
hydroph_interaction:ILE:123    0
hydroph_interaction:ILE:123    0
Name: 94, dtype: object

>  <hbond:ILE:123>  (95) 
hbond:ILE:123    0
hbond:ILE:123    0
Name: 94, dtype: object

>  <hydroph_interaction:VAL:124>  (95) 
hydroph_interaction:VAL:124    0
hydroph_interaction:VAL:124    0
Name: 94, dtype: object

>  <hbond:VAL:124>  (95) 
hbond:VAL:124    0
hbond:VAL:124    0
Name: 94, dtype: object

>  <halogenbond:VAL:124>  (95) 
halogenbond:VAL:124    0
halogenbond:VAL:124    0
Name: 94, dtype: object

>  <hbond:SER:125>  (95) 
hbond:SER:125    0
hbond:SER:125    0
Name: 94, dtype: object

>  <halogenbond:SER:125>  (95) 
halogenbond:SER:125    0
halogenbond:SER:125    0
Name: 94, dtype: object

>  <hydroph_interaction:THR:126>  (95) 
hydroph_interaction:THR:126    0
hydroph_interaction:THR:126    0
Name: 94, dtype: object

>  <hbond:THR:126>  (95) 
hbond:THR:126    0
hbond:THR:126    0
Name: 94, dtype: object

>  <halogenbond:THR:126>  (95) 
halogenbond:THR:126    0
halogenbond:THR:126    0
Name: 94, dtype: object

>  <hbond:GLY:127>  (95) 
hbond:GLY:127    0
hbond:GLY:127    0
Name: 94, dtype: object

>  <halogenbond:GLY:127>  (95) 
halogenbond:GLY:127    0
halogenbond:GLY:127    0
Name: 94, dtype: object

>  <hydroph_interaction:GLY:127>  (95) 
hydroph_interaction:GLY:127    0
hydroph_interaction:GLY:127    0
Name: 94, dtype: object

>  <hbond:GLY:128>  (95) 
hbond:GLY:128    0
hbond:GLY:128    0
Name: 94, dtype: object

>  <halogenbond:GLY:128>  (95) 
halogenbond:GLY:128    0
halogenbond:GLY:128    0
Name: 94, dtype: object

>  <hydroph_interaction:GLY:128>  (95) 
hydroph_interaction:GLY:128    0
hydroph_interaction:GLY:128    0
Name: 94, dtype: object

>  <hbond:ASN:129>  (95) 
hbond:ASN:129    0
hbond:ASN:129    0
Name: 94, dtype: object

>  <hydroph_interaction:ASN:129>  (95) 
hydroph_interaction:ASN:129    0
hydroph_interaction:ASN:129    0
Name: 94, dtype: object

>  <halogenbond:ASN:129>  (95) 
halogenbond:ASN:129    0
halogenbond:ASN:129    0
Name: 94, dtype: object

>  <hbond:GLY:130>  (95) 
hbond:GLY:130    0
hbond:GLY:130    0
Name: 94, dtype: object

>  <hydroph_interaction:LEU:131>  (95) 
hydroph_interaction:LEU:131    0
hydroph_interaction:LEU:131    0
Name: 94, dtype: object

>  <hbond:LEU:131>  (95) 
hbond:LEU:131    0
hbond:LEU:131    0
Name: 94, dtype: object

>  <halogenbond:LEU:131>  (95) 
halogenbond:LEU:131    0
halogenbond:LEU:131    0
Name: 94, dtype: object

>  <hydroph_interaction:VAL:132>  (95) 
hydroph_interaction:VAL:132    0
hydroph_interaction:VAL:132    0
Name: 94, dtype: object

>  <hbond:VAL:132>  (95) 
hbond:VAL:132    0
hbond:VAL:132    0
Name: 94, dtype: object

>  <hbond:GLY:133>  (95) 
hbond:GLY:133    0
hbond:GLY:133    0
Name: 94, dtype: object

>  <halogenbond:GLY:133>  (95) 
halogenbond:GLY:133    0
halogenbond:GLY:133    0
Name: 94, dtype: object

>  <hydroph_interaction:PHE:134>  (95) 
hydroph_interaction:PHE:134    0
hydroph_interaction:PHE:134    0
Name: 94, dtype: object

>  <hbond:PHE:134>  (95) 
hbond:PHE:134    0
hbond:PHE:134    0
Name: 94, dtype: object

>  <pistack:PHE:134>  (95) 
pistack:PHE:134    0
pistack:PHE:134    0
Name: 94, dtype: object

>  <pication:PHE:134>  (95) 
pication:PHE:134    0
pication:PHE:134    0
Name: 94, dtype: object

>  <hydroph_interaction:ALA:135>  (95) 
hydroph_interaction:ALA:135    0
hydroph_interaction:ALA:135    0
Name: 94, dtype: object

>  <hbond:ALA:135>  (95) 
hbond:ALA:135    0
hbond:ALA:135    0
Name: 94, dtype: object

$$$$
PV_002917618520
     RDKit          3D

 33 33  0  0  0  0  0  0  0  0999 V2000
    8.7630   15.8480   26.7700 C   0  0  0  0  0  0  0  0  0  0  0  0
    7.5720   15.8860   25.9800 O   0  0  0  0  0  0  0  0  0  0  0  0
    7.4770   14.9040   25.0350 C   0  0  0  0  0  0  0  0  0  0  0  0
    7.0790   15.2130   23.9270 O   0  0  0  0  0  0  0  0  0  0  0  0
    7.8060   13.6130   25.3560 N   0  0  0  0  0  0  0  0  0  0  0  0
    8.4300   12.5690   24.6240 C   0  0  0  0  0  0  0  0  0  0  0  0
    8.1030   11.2650   25.0030 C   0  0  0  0  0  0  0  0  0  0  0  0
    8.7020   10.0510   24.3220 C   0  0  0  0  0  0  0  0  0  0  0  0
    9.6730   10.3650   23.2270 C   0  0  0  0  0  0  0  0  0  0  0  0
   10.3480    9.2730   22.4810 C   0  0  0  0  0  0  0  0  0  0  0  0
    9.9380   11.6720   22.9060 C   0  0  0  0  0  0  0  0  0  0  0  0
    9.3570   12.7670   23.5430 C   0  0  0  0  0  0  0  0  0  0  0  0
    9.8490   14.0810   22.9100 C   0  0  0  0  0  0  0  0  0  0  0  0
   11.3170   14.4000   22.7890 C   0  0  0  0  0  0  0  0  0  0  0  0
   11.8790   15.6250   22.1170 C   0  0  0  0  0  0  0  0  0  0  0  0
   12.4030   13.5350   23.3070 C   0  0  0  0  0  0  0  0  0  0  0  0
    8.6480   15.0660   27.5240 H   0  0  0  0  0  0  0  0  0  0  0  0
    9.6360   15.6400   26.1420 H   0  0  0  0  0  0  0  0  0  0  0  0
    8.9240   16.8070   27.2700 H   0  0  0  0  0  0  0  0  0  0  0  0
    7.5270   13.3540   26.2910 H   0  0  0  0  0  0  0  0  0  0  0  0
    7.4020   11.0660   25.8070 H   0  0  0  0  0  0  0  0  0  0  0  0
    8.4510    9.0450   24.6060 H   0  0  0  0  0  0  0  0  0  0  0  0
   10.9570    8.6130   23.0890 H   0  0  0  0  0  0  0  0  0  0  0  0
   10.9730    9.5910   21.6550 H   0  0  0  0  0  0  0  0  0  0  0  0
    9.5840    8.6640   22.0040 H   0  0  0  0  0  0  0  0  0  0  0  0
   10.6380   11.8660   22.1060 H   0  0  0  0  0  0  0  0  0  0  0  0
    9.0690   14.7260   22.5280 H   0  0  0  0  0  0  0  0  0  0  0  0
   11.2440   15.9290   21.2800 H   0  0  0  0  0  0  0  0  0  0  0  0
   12.8770   15.4390   21.7080 H   0  0  0  0  0  0  0  0  0  0  0  0
   11.9780   16.4490   22.8300 H   0  0  0  0  0  0  0  0  0  0  0  0
   11.9940   12.5730   23.6120 H   0  0  0  0  0  0  0  0  0  0  0  0
   12.9370   13.9550   24.1630 H   0  0  0  0  0  0  0  0  0  0  0  0
   13.1280   13.3720   22.5130 H   0  0  0  0  0  0  0  0  0  0  0  0
  1  2  1  0
  2  3  1  0
  3  4  2  0
  3  5  1  0
  5  6  1  0
  6  7  2  0
  7  8  1  0
  8  9  2  0
  9 10  1  0
  9 11  1  0
 11 12  2  0
 12 13  1  0
 13 14  2  3
 14 15  1  0
 14 16  1  0
 12  6  1  0
  1 17  1  0
  1 18  1  0
  1 19  1  0
  5 20  1  0
  7 21  1  0
  8 22  1  0
 10 23  1  0
 10 24  1  0
 10 25  1  0
 11 26  1  0
 13 27  1  0
 15 28  1  0
 15 29  1  0
 15 30  1  0
 16 31  1  0
 16 32  1  0
 16 33  1  0
A    1
 C1 
A    2
 O1 
A    3
 C2 
A    4
 O2 
A    5
 N1 
A    6
 C3 
A    7
 C4 
A    8
 C5 
A    9
 C6 
A   10
 C7 
A   11
 C8 
A   12
 C9 
A   13
 C10
A   14
 C11
A   15
 C12
A   16
 C13
A   17
 H1 
A   18
 H2 
A   19
 H3 
A   20
 H4 
A   21
 H5 
A   22
 H6 
A   23
 H7 
A   24
 H8 
A   25
 H9 
A   26
 H10
A   27
 H11
A   28
 H12
A   29
 H13
A   30
 H14
A   31
 H15
A   32
 H16
A   33
 H17
M  END
>  <ref_pdb>  (96) 
x0310_0A

>  <ref_mols>  (96) 
x0416_0A,x0556_0A,x0528_0A

>  <original SMILES>  (96) 
COC(=O)Nc1ccc(C)cc1C=C(C)C

>  <rationale>  (96) 
info hydroph_interaction:P107+V124; 

>  <intxn_cluster>  (96) 
103

>  <intxn_cluster_rank>  (96) 
990

>  <N_interactions>  (96) 
2

>  <∆∆G>  (96) 
-11.647267

>  <$/mg>  (96) 
nan

>  <comRMSD>  (96) 
0.975084

>  <N_rotatable_bonds>  (96) 
6

>  <hbond:SER:7>  (96) 
hbond:SER:7    0
hbond:SER:7    0
Name: 95, dtype: object

>  <halogenbond:SER:7>  (96) 
halogenbond:SER:7    0
halogenbond:SER:7    0
Name: 95, dtype: object

>  <hbond:GLY:8>  (96) 
hbond:GLY:8    0
hbond:GLY:8    0
Name: 95, dtype: object

>  <hydroph_interaction:ASN:19>  (96) 
hydroph_interaction:ASN:19    0
hydroph_interaction:ASN:19    0
Name: 95, dtype: object

>  <hbond:ASN:19>  (96) 
hbond:ASN:19    0
hbond:ASN:19    0
Name: 95, dtype: object

>  <halogenbond:ASN:19>  (96) 
halogenbond:ASN:19    0
halogenbond:ASN:19    0
Name: 95, dtype: object

>  <hbond:ARG:20>  (96) 
hbond:ARG:20    0
hbond:ARG:20    0
Name: 95, dtype: object

>  <hydroph_interaction:ARG:20>  (96) 
hydroph_interaction:ARG:20    0
hydroph_interaction:ARG:20    0
Name: 95, dtype: object

>  <saltbridge:ARG:20>  (96) 
saltbridge:ARG:20    0
saltbridge:ARG:20    0
Name: 95, dtype: object

>  <halogenbond:ARG:20>  (96) 
halogenbond:ARG:20    0
halogenbond:ARG:20    0
Name: 95, dtype: object

>  <pication:ARG:20>  (96) 
pication:ARG:20    0
pication:ARG:20    0
Name: 95, dtype: object

>  <hbond:HIS:21>  (96) 
hbond:HIS:21    0
hbond:HIS:21    0
Name: 95, dtype: object

>  <hydroph_interaction:HIS:21>  (96) 
hydroph_interaction:HIS:21    0
hydroph_interaction:HIS:21    0
Name: 95, dtype: object

>  <saltbridge:HIS:21>  (96) 
saltbridge:HIS:21    0
saltbridge:HIS:21    0
Name: 95, dtype: object

>  <pistack:HIS:21>  (96) 
pistack:HIS:21    0
pistack:HIS:21    0
Name: 95, dtype: object

>  <pication:HIS:21>  (96) 
pication:HIS:21    0
pication:HIS:21    0
Name: 95, dtype: object

>  <halogenbond:HIS:21>  (96) 
halogenbond:HIS:21    0
halogenbond:HIS:21    0
Name: 95, dtype: object

>  <hydroph_interaction:LEU:22>  (96) 
hydroph_interaction:LEU:22    0
hydroph_interaction:LEU:22    0
Name: 95, dtype: object

>  <hbond:LEU:22>  (96) 
hbond:LEU:22    0
hbond:LEU:22    0
Name: 95, dtype: object

>  <hydroph_interaction:TRP:28>  (96) 
hydroph_interaction:TRP:28    0
hydroph_interaction:TRP:28    0
Name: 95, dtype: object

>  <hbond:SER:36>  (96) 
hbond:SER:36    0
hbond:SER:36    0
Name: 95, dtype: object

>  <halogenbond:SER:36>  (96) 
halogenbond:SER:36    0
halogenbond:SER:36    0
Name: 95, dtype: object

>  <hbond:ARG:38>  (96) 
hbond:ARG:38    0
hbond:ARG:38    0
Name: 95, dtype: object

>  <halogenbond:ARG:38>  (96) 
halogenbond:ARG:38    0
halogenbond:ARG:38    0
Name: 95, dtype: object

>  <hbond:ASP:39>  (96) 
hbond:ASP:39    0
hbond:ASP:39    0
Name: 95, dtype: object

>  <saltbridge:ASP:39>  (96) 
saltbridge:ASP:39    0
saltbridge:ASP:39    0
Name: 95, dtype: object

>  <hydroph_interaction:ASP:39>  (96) 
hydroph_interaction:ASP:39    0
hydroph_interaction:ASP:39    0
Name: 95, dtype: object

>  <halogenbond:ASP:39>  (96) 
halogenbond:ASP:39    0
halogenbond:ASP:39    0
Name: 95, dtype: object

>  <hydroph_interaction:LEU:40>  (96) 
hydroph_interaction:LEU:40    0
hydroph_interaction:LEU:40    0
Name: 95, dtype: object

>  <hydroph_interaction:TYR:63>  (96) 
hydroph_interaction:TYR:63    0
hydroph_interaction:TYR:63    0
Name: 95, dtype: object

>  <pistack:TYR:63>  (96) 
pistack:TYR:63    0
pistack:TYR:63    0
Name: 95, dtype: object

>  <hbond:TYR:63>  (96) 
hbond:TYR:63    0
hbond:TYR:63    0
Name: 95, dtype: object

>  <hbond:TYR:64>  (96) 
hbond:TYR:64    0
hbond:TYR:64    0
Name: 95, dtype: object

>  <halogenbond:TYR:64>  (96) 
halogenbond:TYR:64    0
halogenbond:TYR:64    0
Name: 95, dtype: object

>  <hydroph_interaction:TYR:64>  (96) 
hydroph_interaction:TYR:64    0
hydroph_interaction:TYR:64    0
Name: 95, dtype: object

>  <hbond:CYS:65>  (96) 
hbond:CYS:65    0
hbond:CYS:65    0
Name: 95, dtype: object

>  <halogenbond:CYS:65>  (96) 
halogenbond:CYS:65    0
halogenbond:CYS:65    0
Name: 95, dtype: object

>  <hbond:SER:66>  (96) 
hbond:SER:66    0
hbond:SER:66    0
Name: 95, dtype: object

>  <hbond:SER:67>  (96) 
hbond:SER:67    0
hbond:SER:67    0
Name: 95, dtype: object

>  <halogenbond:SER:67>  (96) 
halogenbond:SER:67    0
halogenbond:SER:67    0
Name: 95, dtype: object

>  <hydroph_interaction:ARG:68>  (96) 
hydroph_interaction:ARG:68    0
hydroph_interaction:ARG:68    0
Name: 95, dtype: object

>  <hbond:ARG:68>  (96) 
hbond:ARG:68    0
hbond:ARG:68    0
Name: 95, dtype: object

>  <saltbridge:ARG:68>  (96) 
saltbridge:ARG:68    0
saltbridge:ARG:68    0
Name: 95, dtype: object

>  <pication:ARG:68>  (96) 
pication:ARG:68    0
pication:ARG:68    0
Name: 95, dtype: object

>  <hydroph_interaction:TYR:72>  (96) 
hydroph_interaction:TYR:72    0
hydroph_interaction:TYR:72    0
Name: 95, dtype: object

>  <hydroph_interaction:VAL:74>  (96) 
hydroph_interaction:VAL:74    0
hydroph_interaction:VAL:74    0
Name: 95, dtype: object

>  <hydroph_interaction:PHE:76>  (96) 
hydroph_interaction:PHE:76    0
hydroph_interaction:PHE:76    0
Name: 95, dtype: object

>  <hbond:SER:77>  (96) 
hbond:SER:77    0
hbond:SER:77    0
Name: 95, dtype: object

>  <hbond:SER:80>  (96) 
hbond:SER:80    0
hbond:SER:80    0
Name: 95, dtype: object

>  <hbond:LEU:81>  (96) 
hbond:LEU:81    0
hbond:LEU:81    0
Name: 95, dtype: object

>  <halogenbond:LEU:81>  (96) 
halogenbond:LEU:81    0
halogenbond:LEU:81    0
Name: 95, dtype: object

>  <hydroph_interaction:LEU:81>  (96) 
hydroph_interaction:LEU:81    0
hydroph_interaction:LEU:81    0
Name: 95, dtype: object

>  <hydroph_interaction:ILE:82>  (96) 
hydroph_interaction:ILE:82    0
hydroph_interaction:ILE:82    0
Name: 95, dtype: object

>  <hbond:ILE:82>  (96) 
hbond:ILE:82    0
hbond:ILE:82    0
Name: 95, dtype: object

>  <hydroph_interaction:PHE:83>  (96) 
hydroph_interaction:PHE:83    0
hydroph_interaction:PHE:83    0
Name: 95, dtype: object

>  <hbond:PHE:83>  (96) 
hbond:PHE:83    0
hbond:PHE:83    0
Name: 95, dtype: object

>  <halogenbond:PHE:83>  (96) 
halogenbond:PHE:83    0
halogenbond:PHE:83    0
Name: 95, dtype: object

>  <pistack:PHE:83>  (96) 
pistack:PHE:83    0
pistack:PHE:83    0
Name: 95, dtype: object

>  <hydroph_interaction:VAL:84>  (96) 
hydroph_interaction:VAL:84    0
hydroph_interaction:VAL:84    0
Name: 95, dtype: object

>  <hbond:VAL:84>  (96) 
hbond:VAL:84    0
hbond:VAL:84    0
Name: 95, dtype: object

>  <halogenbond:VAL:84>  (96) 
halogenbond:VAL:84    0
halogenbond:VAL:84    0
Name: 95, dtype: object

>  <hydroph_interaction:GLU:85>  (96) 
hydroph_interaction:GLU:85    0
hydroph_interaction:GLU:85    0
Name: 95, dtype: object

>  <hbond:GLU:85>  (96) 
hbond:GLU:85    0
hbond:GLU:85    0
Name: 95, dtype: object

>  <saltbridge:GLU:85>  (96) 
saltbridge:GLU:85    0
saltbridge:GLU:85    0
Name: 95, dtype: object

>  <halogenbond:GLU:85>  (96) 
halogenbond:GLU:85    0
halogenbond:GLU:85    0
Name: 95, dtype: object

>  <hbond:ALA:86>  (96) 
hbond:ALA:86    0
hbond:ALA:86    0
Name: 95, dtype: object

>  <halogenbond:ALA:86>  (96) 
halogenbond:ALA:86    0
halogenbond:ALA:86    0
Name: 95, dtype: object

>  <hydroph_interaction:ALA:86>  (96) 
hydroph_interaction:ALA:86    0
hydroph_interaction:ALA:86    0
Name: 95, dtype: object

>  <hbond:SER:87>  (96) 
hbond:SER:87    0
hbond:SER:87    0
Name: 95, dtype: object

>  <halogenbond:SER:87>  (96) 
halogenbond:SER:87    0
halogenbond:SER:87    0
Name: 95, dtype: object

>  <hbond:GLU:88>  (96) 
hbond:GLU:88    0
hbond:GLU:88    0
Name: 95, dtype: object

>  <hydroph_interaction:GLU:88>  (96) 
hydroph_interaction:GLU:88    0
hydroph_interaction:GLU:88    0
Name: 95, dtype: object

>  <halogenbond:GLU:88>  (96) 
halogenbond:GLU:88    0
halogenbond:GLU:88    0
Name: 95, dtype: object

>  <saltbridge:GLU:88>  (96) 
saltbridge:GLU:88    0
saltbridge:GLU:88    0
Name: 95, dtype: object

>  <hydroph_interaction:TYR:89>  (96) 
hydroph_interaction:TYR:89    0
hydroph_interaction:TYR:89    0
Name: 95, dtype: object

>  <pistack:TYR:89>  (96) 
pistack:TYR:89    0
pistack:TYR:89    0
Name: 95, dtype: object

>  <hbond:TYR:89>  (96) 
hbond:TYR:89    0
hbond:TYR:89    0
Name: 95, dtype: object

>  <halogenbond:TYR:89>  (96) 
halogenbond:TYR:89    0
halogenbond:TYR:89    0
Name: 95, dtype: object

>  <hbond:TYR:90>  (96) 
hbond:TYR:90    0
hbond:TYR:90    0
Name: 95, dtype: object

>  <hydroph_interaction:TYR:90>  (96) 
hydroph_interaction:TYR:90    0
hydroph_interaction:TYR:90    0
Name: 95, dtype: object

>  <pistack:TYR:90>  (96) 
pistack:TYR:90    0
pistack:TYR:90    0
Name: 95, dtype: object

>  <halogenbond:TYR:90>  (96) 
halogenbond:TYR:90    0
halogenbond:TYR:90    0
Name: 95, dtype: object

>  <pication:TYR:90>  (96) 
pication:TYR:90    0
pication:TYR:90    0
Name: 95, dtype: object

>  <hydroph_interaction:PRO:91>  (96) 
hydroph_interaction:PRO:91    0
hydroph_interaction:PRO:91    0
Name: 95, dtype: object

>  <halogenbond:PRO:91>  (96) 
halogenbond:PRO:91    0
halogenbond:PRO:91    0
Name: 95, dtype: object

>  <hbond:PRO:91>  (96) 
hbond:PRO:91    0
hbond:PRO:91    0
Name: 95, dtype: object

>  <hydroph_interaction:ALA:92>  (96) 
hydroph_interaction:ALA:92    0
hydroph_interaction:ALA:92    0
Name: 95, dtype: object

>  <hbond:ARG:93>  (96) 
hbond:ARG:93    0
hbond:ARG:93    0
Name: 95, dtype: object

>  <pication:ARG:93>  (96) 
pication:ARG:93    0
pication:ARG:93    0
Name: 95, dtype: object

>  <saltbridge:ARG:93>  (96) 
saltbridge:ARG:93    0
saltbridge:ARG:93    0
Name: 95, dtype: object

>  <hydroph_interaction:ARG:93>  (96) 
hydroph_interaction:ARG:93    0
hydroph_interaction:ARG:93    0
Name: 95, dtype: object

>  <halogenbond:ARG:93>  (96) 
halogenbond:ARG:93    0
halogenbond:ARG:93    0
Name: 95, dtype: object

>  <hydroph_interaction:TYR:94>  (96) 
hydroph_interaction:TYR:94    0
hydroph_interaction:TYR:94    0
Name: 95, dtype: object

>  <hbond:TYR:94>  (96) 
hbond:TYR:94    0
hbond:TYR:94    0
Name: 95, dtype: object

>  <halogenbond:GLN:95>  (96) 
halogenbond:GLN:95    0
halogenbond:GLN:95    0
Name: 95, dtype: object

>  <hbond:GLN:95>  (96) 
hbond:GLN:95    0
hbond:GLN:95    0
Name: 95, dtype: object

>  <hydroph_interaction:GLN:95>  (96) 
hydroph_interaction:GLN:95    0
hydroph_interaction:GLN:95    0
Name: 95, dtype: object

>  <hbond:SER:96>  (96) 
hbond:SER:96    0
hbond:SER:96    0
Name: 95, dtype: object

>  <hydroph_interaction:LEU:98>  (96) 
hydroph_interaction:LEU:98    0
hydroph_interaction:LEU:98    0
Name: 95, dtype: object

>  <hbond:LEU:98>  (96) 
hbond:LEU:98    0
hbond:LEU:98    0
Name: 95, dtype: object

>  <hbond:MET:99>  (96) 
hbond:MET:99    0
hbond:MET:99    0
Name: 95, dtype: object

>  <hydroph_interaction:MET:99>  (96) 
hydroph_interaction:MET:99    0
hydroph_interaction:MET:99    0
Name: 95, dtype: object

>  <halogenbond:MET:99>  (96) 
halogenbond:MET:99    0
halogenbond:MET:99    0
Name: 95, dtype: object

>  <hydroph_interaction:LEU:100>  (96) 
hydroph_interaction:LEU:100    0
hydroph_interaction:LEU:100    0
Name: 95, dtype: object

>  <hbond:LEU:100>  (96) 
hbond:LEU:100    0
hbond:LEU:100    0
Name: 95, dtype: object

>  <hbond:ALA:101>  (96) 
hbond:ALA:101    0
hbond:ALA:101    0
Name: 95, dtype: object

>  <hydroph_interaction:ALA:101>  (96) 
hydroph_interaction:ALA:101    0
hydroph_interaction:ALA:101    0
Name: 95, dtype: object

>  <hydroph_interaction:VAL:102>  (96) 
hydroph_interaction:VAL:102    0
hydroph_interaction:VAL:102    0
Name: 95, dtype: object

>  <hbond:VAL:102>  (96) 
hbond:VAL:102    0
hbond:VAL:102    0
Name: 95, dtype: object

>  <hbond:GLY:103>  (96) 
hbond:GLY:103    0
hbond:GLY:103    0
Name: 95, dtype: object

>  <halogenbond:GLY:103>  (96) 
halogenbond:GLY:103    0
halogenbond:GLY:103    0
Name: 95, dtype: object

>  <hydroph_interaction:HIS:104>  (96) 
hydroph_interaction:HIS:104    0
hydroph_interaction:HIS:104    0
Name: 95, dtype: object

>  <hbond:HIS:104>  (96) 
hbond:HIS:104    0
hbond:HIS:104    0
Name: 95, dtype: object

>  <saltbridge:HIS:104>  (96) 
saltbridge:HIS:104    0
saltbridge:HIS:104    0
Name: 95, dtype: object

>  <pication:HIS:104>  (96) 
pication:HIS:104    0
pication:HIS:104    0
Name: 95, dtype: object

>  <pistack:HIS:104>  (96) 
pistack:HIS:104    0
pistack:HIS:104    0
Name: 95, dtype: object

>  <halogenbond:HIS:104>  (96) 
halogenbond:HIS:104    0
halogenbond:HIS:104    0
Name: 95, dtype: object

>  <hbond:SER:105>  (96) 
hbond:SER:105    0
hbond:SER:105    0
Name: 95, dtype: object

>  <halogenbond:SER:105>  (96) 
halogenbond:SER:105    0
halogenbond:SER:105    0
Name: 95, dtype: object

>  <hbond:GLU:106>  (96) 
hbond:GLU:106    0
hbond:GLU:106    0
Name: 95, dtype: object

>  <hydroph_interaction:GLU:106>  (96) 
hydroph_interaction:GLU:106    0
hydroph_interaction:GLU:106    0
Name: 95, dtype: object

>  <saltbridge:GLU:106>  (96) 
saltbridge:GLU:106    0
saltbridge:GLU:106    0
Name: 95, dtype: object

>  <halogenbond:GLU:106>  (96) 
halogenbond:GLU:106    0
halogenbond:GLU:106    0
Name: 95, dtype: object

>  <hydroph_interaction:PRO:107>  (96) 
hydroph_interaction:PRO:107    1
hydroph_interaction:PRO:107    1
Name: 95, dtype: object

>  <hbond:PRO:107>  (96) 
hbond:PRO:107    0
hbond:PRO:107    0
Name: 95, dtype: object

>  <halogenbond:PRO:107>  (96) 
halogenbond:PRO:107    0
halogenbond:PRO:107    0
Name: 95, dtype: object

>  <hbond:GLY:108>  (96) 
hbond:GLY:108    0
hbond:GLY:108    0
Name: 95, dtype: object

>  <halogenbond:GLY:108>  (96) 
halogenbond:GLY:108    0
halogenbond:GLY:108    0
Name: 95, dtype: object

>  <hbond:ASP:109>  (96) 
hbond:ASP:109    0
hbond:ASP:109    0
Name: 95, dtype: object

>  <hydroph_interaction:ASP:109>  (96) 
hydroph_interaction:ASP:109    0
hydroph_interaction:ASP:109    0
Name: 95, dtype: object

>  <saltbridge:ASP:109>  (96) 
saltbridge:ASP:109    0
saltbridge:ASP:109    0
Name: 95, dtype: object

>  <hbond:CYS:110>  (96) 
hbond:CYS:110    0
hbond:CYS:110    0
Name: 95, dtype: object

>  <halogenbond:CYS:110>  (96) 
halogenbond:CYS:110    0
halogenbond:CYS:110    0
Name: 95, dtype: object

>  <hbond:GLY:111>  (96) 
hbond:GLY:111    0
hbond:GLY:111    0
Name: 95, dtype: object

>  <hbond:GLY:112>  (96) 
hbond:GLY:112    0
hbond:GLY:112    0
Name: 95, dtype: object

>  <hbond:ILE:113>  (96) 
hbond:ILE:113    0
hbond:ILE:113    0
Name: 95, dtype: object

>  <hydroph_interaction:LEU:114>  (96) 
hydroph_interaction:LEU:114    0
hydroph_interaction:LEU:114    0
Name: 95, dtype: object

>  <hbond:LEU:114>  (96) 
hbond:LEU:114    0
hbond:LEU:114    0
Name: 95, dtype: object

>  <hydroph_interaction:ILE:123>  (96) 
hydroph_interaction:ILE:123    0
hydroph_interaction:ILE:123    0
Name: 95, dtype: object

>  <hbond:ILE:123>  (96) 
hbond:ILE:123    0
hbond:ILE:123    0
Name: 95, dtype: object

>  <hydroph_interaction:VAL:124>  (96) 
hydroph_interaction:VAL:124    1
hydroph_interaction:VAL:124    1
Name: 95, dtype: object

>  <hbond:VAL:124>  (96) 
hbond:VAL:124    0
hbond:VAL:124    0
Name: 95, dtype: object

>  <halogenbond:VAL:124>  (96) 
halogenbond:VAL:124    0
halogenbond:VAL:124    0
Name: 95, dtype: object

>  <hbond:SER:125>  (96) 
hbond:SER:125    0
hbond:SER:125    0
Name: 95, dtype: object

>  <halogenbond:SER:125>  (96) 
halogenbond:SER:125    0
halogenbond:SER:125    0
Name: 95, dtype: object

>  <hydroph_interaction:THR:126>  (96) 
hydroph_interaction:THR:126    0
hydroph_interaction:THR:126    0
Name: 95, dtype: object

>  <hbond:THR:126>  (96) 
hbond:THR:126    0
hbond:THR:126    0
Name: 95, dtype: object

>  <halogenbond:THR:126>  (96) 
halogenbond:THR:126    0
halogenbond:THR:126    0
Name: 95, dtype: object

>  <hbond:GLY:127>  (96) 
hbond:GLY:127    0
hbond:GLY:127    0
Name: 95, dtype: object

>  <halogenbond:GLY:127>  (96) 
halogenbond:GLY:127    0
halogenbond:GLY:127    0
Name: 95, dtype: object

>  <hydroph_interaction:GLY:127>  (96) 
hydroph_interaction:GLY:127    0
hydroph_interaction:GLY:127    0
Name: 95, dtype: object

>  <hbond:GLY:128>  (96) 
hbond:GLY:128    0
hbond:GLY:128    0
Name: 95, dtype: object

>  <halogenbond:GLY:128>  (96) 
halogenbond:GLY:128    0
halogenbond:GLY:128    0
Name: 95, dtype: object

>  <hydroph_interaction:GLY:128>  (96) 
hydroph_interaction:GLY:128    0
hydroph_interaction:GLY:128    0
Name: 95, dtype: object

>  <hbond:ASN:129>  (96) 
hbond:ASN:129    0
hbond:ASN:129    0
Name: 95, dtype: object

>  <hydroph_interaction:ASN:129>  (96) 
hydroph_interaction:ASN:129    0
hydroph_interaction:ASN:129    0
Name: 95, dtype: object

>  <halogenbond:ASN:129>  (96) 
halogenbond:ASN:129    0
halogenbond:ASN:129    0
Name: 95, dtype: object

>  <hbond:GLY:130>  (96) 
hbond:GLY:130    0
hbond:GLY:130    0
Name: 95, dtype: object

>  <hydroph_interaction:LEU:131>  (96) 
hydroph_interaction:LEU:131    0
hydroph_interaction:LEU:131    0
Name: 95, dtype: object

>  <hbond:LEU:131>  (96) 
hbond:LEU:131    0
hbond:LEU:131    0
Name: 95, dtype: object

>  <halogenbond:LEU:131>  (96) 
halogenbond:LEU:131    0
halogenbond:LEU:131    0
Name: 95, dtype: object

>  <hydroph_interaction:VAL:132>  (96) 
hydroph_interaction:VAL:132    0
hydroph_interaction:VAL:132    0
Name: 95, dtype: object

>  <hbond:VAL:132>  (96) 
hbond:VAL:132    0
hbond:VAL:132    0
Name: 95, dtype: object

>  <hbond:GLY:133>  (96) 
hbond:GLY:133    0
hbond:GLY:133    0
Name: 95, dtype: object

>  <halogenbond:GLY:133>  (96) 
halogenbond:GLY:133    0
halogenbond:GLY:133    0
Name: 95, dtype: object

>  <hydroph_interaction:PHE:134>  (96) 
hydroph_interaction:PHE:134    0
hydroph_interaction:PHE:134    0
Name: 95, dtype: object

>  <hbond:PHE:134>  (96) 
hbond:PHE:134    0
hbond:PHE:134    0
Name: 95, dtype: object

>  <pistack:PHE:134>  (96) 
pistack:PHE:134    0
pistack:PHE:134    0
Name: 95, dtype: object

>  <pication:PHE:134>  (96) 
pication:PHE:134    0
pication:PHE:134    0
Name: 95, dtype: object

>  <hydroph_interaction:ALA:135>  (96) 
hydroph_interaction:ALA:135    0
hydroph_interaction:ALA:135    0
Name: 95, dtype: object

>  <hbond:ALA:135>  (96) 
hbond:ALA:135    0
hbond:ALA:135    0
Name: 95, dtype: object

$$$$
PV_003323232710
     RDKit          3D

 26 27  0  0  0  0  0  0  0  0999 V2000
   12.3440   14.8750   22.1020 C   0  0  0  0  0  0  0  0  0  0  0  0
   11.6650   13.7240   22.8050 C   0  0  0  0  0  0  0  0  0  0  0  0
   10.4500   13.2730   22.4720 C   0  0  0  0  0  0  0  0  0  0  0  0
    9.8090   12.2030   23.1010 C   0  0  0  0  0  0  0  0  0  0  0  0
    8.8010   12.4110   24.0510 C   0  0  0  0  0  0  0  0  0  0  0  0
    8.1360   13.8910   24.6550 S   0  0  0  0  0  0  0  0  0  0  0  0
    7.0470   13.0760   25.6860 C   0  0  0  0  0  0  0  0  0  0  0  0
    6.0900   13.8970   26.5630 C   0  0  0  0  0  0  0  0  0  0  0  0
    5.2030   14.5990   25.6980 O   0  0  0  0  0  0  0  0  0  0  0  0
    7.1830   11.7180   25.5810 C   0  0  0  0  0  0  0  0  0  0  0  0
    8.1840   11.3200   24.6480 C   0  0  0  0  0  0  0  0  0  0  0  0
    8.5790   10.0240   24.2950 C   0  0  0  0  0  0  0  0  0  0  0  0
    9.5700    9.8150   23.3620 C   0  0  0  0  0  0  0  0  0  0  0  0
   10.1650   10.8910   22.7800 C   0  0  0  0  0  0  0  0  0  0  0  0
   12.6420   14.5630   21.0950 H   0  0  0  0  0  0  0  0  0  0  0  0
   13.2260   15.2090   22.6570 H   0  0  0  0  0  0  0  0  0  0  0  0
   11.6550   15.7190   22.0290 H   0  0  0  0  0  0  0  0  0  0  0  0
   12.2280   13.2620   23.6150 H   0  0  0  0  0  0  0  0  0  0  0  0
    9.9050   13.7470   21.6620 H   0  0  0  0  0  0  0  0  0  0  0  0
    6.6210   14.6190   27.1960 H   0  0  0  0  0  0  0  0  0  0  0  0
    5.5120   13.1970   27.1810 H   0  0  0  0  0  0  0  0  0  0  0  0
    5.1580   14.0860   24.8700 H   0  0  0  0  0  0  0  0  0  0  0  0
    6.5770   11.0110   26.1590 H   0  0  0  0  0  0  0  0  0  0  0  0
    8.0960    9.1840   24.7610 H   0  0  0  0  0  0  0  0  0  0  0  0
    9.8800    8.8190   23.0850 H   0  0  0  0  0  0  0  0  0  0  0  0
   10.9320   10.7110   22.0490 H   0  0  0  0  0  0  0  0  0  0  0  0
  1  2  1  0
  2  3  2  0
  3  4  1  0
  4  5  2  0
  5  6  1  0
  6  7  1  0
  7  8  1  0
  8  9  1  0
  7 10  2  0
 10 11  1  0
 11 12  2  0
 12 13  1  0
 13 14  2  0
 14  4  1  0
 11  5  1  0
  1 15  1  0
  1 16  1  0
  1 17  1  0
  2 18  1  0
  3 19  1  0
  8 20  1  0
  8 21  1  0
  9 22  1  0
 10 23  1  0
 12 24  1  0
 13 25  1  0
 14 26  1  0
A    1
 C1 
A    2
 C2 
A    3
 C3 
A    4
 C4 
A    5
 C5 
A    6
 S1 
A    7
 C6 
A    8
 C7 
A    9
 O1 
A   10
 C8 
A   11
 C9 
A   12
 C10
A   13
 C11
A   14
 C12
A   15
 H1 
A   16
 H2 
A   17
 H3 
A   18
 H4 
A   19
 H5 
A   20
 H6 
A   21
 H7 
A   22
 H8 
A   23
 H9 
A   24
 H10
A   25
 H11
A   26
 H12
M  END
>  <ref_pdb>  (97) 
x0310_0A

>  <ref_mols>  (97) 
x0554_0A,x0416_0A,x0446_0A

>  <original SMILES>  (97) 
C/C=C/c1cccc2cc(CO)sc12

>  <rationale>  (97) 
info 

>  <intxn_cluster>  (97) 
208

>  <intxn_cluster_rank>  (97) 
1220

>  <N_interactions>  (97) 
0

>  <∆∆G>  (97) 
-8.540031

>  <$/mg>  (97) 
nan

>  <comRMSD>  (97) 
0.971523

>  <N_rotatable_bonds>  (97) 
4

>  <hbond:SER:7>  (97) 
hbond:SER:7    0
hbond:SER:7    0
Name: 96, dtype: object

>  <halogenbond:SER:7>  (97) 
halogenbond:SER:7    0
halogenbond:SER:7    0
Name: 96, dtype: object

>  <hbond:GLY:8>  (97) 
hbond:GLY:8    0
hbond:GLY:8    0
Name: 96, dtype: object

>  <hydroph_interaction:ASN:19>  (97) 
hydroph_interaction:ASN:19    0
hydroph_interaction:ASN:19    0
Name: 96, dtype: object

>  <hbond:ASN:19>  (97) 
hbond:ASN:19    0
hbond:ASN:19    0
Name: 96, dtype: object

>  <halogenbond:ASN:19>  (97) 
halogenbond:ASN:19    0
halogenbond:ASN:19    0
Name: 96, dtype: object

>  <hbond:ARG:20>  (97) 
hbond:ARG:20    0
hbond:ARG:20    0
Name: 96, dtype: object

>  <hydroph_interaction:ARG:20>  (97) 
hydroph_interaction:ARG:20    0
hydroph_interaction:ARG:20    0
Name: 96, dtype: object

>  <saltbridge:ARG:20>  (97) 
saltbridge:ARG:20    0
saltbridge:ARG:20    0
Name: 96, dtype: object

>  <halogenbond:ARG:20>  (97) 
halogenbond:ARG:20    0
halogenbond:ARG:20    0
Name: 96, dtype: object

>  <pication:ARG:20>  (97) 
pication:ARG:20    0
pication:ARG:20    0
Name: 96, dtype: object

>  <hbond:HIS:21>  (97) 
hbond:HIS:21    0
hbond:HIS:21    0
Name: 96, dtype: object

>  <hydroph_interaction:HIS:21>  (97) 
hydroph_interaction:HIS:21    0
hydroph_interaction:HIS:21    0
Name: 96, dtype: object

>  <saltbridge:HIS:21>  (97) 
saltbridge:HIS:21    0
saltbridge:HIS:21    0
Name: 96, dtype: object

>  <pistack:HIS:21>  (97) 
pistack:HIS:21    0
pistack:HIS:21    0
Name: 96, dtype: object

>  <pication:HIS:21>  (97) 
pication:HIS:21    0
pication:HIS:21    0
Name: 96, dtype: object

>  <halogenbond:HIS:21>  (97) 
halogenbond:HIS:21    0
halogenbond:HIS:21    0
Name: 96, dtype: object

>  <hydroph_interaction:LEU:22>  (97) 
hydroph_interaction:LEU:22    0
hydroph_interaction:LEU:22    0
Name: 96, dtype: object

>  <hbond:LEU:22>  (97) 
hbond:LEU:22    0
hbond:LEU:22    0
Name: 96, dtype: object

>  <hydroph_interaction:TRP:28>  (97) 
hydroph_interaction:TRP:28    0
hydroph_interaction:TRP:28    0
Name: 96, dtype: object

>  <hbond:SER:36>  (97) 
hbond:SER:36    0
hbond:SER:36    0
Name: 96, dtype: object

>  <halogenbond:SER:36>  (97) 
halogenbond:SER:36    0
halogenbond:SER:36    0
Name: 96, dtype: object

>  <hbond:ARG:38>  (97) 
hbond:ARG:38    0
hbond:ARG:38    0
Name: 96, dtype: object

>  <halogenbond:ARG:38>  (97) 
halogenbond:ARG:38    0
halogenbond:ARG:38    0
Name: 96, dtype: object

>  <hbond:ASP:39>  (97) 
hbond:ASP:39    0
hbond:ASP:39    0
Name: 96, dtype: object

>  <saltbridge:ASP:39>  (97) 
saltbridge:ASP:39    0
saltbridge:ASP:39    0
Name: 96, dtype: object

>  <hydroph_interaction:ASP:39>  (97) 
hydroph_interaction:ASP:39    0
hydroph_interaction:ASP:39    0
Name: 96, dtype: object

>  <halogenbond:ASP:39>  (97) 
halogenbond:ASP:39    0
halogenbond:ASP:39    0
Name: 96, dtype: object

>  <hydroph_interaction:LEU:40>  (97) 
hydroph_interaction:LEU:40    0
hydroph_interaction:LEU:40    0
Name: 96, dtype: object

>  <hydroph_interaction:TYR:63>  (97) 
hydroph_interaction:TYR:63    0
hydroph_interaction:TYR:63    0
Name: 96, dtype: object

>  <pistack:TYR:63>  (97) 
pistack:TYR:63    0
pistack:TYR:63    0
Name: 96, dtype: object

>  <hbond:TYR:63>  (97) 
hbond:TYR:63    0
hbond:TYR:63    0
Name: 96, dtype: object

>  <hbond:TYR:64>  (97) 
hbond:TYR:64    0
hbond:TYR:64    0
Name: 96, dtype: object

>  <halogenbond:TYR:64>  (97) 
halogenbond:TYR:64    0
halogenbond:TYR:64    0
Name: 96, dtype: object

>  <hydroph_interaction:TYR:64>  (97) 
hydroph_interaction:TYR:64    0
hydroph_interaction:TYR:64    0
Name: 96, dtype: object

>  <hbond:CYS:65>  (97) 
hbond:CYS:65    0
hbond:CYS:65    0
Name: 96, dtype: object

>  <halogenbond:CYS:65>  (97) 
halogenbond:CYS:65    0
halogenbond:CYS:65    0
Name: 96, dtype: object

>  <hbond:SER:66>  (97) 
hbond:SER:66    0
hbond:SER:66    0
Name: 96, dtype: object

>  <hbond:SER:67>  (97) 
hbond:SER:67    0
hbond:SER:67    0
Name: 96, dtype: object

>  <halogenbond:SER:67>  (97) 
halogenbond:SER:67    0
halogenbond:SER:67    0
Name: 96, dtype: object

>  <hydroph_interaction:ARG:68>  (97) 
hydroph_interaction:ARG:68    0
hydroph_interaction:ARG:68    0
Name: 96, dtype: object

>  <hbond:ARG:68>  (97) 
hbond:ARG:68    0
hbond:ARG:68    0
Name: 96, dtype: object

>  <saltbridge:ARG:68>  (97) 
saltbridge:ARG:68    0
saltbridge:ARG:68    0
Name: 96, dtype: object

>  <pication:ARG:68>  (97) 
pication:ARG:68    0
pication:ARG:68    0
Name: 96, dtype: object

>  <hydroph_interaction:TYR:72>  (97) 
hydroph_interaction:TYR:72    0
hydroph_interaction:TYR:72    0
Name: 96, dtype: object

>  <hydroph_interaction:VAL:74>  (97) 
hydroph_interaction:VAL:74    0
hydroph_interaction:VAL:74    0
Name: 96, dtype: object

>  <hydroph_interaction:PHE:76>  (97) 
hydroph_interaction:PHE:76    0
hydroph_interaction:PHE:76    0
Name: 96, dtype: object

>  <hbond:SER:77>  (97) 
hbond:SER:77    0
hbond:SER:77    0
Name: 96, dtype: object

>  <hbond:SER:80>  (97) 
hbond:SER:80    0
hbond:SER:80    0
Name: 96, dtype: object

>  <hbond:LEU:81>  (97) 
hbond:LEU:81    0
hbond:LEU:81    0
Name: 96, dtype: object

>  <halogenbond:LEU:81>  (97) 
halogenbond:LEU:81    0
halogenbond:LEU:81    0
Name: 96, dtype: object

>  <hydroph_interaction:LEU:81>  (97) 
hydroph_interaction:LEU:81    0
hydroph_interaction:LEU:81    0
Name: 96, dtype: object

>  <hydroph_interaction:ILE:82>  (97) 
hydroph_interaction:ILE:82    0
hydroph_interaction:ILE:82    0
Name: 96, dtype: object

>  <hbond:ILE:82>  (97) 
hbond:ILE:82    0
hbond:ILE:82    0
Name: 96, dtype: object

>  <hydroph_interaction:PHE:83>  (97) 
hydroph_interaction:PHE:83    0
hydroph_interaction:PHE:83    0
Name: 96, dtype: object

>  <hbond:PHE:83>  (97) 
hbond:PHE:83    0
hbond:PHE:83    0
Name: 96, dtype: object

>  <halogenbond:PHE:83>  (97) 
halogenbond:PHE:83    0
halogenbond:PHE:83    0
Name: 96, dtype: object

>  <pistack:PHE:83>  (97) 
pistack:PHE:83    0
pistack:PHE:83    0
Name: 96, dtype: object

>  <hydroph_interaction:VAL:84>  (97) 
hydroph_interaction:VAL:84    0
hydroph_interaction:VAL:84    0
Name: 96, dtype: object

>  <hbond:VAL:84>  (97) 
hbond:VAL:84    0
hbond:VAL:84    0
Name: 96, dtype: object

>  <halogenbond:VAL:84>  (97) 
halogenbond:VAL:84    0
halogenbond:VAL:84    0
Name: 96, dtype: object

>  <hydroph_interaction:GLU:85>  (97) 
hydroph_interaction:GLU:85    0
hydroph_interaction:GLU:85    0
Name: 96, dtype: object

>  <hbond:GLU:85>  (97) 
hbond:GLU:85    0
hbond:GLU:85    0
Name: 96, dtype: object

>  <saltbridge:GLU:85>  (97) 
saltbridge:GLU:85    0
saltbridge:GLU:85    0
Name: 96, dtype: object

>  <halogenbond:GLU:85>  (97) 
halogenbond:GLU:85    0
halogenbond:GLU:85    0
Name: 96, dtype: object

>  <hbond:ALA:86>  (97) 
hbond:ALA:86    0
hbond:ALA:86    0
Name: 96, dtype: object

>  <halogenbond:ALA:86>  (97) 
halogenbond:ALA:86    0
halogenbond:ALA:86    0
Name: 96, dtype: object

>  <hydroph_interaction:ALA:86>  (97) 
hydroph_interaction:ALA:86    0
hydroph_interaction:ALA:86    0
Name: 96, dtype: object

>  <hbond:SER:87>  (97) 
hbond:SER:87    0
hbond:SER:87    0
Name: 96, dtype: object

>  <halogenbond:SER:87>  (97) 
halogenbond:SER:87    0
halogenbond:SER:87    0
Name: 96, dtype: object

>  <hbond:GLU:88>  (97) 
hbond:GLU:88    0
hbond:GLU:88    0
Name: 96, dtype: object

>  <hydroph_interaction:GLU:88>  (97) 
hydroph_interaction:GLU:88    0
hydroph_interaction:GLU:88    0
Name: 96, dtype: object

>  <halogenbond:GLU:88>  (97) 
halogenbond:GLU:88    0
halogenbond:GLU:88    0
Name: 96, dtype: object

>  <saltbridge:GLU:88>  (97) 
saltbridge:GLU:88    0
saltbridge:GLU:88    0
Name: 96, dtype: object

>  <hydroph_interaction:TYR:89>  (97) 
hydroph_interaction:TYR:89    0
hydroph_interaction:TYR:89    0
Name: 96, dtype: object

>  <pistack:TYR:89>  (97) 
pistack:TYR:89    0
pistack:TYR:89    0
Name: 96, dtype: object

>  <hbond:TYR:89>  (97) 
hbond:TYR:89    0
hbond:TYR:89    0
Name: 96, dtype: object

>  <halogenbond:TYR:89>  (97) 
halogenbond:TYR:89    0
halogenbond:TYR:89    0
Name: 96, dtype: object

>  <hbond:TYR:90>  (97) 
hbond:TYR:90    0
hbond:TYR:90    0
Name: 96, dtype: object

>  <hydroph_interaction:TYR:90>  (97) 
hydroph_interaction:TYR:90    0
hydroph_interaction:TYR:90    0
Name: 96, dtype: object

>  <pistack:TYR:90>  (97) 
pistack:TYR:90    0
pistack:TYR:90    0
Name: 96, dtype: object

>  <halogenbond:TYR:90>  (97) 
halogenbond:TYR:90    0
halogenbond:TYR:90    0
Name: 96, dtype: object

>  <pication:TYR:90>  (97) 
pication:TYR:90    0
pication:TYR:90    0
Name: 96, dtype: object

>  <hydroph_interaction:PRO:91>  (97) 
hydroph_interaction:PRO:91    0
hydroph_interaction:PRO:91    0
Name: 96, dtype: object

>  <halogenbond:PRO:91>  (97) 
halogenbond:PRO:91    0
halogenbond:PRO:91    0
Name: 96, dtype: object

>  <hbond:PRO:91>  (97) 
hbond:PRO:91    0
hbond:PRO:91    0
Name: 96, dtype: object

>  <hydroph_interaction:ALA:92>  (97) 
hydroph_interaction:ALA:92    0
hydroph_interaction:ALA:92    0
Name: 96, dtype: object

>  <hbond:ARG:93>  (97) 
hbond:ARG:93    0
hbond:ARG:93    0
Name: 96, dtype: object

>  <pication:ARG:93>  (97) 
pication:ARG:93    0
pication:ARG:93    0
Name: 96, dtype: object

>  <saltbridge:ARG:93>  (97) 
saltbridge:ARG:93    0
saltbridge:ARG:93    0
Name: 96, dtype: object

>  <hydroph_interaction:ARG:93>  (97) 
hydroph_interaction:ARG:93    0
hydroph_interaction:ARG:93    0
Name: 96, dtype: object

>  <halogenbond:ARG:93>  (97) 
halogenbond:ARG:93    0
halogenbond:ARG:93    0
Name: 96, dtype: object

>  <hydroph_interaction:TYR:94>  (97) 
hydroph_interaction:TYR:94    0
hydroph_interaction:TYR:94    0
Name: 96, dtype: object

>  <hbond:TYR:94>  (97) 
hbond:TYR:94    0
hbond:TYR:94    0
Name: 96, dtype: object

>  <halogenbond:GLN:95>  (97) 
halogenbond:GLN:95    0
halogenbond:GLN:95    0
Name: 96, dtype: object

>  <hbond:GLN:95>  (97) 
hbond:GLN:95    0
hbond:GLN:95    0
Name: 96, dtype: object

>  <hydroph_interaction:GLN:95>  (97) 
hydroph_interaction:GLN:95    0
hydroph_interaction:GLN:95    0
Name: 96, dtype: object

>  <hbond:SER:96>  (97) 
hbond:SER:96    0
hbond:SER:96    0
Name: 96, dtype: object

>  <hydroph_interaction:LEU:98>  (97) 
hydroph_interaction:LEU:98    0
hydroph_interaction:LEU:98    0
Name: 96, dtype: object

>  <hbond:LEU:98>  (97) 
hbond:LEU:98    0
hbond:LEU:98    0
Name: 96, dtype: object

>  <hbond:MET:99>  (97) 
hbond:MET:99    0
hbond:MET:99    0
Name: 96, dtype: object

>  <hydroph_interaction:MET:99>  (97) 
hydroph_interaction:MET:99    0
hydroph_interaction:MET:99    0
Name: 96, dtype: object

>  <halogenbond:MET:99>  (97) 
halogenbond:MET:99    0
halogenbond:MET:99    0
Name: 96, dtype: object

>  <hydroph_interaction:LEU:100>  (97) 
hydroph_interaction:LEU:100    0
hydroph_interaction:LEU:100    0
Name: 96, dtype: object

>  <hbond:LEU:100>  (97) 
hbond:LEU:100    0
hbond:LEU:100    0
Name: 96, dtype: object

>  <hbond:ALA:101>  (97) 
hbond:ALA:101    0
hbond:ALA:101    0
Name: 96, dtype: object

>  <hydroph_interaction:ALA:101>  (97) 
hydroph_interaction:ALA:101    0
hydroph_interaction:ALA:101    0
Name: 96, dtype: object

>  <hydroph_interaction:VAL:102>  (97) 
hydroph_interaction:VAL:102    0
hydroph_interaction:VAL:102    0
Name: 96, dtype: object

>  <hbond:VAL:102>  (97) 
hbond:VAL:102    0
hbond:VAL:102    0
Name: 96, dtype: object

>  <hbond:GLY:103>  (97) 
hbond:GLY:103    0
hbond:GLY:103    0
Name: 96, dtype: object

>  <halogenbond:GLY:103>  (97) 
halogenbond:GLY:103    0
halogenbond:GLY:103    0
Name: 96, dtype: object

>  <hydroph_interaction:HIS:104>  (97) 
hydroph_interaction:HIS:104    0
hydroph_interaction:HIS:104    0
Name: 96, dtype: object

>  <hbond:HIS:104>  (97) 
hbond:HIS:104    0
hbond:HIS:104    0
Name: 96, dtype: object

>  <saltbridge:HIS:104>  (97) 
saltbridge:HIS:104    0
saltbridge:HIS:104    0
Name: 96, dtype: object

>  <pication:HIS:104>  (97) 
pication:HIS:104    0
pication:HIS:104    0
Name: 96, dtype: object

>  <pistack:HIS:104>  (97) 
pistack:HIS:104    0
pistack:HIS:104    0
Name: 96, dtype: object

>  <halogenbond:HIS:104>  (97) 
halogenbond:HIS:104    0
halogenbond:HIS:104    0
Name: 96, dtype: object

>  <hbond:SER:105>  (97) 
hbond:SER:105    0
hbond:SER:105    0
Name: 96, dtype: object

>  <halogenbond:SER:105>  (97) 
halogenbond:SER:105    0
halogenbond:SER:105    0
Name: 96, dtype: object

>  <hbond:GLU:106>  (97) 
hbond:GLU:106    0
hbond:GLU:106    0
Name: 96, dtype: object

>  <hydroph_interaction:GLU:106>  (97) 
hydroph_interaction:GLU:106    0
hydroph_interaction:GLU:106    0
Name: 96, dtype: object

>  <saltbridge:GLU:106>  (97) 
saltbridge:GLU:106    0
saltbridge:GLU:106    0
Name: 96, dtype: object

>  <halogenbond:GLU:106>  (97) 
halogenbond:GLU:106    0
halogenbond:GLU:106    0
Name: 96, dtype: object

>  <hydroph_interaction:PRO:107>  (97) 
hydroph_interaction:PRO:107    0
hydroph_interaction:PRO:107    0
Name: 96, dtype: object

>  <hbond:PRO:107>  (97) 
hbond:PRO:107    0
hbond:PRO:107    0
Name: 96, dtype: object

>  <halogenbond:PRO:107>  (97) 
halogenbond:PRO:107    0
halogenbond:PRO:107    0
Name: 96, dtype: object

>  <hbond:GLY:108>  (97) 
hbond:GLY:108    0
hbond:GLY:108    0
Name: 96, dtype: object

>  <halogenbond:GLY:108>  (97) 
halogenbond:GLY:108    0
halogenbond:GLY:108    0
Name: 96, dtype: object

>  <hbond:ASP:109>  (97) 
hbond:ASP:109    0
hbond:ASP:109    0
Name: 96, dtype: object

>  <hydroph_interaction:ASP:109>  (97) 
hydroph_interaction:ASP:109    0
hydroph_interaction:ASP:109    0
Name: 96, dtype: object

>  <saltbridge:ASP:109>  (97) 
saltbridge:ASP:109    0
saltbridge:ASP:109    0
Name: 96, dtype: object

>  <hbond:CYS:110>  (97) 
hbond:CYS:110    0
hbond:CYS:110    0
Name: 96, dtype: object

>  <halogenbond:CYS:110>  (97) 
halogenbond:CYS:110    0
halogenbond:CYS:110    0
Name: 96, dtype: object

>  <hbond:GLY:111>  (97) 
hbond:GLY:111    0
hbond:GLY:111    0
Name: 96, dtype: object

>  <hbond:GLY:112>  (97) 
hbond:GLY:112    0
hbond:GLY:112    0
Name: 96, dtype: object

>  <hbond:ILE:113>  (97) 
hbond:ILE:113    0
hbond:ILE:113    0
Name: 96, dtype: object

>  <hydroph_interaction:LEU:114>  (97) 
hydroph_interaction:LEU:114    0
hydroph_interaction:LEU:114    0
Name: 96, dtype: object

>  <hbond:LEU:114>  (97) 
hbond:LEU:114    0
hbond:LEU:114    0
Name: 96, dtype: object

>  <hydroph_interaction:ILE:123>  (97) 
hydroph_interaction:ILE:123    0
hydroph_interaction:ILE:123    0
Name: 96, dtype: object

>  <hbond:ILE:123>  (97) 
hbond:ILE:123    0
hbond:ILE:123    0
Name: 96, dtype: object

>  <hydroph_interaction:VAL:124>  (97) 
hydroph_interaction:VAL:124    0
hydroph_interaction:VAL:124    0
Name: 96, dtype: object

>  <hbond:VAL:124>  (97) 
hbond:VAL:124    0
hbond:VAL:124    0
Name: 96, dtype: object

>  <halogenbond:VAL:124>  (97) 
halogenbond:VAL:124    0
halogenbond:VAL:124    0
Name: 96, dtype: object

>  <hbond:SER:125>  (97) 
hbond:SER:125    0
hbond:SER:125    0
Name: 96, dtype: object

>  <halogenbond:SER:125>  (97) 
halogenbond:SER:125    0
halogenbond:SER:125    0
Name: 96, dtype: object

>  <hydroph_interaction:THR:126>  (97) 
hydroph_interaction:THR:126    0
hydroph_interaction:THR:126    0
Name: 96, dtype: object

>  <hbond:THR:126>  (97) 
hbond:THR:126    0
hbond:THR:126    0
Name: 96, dtype: object

>  <halogenbond:THR:126>  (97) 
halogenbond:THR:126    0
halogenbond:THR:126    0
Name: 96, dtype: object

>  <hbond:GLY:127>  (97) 
hbond:GLY:127    0
hbond:GLY:127    0
Name: 96, dtype: object

>  <halogenbond:GLY:127>  (97) 
halogenbond:GLY:127    0
halogenbond:GLY:127    0
Name: 96, dtype: object

>  <hydroph_interaction:GLY:127>  (97) 
hydroph_interaction:GLY:127    0
hydroph_interaction:GLY:127    0
Name: 96, dtype: object

>  <hbond:GLY:128>  (97) 
hbond:GLY:128    0
hbond:GLY:128    0
Name: 96, dtype: object

>  <halogenbond:GLY:128>  (97) 
halogenbond:GLY:128    0
halogenbond:GLY:128    0
Name: 96, dtype: object

>  <hydroph_interaction:GLY:128>  (97) 
hydroph_interaction:GLY:128    0
hydroph_interaction:GLY:128    0
Name: 96, dtype: object

>  <hbond:ASN:129>  (97) 
hbond:ASN:129    0
hbond:ASN:129    0
Name: 96, dtype: object

>  <hydroph_interaction:ASN:129>  (97) 
hydroph_interaction:ASN:129    0
hydroph_interaction:ASN:129    0
Name: 96, dtype: object

>  <halogenbond:ASN:129>  (97) 
halogenbond:ASN:129    0
halogenbond:ASN:129    0
Name: 96, dtype: object

>  <hbond:GLY:130>  (97) 
hbond:GLY:130    0
hbond:GLY:130    0
Name: 96, dtype: object

>  <hydroph_interaction:LEU:131>  (97) 
hydroph_interaction:LEU:131    0
hydroph_interaction:LEU:131    0
Name: 96, dtype: object

>  <hbond:LEU:131>  (97) 
hbond:LEU:131    0
hbond:LEU:131    0
Name: 96, dtype: object

>  <halogenbond:LEU:131>  (97) 
halogenbond:LEU:131    0
halogenbond:LEU:131    0
Name: 96, dtype: object

>  <hydroph_interaction:VAL:132>  (97) 
hydroph_interaction:VAL:132    0
hydroph_interaction:VAL:132    0
Name: 96, dtype: object

>  <hbond:VAL:132>  (97) 
hbond:VAL:132    0
hbond:VAL:132    0
Name: 96, dtype: object

>  <hbond:GLY:133>  (97) 
hbond:GLY:133    0
hbond:GLY:133    0
Name: 96, dtype: object

>  <halogenbond:GLY:133>  (97) 
halogenbond:GLY:133    0
halogenbond:GLY:133    0
Name: 96, dtype: object

>  <hydroph_interaction:PHE:134>  (97) 
hydroph_interaction:PHE:134    0
hydroph_interaction:PHE:134    0
Name: 96, dtype: object

>  <hbond:PHE:134>  (97) 
hbond:PHE:134    0
hbond:PHE:134    0
Name: 96, dtype: object

>  <pistack:PHE:134>  (97) 
pistack:PHE:134    0
pistack:PHE:134    0
Name: 96, dtype: object

>  <pication:PHE:134>  (97) 
pication:PHE:134    0
pication:PHE:134    0
Name: 96, dtype: object

>  <hydroph_interaction:ALA:135>  (97) 
hydroph_interaction:ALA:135    0
hydroph_interaction:ALA:135    0
Name: 96, dtype: object

>  <hbond:ALA:135>  (97) 
hbond:ALA:135    0
hbond:ALA:135    0
Name: 96, dtype: object

$$$$
Z26522783
     RDKit          3D

 25 25  0  0  0  0  0  0  0  0999 V2000
    8.7630   16.1180   26.9260 C   0  0  0  0  0  0  0  0  0  0  0  0
    7.3760   15.8000   26.3920 C   0  0  0  0  0  0  0  0  0  0  0  0
    7.4440   14.7540   25.2880 C   0  0  0  0  0  0  0  0  0  0  0  0
    7.5470   15.1120   24.1290 O   0  0  0  0  0  0  0  0  0  0  0  0
    7.3760   13.4720   25.6310 N   0  0  0  0  0  0  0  0  0  0  0  0
    8.0760   12.5880   24.9320 C   0  0  0  0  0  0  0  0  0  0  0  0
    9.0900   12.8850   24.0090 C   0  0  0  0  0  0  0  0  0  0  0  0
    9.7620   11.8680   23.3370 C   0  0  0  0  0  0  0  0  0  0  0  0
    9.4290   10.5310   23.5780 C   0  0  0  0  0  0  0  0  0  0  0  0
   10.1020    9.5200   22.9100 C   0  0  0  0  0  0  0  0  0  0  0  0
    8.4180   10.2380   24.4940 C   0  0  0  0  0  0  0  0  0  0  0  0
    7.7500   11.2620   25.1620 C   0  0  0  0  0  0  0  0  0  0  0  0
    6.3670   10.8550   26.4120 Br  0  0  0  0  0  0  0  0  0  0  0  0
    9.5270   15.9270   26.1640 H   0  0  0  0  0  0  0  0  0  0  0  0
    8.9910   15.4950   27.7950 H   0  0  0  0  0  0  0  0  0  0  0  0
    8.8340   17.1660   27.2280 H   0  0  0  0  0  0  0  0  0  0  0  0
    6.8980   16.7140   26.0200 H   0  0  0  0  0  0  0  0  0  0  0  0
    6.7480   15.4310   27.2170 H   0  0  0  0  0  0  0  0  0  0  0  0
    6.4750   13.1330   25.9550 H   0  0  0  0  0  0  0  0  0  0  0  0
    9.3490   13.9230   23.8230 H   0  0  0  0  0  0  0  0  0  0  0  0
   10.5460   12.1200   22.6270 H   0  0  0  0  0  0  0  0  0  0  0  0
    9.4630    8.6430   22.7790 H   0  0  0  0  0  0  0  0  0  0  0  0
   11.0040    9.2270   23.4560 H   0  0  0  0  0  0  0  0  0  0  0  0
   10.4020    9.8440   21.9180 H   0  0  0  0  0  0  0  0  0  0  0  0
    8.1560    9.2110   24.6800 H   0  0  0  0  0  0  0  0  0  0  0  0
  1  2  1  0
  2  3  1  0
  3  4  2  0
  3  5  1  0
  5  6  1  0
  6  7  2  0
  7  8  1  0
  8  9  2  0
  9 10  1  0
  9 11  1  0
 11 12  2  0
 12 13  1  0
 12  6  1  0
  1 14  1  0
  1 15  1  0
  1 16  1  0
  2 17  1  0
  2 18  1  0
  5 19  1  0
  7 20  1  0
  8 21  1  0
 10 22  1  0
 10 23  1  0
 10 24  1  0
 11 25  1  0
A    1
 C1 
A    2
 C2 
A    3
 C3 
A    4
 O1 
A    5
 N1 
A    6
 C4 
A    7
 C5 
A    8
 C6 
A    9
 C7 
A   10
 C8 
A   11
 C9 
A   12
 C10
A   13
BR1 
A   14
 H1 
A   15
 H2 
A   16
 H3 
A   17
 H4 
A   18
 H5 
A   19
 H6 
A   20
 H7 
A   21
 H8 
A   22
 H9 
A   23
 H10
A   24
 H11
A   25
 H12
M  END
>  <ref_pdb>  (98) 
x0310_0A

>  <ref_mols>  (98) 
x0416_0A,x0451_0A,x1097_0A

>  <original SMILES>  (98) 
CCC(=O)Nc1ccc(C)cc1Br

>  <rationale>  (98) 
info hydroph_interaction:V124; 

>  <intxn_cluster>  (98) 
103

>  <intxn_cluster_rank>  (98) 
1277

>  <N_interactions>  (98) 
1

>  <∆∆G>  (98) 
-9.268314

>  <$/mg>  (98) 
nan

>  <comRMSD>  (98) 
0.85531

>  <N_rotatable_bonds>  (98) 
4

>  <hbond:SER:7>  (98) 
hbond:SER:7    0
hbond:SER:7    0
Name: 97, dtype: object

>  <halogenbond:SER:7>  (98) 
halogenbond:SER:7    0
halogenbond:SER:7    0
Name: 97, dtype: object

>  <hbond:GLY:8>  (98) 
hbond:GLY:8    0
hbond:GLY:8    0
Name: 97, dtype: object

>  <hydroph_interaction:ASN:19>  (98) 
hydroph_interaction:ASN:19    0
hydroph_interaction:ASN:19    0
Name: 97, dtype: object

>  <hbond:ASN:19>  (98) 
hbond:ASN:19    0
hbond:ASN:19    0
Name: 97, dtype: object

>  <halogenbond:ASN:19>  (98) 
halogenbond:ASN:19    0
halogenbond:ASN:19    0
Name: 97, dtype: object

>  <hbond:ARG:20>  (98) 
hbond:ARG:20    0
hbond:ARG:20    0
Name: 97, dtype: object

>  <hydroph_interaction:ARG:20>  (98) 
hydroph_interaction:ARG:20    0
hydroph_interaction:ARG:20    0
Name: 97, dtype: object

>  <saltbridge:ARG:20>  (98) 
saltbridge:ARG:20    0
saltbridge:ARG:20    0
Name: 97, dtype: object

>  <halogenbond:ARG:20>  (98) 
halogenbond:ARG:20    0
halogenbond:ARG:20    0
Name: 97, dtype: object

>  <pication:ARG:20>  (98) 
pication:ARG:20    0
pication:ARG:20    0
Name: 97, dtype: object

>  <hbond:HIS:21>  (98) 
hbond:HIS:21    0
hbond:HIS:21    0
Name: 97, dtype: object

>  <hydroph_interaction:HIS:21>  (98) 
hydroph_interaction:HIS:21    0
hydroph_interaction:HIS:21    0
Name: 97, dtype: object

>  <saltbridge:HIS:21>  (98) 
saltbridge:HIS:21    0
saltbridge:HIS:21    0
Name: 97, dtype: object

>  <pistack:HIS:21>  (98) 
pistack:HIS:21    0
pistack:HIS:21    0
Name: 97, dtype: object

>  <pication:HIS:21>  (98) 
pication:HIS:21    0
pication:HIS:21    0
Name: 97, dtype: object

>  <halogenbond:HIS:21>  (98) 
halogenbond:HIS:21    0
halogenbond:HIS:21    0
Name: 97, dtype: object

>  <hydroph_interaction:LEU:22>  (98) 
hydroph_interaction:LEU:22    0
hydroph_interaction:LEU:22    0
Name: 97, dtype: object

>  <hbond:LEU:22>  (98) 
hbond:LEU:22    0
hbond:LEU:22    0
Name: 97, dtype: object

>  <hydroph_interaction:TRP:28>  (98) 
hydroph_interaction:TRP:28    0
hydroph_interaction:TRP:28    0
Name: 97, dtype: object

>  <hbond:SER:36>  (98) 
hbond:SER:36    0
hbond:SER:36    0
Name: 97, dtype: object

>  <halogenbond:SER:36>  (98) 
halogenbond:SER:36    0
halogenbond:SER:36    0
Name: 97, dtype: object

>  <hbond:ARG:38>  (98) 
hbond:ARG:38    0
hbond:ARG:38    0
Name: 97, dtype: object

>  <halogenbond:ARG:38>  (98) 
halogenbond:ARG:38    0
halogenbond:ARG:38    0
Name: 97, dtype: object

>  <hbond:ASP:39>  (98) 
hbond:ASP:39    0
hbond:ASP:39    0
Name: 97, dtype: object

>  <saltbridge:ASP:39>  (98) 
saltbridge:ASP:39    0
saltbridge:ASP:39    0
Name: 97, dtype: object

>  <hydroph_interaction:ASP:39>  (98) 
hydroph_interaction:ASP:39    0
hydroph_interaction:ASP:39    0
Name: 97, dtype: object

>  <halogenbond:ASP:39>  (98) 
halogenbond:ASP:39    0
halogenbond:ASP:39    0
Name: 97, dtype: object

>  <hydroph_interaction:LEU:40>  (98) 
hydroph_interaction:LEU:40    0
hydroph_interaction:LEU:40    0
Name: 97, dtype: object

>  <hydroph_interaction:TYR:63>  (98) 
hydroph_interaction:TYR:63    0
hydroph_interaction:TYR:63    0
Name: 97, dtype: object

>  <pistack:TYR:63>  (98) 
pistack:TYR:63    0
pistack:TYR:63    0
Name: 97, dtype: object

>  <hbond:TYR:63>  (98) 
hbond:TYR:63    0
hbond:TYR:63    0
Name: 97, dtype: object

>  <hbond:TYR:64>  (98) 
hbond:TYR:64    0
hbond:TYR:64    0
Name: 97, dtype: object

>  <halogenbond:TYR:64>  (98) 
halogenbond:TYR:64    0
halogenbond:TYR:64    0
Name: 97, dtype: object

>  <hydroph_interaction:TYR:64>  (98) 
hydroph_interaction:TYR:64    0
hydroph_interaction:TYR:64    0
Name: 97, dtype: object

>  <hbond:CYS:65>  (98) 
hbond:CYS:65    0
hbond:CYS:65    0
Name: 97, dtype: object

>  <halogenbond:CYS:65>  (98) 
halogenbond:CYS:65    0
halogenbond:CYS:65    0
Name: 97, dtype: object

>  <hbond:SER:66>  (98) 
hbond:SER:66    0
hbond:SER:66    0
Name: 97, dtype: object

>  <hbond:SER:67>  (98) 
hbond:SER:67    0
hbond:SER:67    0
Name: 97, dtype: object

>  <halogenbond:SER:67>  (98) 
halogenbond:SER:67    0
halogenbond:SER:67    0
Name: 97, dtype: object

>  <hydroph_interaction:ARG:68>  (98) 
hydroph_interaction:ARG:68    0
hydroph_interaction:ARG:68    0
Name: 97, dtype: object

>  <hbond:ARG:68>  (98) 
hbond:ARG:68    0
hbond:ARG:68    0
Name: 97, dtype: object

>  <saltbridge:ARG:68>  (98) 
saltbridge:ARG:68    0
saltbridge:ARG:68    0
Name: 97, dtype: object

>  <pication:ARG:68>  (98) 
pication:ARG:68    0
pication:ARG:68    0
Name: 97, dtype: object

>  <hydroph_interaction:TYR:72>  (98) 
hydroph_interaction:TYR:72    0
hydroph_interaction:TYR:72    0
Name: 97, dtype: object

>  <hydroph_interaction:VAL:74>  (98) 
hydroph_interaction:VAL:74    0
hydroph_interaction:VAL:74    0
Name: 97, dtype: object

>  <hydroph_interaction:PHE:76>  (98) 
hydroph_interaction:PHE:76    0
hydroph_interaction:PHE:76    0
Name: 97, dtype: object

>  <hbond:SER:77>  (98) 
hbond:SER:77    0
hbond:SER:77    0
Name: 97, dtype: object

>  <hbond:SER:80>  (98) 
hbond:SER:80    0
hbond:SER:80    0
Name: 97, dtype: object

>  <hbond:LEU:81>  (98) 
hbond:LEU:81    0
hbond:LEU:81    0
Name: 97, dtype: object

>  <halogenbond:LEU:81>  (98) 
halogenbond:LEU:81    0
halogenbond:LEU:81    0
Name: 97, dtype: object

>  <hydroph_interaction:LEU:81>  (98) 
hydroph_interaction:LEU:81    0
hydroph_interaction:LEU:81    0
Name: 97, dtype: object

>  <hydroph_interaction:ILE:82>  (98) 
hydroph_interaction:ILE:82    0
hydroph_interaction:ILE:82    0
Name: 97, dtype: object

>  <hbond:ILE:82>  (98) 
hbond:ILE:82    0
hbond:ILE:82    0
Name: 97, dtype: object

>  <hydroph_interaction:PHE:83>  (98) 
hydroph_interaction:PHE:83    0
hydroph_interaction:PHE:83    0
Name: 97, dtype: object

>  <hbond:PHE:83>  (98) 
hbond:PHE:83    0
hbond:PHE:83    0
Name: 97, dtype: object

>  <halogenbond:PHE:83>  (98) 
halogenbond:PHE:83    0
halogenbond:PHE:83    0
Name: 97, dtype: object

>  <pistack:PHE:83>  (98) 
pistack:PHE:83    0
pistack:PHE:83    0
Name: 97, dtype: object

>  <hydroph_interaction:VAL:84>  (98) 
hydroph_interaction:VAL:84    0
hydroph_interaction:VAL:84    0
Name: 97, dtype: object

>  <hbond:VAL:84>  (98) 
hbond:VAL:84    0
hbond:VAL:84    0
Name: 97, dtype: object

>  <halogenbond:VAL:84>  (98) 
halogenbond:VAL:84    0
halogenbond:VAL:84    0
Name: 97, dtype: object

>  <hydroph_interaction:GLU:85>  (98) 
hydroph_interaction:GLU:85    0
hydroph_interaction:GLU:85    0
Name: 97, dtype: object

>  <hbond:GLU:85>  (98) 
hbond:GLU:85    0
hbond:GLU:85    0
Name: 97, dtype: object

>  <saltbridge:GLU:85>  (98) 
saltbridge:GLU:85    0
saltbridge:GLU:85    0
Name: 97, dtype: object

>  <halogenbond:GLU:85>  (98) 
halogenbond:GLU:85    0
halogenbond:GLU:85    0
Name: 97, dtype: object

>  <hbond:ALA:86>  (98) 
hbond:ALA:86    0
hbond:ALA:86    0
Name: 97, dtype: object

>  <halogenbond:ALA:86>  (98) 
halogenbond:ALA:86    0
halogenbond:ALA:86    0
Name: 97, dtype: object

>  <hydroph_interaction:ALA:86>  (98) 
hydroph_interaction:ALA:86    0
hydroph_interaction:ALA:86    0
Name: 97, dtype: object

>  <hbond:SER:87>  (98) 
hbond:SER:87    0
hbond:SER:87    0
Name: 97, dtype: object

>  <halogenbond:SER:87>  (98) 
halogenbond:SER:87    0
halogenbond:SER:87    0
Name: 97, dtype: object

>  <hbond:GLU:88>  (98) 
hbond:GLU:88    0
hbond:GLU:88    0
Name: 97, dtype: object

>  <hydroph_interaction:GLU:88>  (98) 
hydroph_interaction:GLU:88    0
hydroph_interaction:GLU:88    0
Name: 97, dtype: object

>  <halogenbond:GLU:88>  (98) 
halogenbond:GLU:88    0
halogenbond:GLU:88    0
Name: 97, dtype: object

>  <saltbridge:GLU:88>  (98) 
saltbridge:GLU:88    0
saltbridge:GLU:88    0
Name: 97, dtype: object

>  <hydroph_interaction:TYR:89>  (98) 
hydroph_interaction:TYR:89    0
hydroph_interaction:TYR:89    0
Name: 97, dtype: object

>  <pistack:TYR:89>  (98) 
pistack:TYR:89    0
pistack:TYR:89    0
Name: 97, dtype: object

>  <hbond:TYR:89>  (98) 
hbond:TYR:89    0
hbond:TYR:89    0
Name: 97, dtype: object

>  <halogenbond:TYR:89>  (98) 
halogenbond:TYR:89    0
halogenbond:TYR:89    0
Name: 97, dtype: object

>  <hbond:TYR:90>  (98) 
hbond:TYR:90    0
hbond:TYR:90    0
Name: 97, dtype: object

>  <hydroph_interaction:TYR:90>  (98) 
hydroph_interaction:TYR:90    0
hydroph_interaction:TYR:90    0
Name: 97, dtype: object

>  <pistack:TYR:90>  (98) 
pistack:TYR:90    0
pistack:TYR:90    0
Name: 97, dtype: object

>  <halogenbond:TYR:90>  (98) 
halogenbond:TYR:90    0
halogenbond:TYR:90    0
Name: 97, dtype: object

>  <pication:TYR:90>  (98) 
pication:TYR:90    0
pication:TYR:90    0
Name: 97, dtype: object

>  <hydroph_interaction:PRO:91>  (98) 
hydroph_interaction:PRO:91    0
hydroph_interaction:PRO:91    0
Name: 97, dtype: object

>  <halogenbond:PRO:91>  (98) 
halogenbond:PRO:91    0
halogenbond:PRO:91    0
Name: 97, dtype: object

>  <hbond:PRO:91>  (98) 
hbond:PRO:91    0
hbond:PRO:91    0
Name: 97, dtype: object

>  <hydroph_interaction:ALA:92>  (98) 
hydroph_interaction:ALA:92    0
hydroph_interaction:ALA:92    0
Name: 97, dtype: object

>  <hbond:ARG:93>  (98) 
hbond:ARG:93    0
hbond:ARG:93    0
Name: 97, dtype: object

>  <pication:ARG:93>  (98) 
pication:ARG:93    0
pication:ARG:93    0
Name: 97, dtype: object

>  <saltbridge:ARG:93>  (98) 
saltbridge:ARG:93    0
saltbridge:ARG:93    0
Name: 97, dtype: object

>  <hydroph_interaction:ARG:93>  (98) 
hydroph_interaction:ARG:93    0
hydroph_interaction:ARG:93    0
Name: 97, dtype: object

>  <halogenbond:ARG:93>  (98) 
halogenbond:ARG:93    0
halogenbond:ARG:93    0
Name: 97, dtype: object

>  <hydroph_interaction:TYR:94>  (98) 
hydroph_interaction:TYR:94    0
hydroph_interaction:TYR:94    0
Name: 97, dtype: object

>  <hbond:TYR:94>  (98) 
hbond:TYR:94    0
hbond:TYR:94    0
Name: 97, dtype: object

>  <halogenbond:GLN:95>  (98) 
halogenbond:GLN:95    0
halogenbond:GLN:95    0
Name: 97, dtype: object

>  <hbond:GLN:95>  (98) 
hbond:GLN:95    0
hbond:GLN:95    0
Name: 97, dtype: object

>  <hydroph_interaction:GLN:95>  (98) 
hydroph_interaction:GLN:95    0
hydroph_interaction:GLN:95    0
Name: 97, dtype: object

>  <hbond:SER:96>  (98) 
hbond:SER:96    0
hbond:SER:96    0
Name: 97, dtype: object

>  <hydroph_interaction:LEU:98>  (98) 
hydroph_interaction:LEU:98    0
hydroph_interaction:LEU:98    0
Name: 97, dtype: object

>  <hbond:LEU:98>  (98) 
hbond:LEU:98    0
hbond:LEU:98    0
Name: 97, dtype: object

>  <hbond:MET:99>  (98) 
hbond:MET:99    0
hbond:MET:99    0
Name: 97, dtype: object

>  <hydroph_interaction:MET:99>  (98) 
hydroph_interaction:MET:99    0
hydroph_interaction:MET:99    0
Name: 97, dtype: object

>  <halogenbond:MET:99>  (98) 
halogenbond:MET:99    0
halogenbond:MET:99    0
Name: 97, dtype: object

>  <hydroph_interaction:LEU:100>  (98) 
hydroph_interaction:LEU:100    0
hydroph_interaction:LEU:100    0
Name: 97, dtype: object

>  <hbond:LEU:100>  (98) 
hbond:LEU:100    0
hbond:LEU:100    0
Name: 97, dtype: object

>  <hbond:ALA:101>  (98) 
hbond:ALA:101    0
hbond:ALA:101    0
Name: 97, dtype: object

>  <hydroph_interaction:ALA:101>  (98) 
hydroph_interaction:ALA:101    0
hydroph_interaction:ALA:101    0
Name: 97, dtype: object

>  <hydroph_interaction:VAL:102>  (98) 
hydroph_interaction:VAL:102    0
hydroph_interaction:VAL:102    0
Name: 97, dtype: object

>  <hbond:VAL:102>  (98) 
hbond:VAL:102    0
hbond:VAL:102    0
Name: 97, dtype: object

>  <hbond:GLY:103>  (98) 
hbond:GLY:103    0
hbond:GLY:103    0
Name: 97, dtype: object

>  <halogenbond:GLY:103>  (98) 
halogenbond:GLY:103    0
halogenbond:GLY:103    0
Name: 97, dtype: object

>  <hydroph_interaction:HIS:104>  (98) 
hydroph_interaction:HIS:104    0
hydroph_interaction:HIS:104    0
Name: 97, dtype: object

>  <hbond:HIS:104>  (98) 
hbond:HIS:104    0
hbond:HIS:104    0
Name: 97, dtype: object

>  <saltbridge:HIS:104>  (98) 
saltbridge:HIS:104    0
saltbridge:HIS:104    0
Name: 97, dtype: object

>  <pication:HIS:104>  (98) 
pication:HIS:104    0
pication:HIS:104    0
Name: 97, dtype: object

>  <pistack:HIS:104>  (98) 
pistack:HIS:104    0
pistack:HIS:104    0
Name: 97, dtype: object

>  <halogenbond:HIS:104>  (98) 
halogenbond:HIS:104    0
halogenbond:HIS:104    0
Name: 97, dtype: object

>  <hbond:SER:105>  (98) 
hbond:SER:105    0
hbond:SER:105    0
Name: 97, dtype: object

>  <halogenbond:SER:105>  (98) 
halogenbond:SER:105    0
halogenbond:SER:105    0
Name: 97, dtype: object

>  <hbond:GLU:106>  (98) 
hbond:GLU:106    0
hbond:GLU:106    0
Name: 97, dtype: object

>  <hydroph_interaction:GLU:106>  (98) 
hydroph_interaction:GLU:106    0
hydroph_interaction:GLU:106    0
Name: 97, dtype: object

>  <saltbridge:GLU:106>  (98) 
saltbridge:GLU:106    0
saltbridge:GLU:106    0
Name: 97, dtype: object

>  <halogenbond:GLU:106>  (98) 
halogenbond:GLU:106    0
halogenbond:GLU:106    0
Name: 97, dtype: object

>  <hydroph_interaction:PRO:107>  (98) 
hydroph_interaction:PRO:107    0
hydroph_interaction:PRO:107    0
Name: 97, dtype: object

>  <hbond:PRO:107>  (98) 
hbond:PRO:107    0
hbond:PRO:107    0
Name: 97, dtype: object

>  <halogenbond:PRO:107>  (98) 
halogenbond:PRO:107    0
halogenbond:PRO:107    0
Name: 97, dtype: object

>  <hbond:GLY:108>  (98) 
hbond:GLY:108    0
hbond:GLY:108    0
Name: 97, dtype: object

>  <halogenbond:GLY:108>  (98) 
halogenbond:GLY:108    0
halogenbond:GLY:108    0
Name: 97, dtype: object

>  <hbond:ASP:109>  (98) 
hbond:ASP:109    0
hbond:ASP:109    0
Name: 97, dtype: object

>  <hydroph_interaction:ASP:109>  (98) 
hydroph_interaction:ASP:109    0
hydroph_interaction:ASP:109    0
Name: 97, dtype: object

>  <saltbridge:ASP:109>  (98) 
saltbridge:ASP:109    0
saltbridge:ASP:109    0
Name: 97, dtype: object

>  <hbond:CYS:110>  (98) 
hbond:CYS:110    0
hbond:CYS:110    0
Name: 97, dtype: object

>  <halogenbond:CYS:110>  (98) 
halogenbond:CYS:110    0
halogenbond:CYS:110    0
Name: 97, dtype: object

>  <hbond:GLY:111>  (98) 
hbond:GLY:111    0
hbond:GLY:111    0
Name: 97, dtype: object

>  <hbond:GLY:112>  (98) 
hbond:GLY:112    0
hbond:GLY:112    0
Name: 97, dtype: object

>  <hbond:ILE:113>  (98) 
hbond:ILE:113    0
hbond:ILE:113    0
Name: 97, dtype: object

>  <hydroph_interaction:LEU:114>  (98) 
hydroph_interaction:LEU:114    0
hydroph_interaction:LEU:114    0
Name: 97, dtype: object

>  <hbond:LEU:114>  (98) 
hbond:LEU:114    0
hbond:LEU:114    0
Name: 97, dtype: object

>  <hydroph_interaction:ILE:123>  (98) 
hydroph_interaction:ILE:123    0
hydroph_interaction:ILE:123    0
Name: 97, dtype: object

>  <hbond:ILE:123>  (98) 
hbond:ILE:123    0
hbond:ILE:123    0
Name: 97, dtype: object

>  <hydroph_interaction:VAL:124>  (98) 
hydroph_interaction:VAL:124    1
hydroph_interaction:VAL:124    1
Name: 97, dtype: object

>  <hbond:VAL:124>  (98) 
hbond:VAL:124    0
hbond:VAL:124    0
Name: 97, dtype: object

>  <halogenbond:VAL:124>  (98) 
halogenbond:VAL:124    0
halogenbond:VAL:124    0
Name: 97, dtype: object

>  <hbond:SER:125>  (98) 
hbond:SER:125    0
hbond:SER:125    0
Name: 97, dtype: object

>  <halogenbond:SER:125>  (98) 
halogenbond:SER:125    0
halogenbond:SER:125    0
Name: 97, dtype: object

>  <hydroph_interaction:THR:126>  (98) 
hydroph_interaction:THR:126    0
hydroph_interaction:THR:126    0
Name: 97, dtype: object

>  <hbond:THR:126>  (98) 
hbond:THR:126    0
hbond:THR:126    0
Name: 97, dtype: object

>  <halogenbond:THR:126>  (98) 
halogenbond:THR:126    0
halogenbond:THR:126    0
Name: 97, dtype: object

>  <hbond:GLY:127>  (98) 
hbond:GLY:127    0
hbond:GLY:127    0
Name: 97, dtype: object

>  <halogenbond:GLY:127>  (98) 
halogenbond:GLY:127    0
halogenbond:GLY:127    0
Name: 97, dtype: object

>  <hydroph_interaction:GLY:127>  (98) 
hydroph_interaction:GLY:127    0
hydroph_interaction:GLY:127    0
Name: 97, dtype: object

>  <hbond:GLY:128>  (98) 
hbond:GLY:128    0
hbond:GLY:128    0
Name: 97, dtype: object

>  <halogenbond:GLY:128>  (98) 
halogenbond:GLY:128    0
halogenbond:GLY:128    0
Name: 97, dtype: object

>  <hydroph_interaction:GLY:128>  (98) 
hydroph_interaction:GLY:128    0
hydroph_interaction:GLY:128    0
Name: 97, dtype: object

>  <hbond:ASN:129>  (98) 
hbond:ASN:129    0
hbond:ASN:129    0
Name: 97, dtype: object

>  <hydroph_interaction:ASN:129>  (98) 
hydroph_interaction:ASN:129    0
hydroph_interaction:ASN:129    0
Name: 97, dtype: object

>  <halogenbond:ASN:129>  (98) 
halogenbond:ASN:129    0
halogenbond:ASN:129    0
Name: 97, dtype: object

>  <hbond:GLY:130>  (98) 
hbond:GLY:130    0
hbond:GLY:130    0
Name: 97, dtype: object

>  <hydroph_interaction:LEU:131>  (98) 
hydroph_interaction:LEU:131    0
hydroph_interaction:LEU:131    0
Name: 97, dtype: object

>  <hbond:LEU:131>  (98) 
hbond:LEU:131    0
hbond:LEU:131    0
Name: 97, dtype: object

>  <halogenbond:LEU:131>  (98) 
halogenbond:LEU:131    0
halogenbond:LEU:131    0
Name: 97, dtype: object

>  <hydroph_interaction:VAL:132>  (98) 
hydroph_interaction:VAL:132    0
hydroph_interaction:VAL:132    0
Name: 97, dtype: object

>  <hbond:VAL:132>  (98) 
hbond:VAL:132    0
hbond:VAL:132    0
Name: 97, dtype: object

>  <hbond:GLY:133>  (98) 
hbond:GLY:133    0
hbond:GLY:133    0
Name: 97, dtype: object

>  <halogenbond:GLY:133>  (98) 
halogenbond:GLY:133    0
halogenbond:GLY:133    0
Name: 97, dtype: object

>  <hydroph_interaction:PHE:134>  (98) 
hydroph_interaction:PHE:134    0
hydroph_interaction:PHE:134    0
Name: 97, dtype: object

>  <hbond:PHE:134>  (98) 
hbond:PHE:134    0
hbond:PHE:134    0
Name: 97, dtype: object

>  <pistack:PHE:134>  (98) 
pistack:PHE:134    0
pistack:PHE:134    0
Name: 97, dtype: object

>  <pication:PHE:134>  (98) 
pication:PHE:134    0
pication:PHE:134    0
Name: 97, dtype: object

>  <hydroph_interaction:ALA:135>  (98) 
hydroph_interaction:ALA:135    0
hydroph_interaction:ALA:135    0
Name: 97, dtype: object

>  <hbond:ALA:135>  (98) 
hbond:ALA:135    0
hbond:ALA:135    0
Name: 97, dtype: object

$$$$
Z3301564534
     RDKit          3D

 29 30  0  0  0  0  0  0  0  0999 V2000
   12.3130   14.7030   21.9830 C   0  0  0  0  0  0  0  0  0  0  0  0
   11.3460   14.0690   22.9540 C   0  0  0  0  0  0  0  0  0  0  0  0
   11.3020   14.4280   24.1250 O   0  0  0  0  0  0  0  0  0  0  0  0
   10.5710   13.0910   22.3690 N   0  0  0  0  0  0  0  0  0  0  0  0
    9.8570   12.1010   23.0600 C   0  0  0  0  0  0  0  0  0  0  0  0
   10.1070   10.7490   22.8720 C   0  0  0  0  0  0  0  0  0  0  0  0
    9.4010    9.7960   23.5610 C   0  0  0  0  0  0  0  0  0  0  0  0
    8.4130   10.1540   24.4590 C   0  0  0  0  0  0  0  0  0  0  0  0
    8.1410   11.4820   24.6600 C   0  0  0  0  0  0  0  0  0  0  0  0
    8.8580   12.4510   23.9700 C   0  0  0  0  0  0  0  0  0  0  0  0
    8.3480   13.7900   24.3970 C   0  0  0  0  0  0  0  0  0  0  0  0
    7.2260   13.5730   25.4200 C   0  0  0  0  0  0  0  0  0  0  0  0
    7.5310   14.2290   26.7420 C   0  0  0  0  0  0  0  0  0  0  0  0
    8.4990   14.9200   27.0100 O   0  0  0  0  0  0  0  0  0  0  0  0
    6.6000   13.9690   27.6780 O   0  0  0  0  0  0  0  0  0  0  0  0
    7.0990   12.0510   25.5870 C   0  0  0  0  0  0  0  0  0  0  0  0
   12.5140   14.0050   21.1620 H   0  0  0  0  0  0  0  0  0  0  0  0
   13.2640   14.9350   22.4720 H   0  0  0  0  0  0  0  0  0  0  0  0
   11.8760   15.6210   21.5810 H   0  0  0  0  0  0  0  0  0  0  0  0
   10.8790   12.7900   21.4410 H   0  0  0  0  0  0  0  0  0  0  0  0
   10.8590   10.4010   22.1820 H   0  0  0  0  0  0  0  0  0  0  0  0
    9.6370    8.7700   23.3840 H   0  0  0  0  0  0  0  0  0  0  0  0
    7.8610    9.4030   24.9920 H   0  0  0  0  0  0  0  0  0  0  0  0
    9.1880   14.3360   24.8420 H   0  0  0  0  0  0  0  0  0  0  0  0
    7.9830   14.3400   23.5220 H   0  0  0  0  0  0  0  0  0  0  0  0
    6.2870   13.9880   25.0300 H   0  0  0  0  0  0  0  0  0  0  0  0
    5.9730   14.7200   27.6110 H   0  0  0  0  0  0  0  0  0  0  0  0
    7.2940   11.7350   26.6040 H   0  0  0  0  0  0  0  0  0  0  0  0
    6.1030   11.7210   25.3140 H   0  0  0  0  0  0  0  0  0  0  0  0
  1  2  1  0
  2  3  2  0
  2  4  1  0
  4  5  1  0
  5  6  2  0
  6  7  1  0
  7  8  2  0
  8  9  1  0
  9 10  2  0
 10 11  1  0
 11 12  1  0
 12 13  1  0
 13 14  2  0
 13 15  1  0
 12 16  1  0
 10  5  1  0
 16  9  1  0
  1 17  1  0
  1 18  1  0
  1 19  1  0
  4 20  1  0
  6 21  1  0
  7 22  1  0
  8 23  1  0
 11 24  1  0
 11 25  1  0
 12 26  1  0
 15 27  1  0
 16 28  1  0
 16 29  1  0
A    1
 C1 
A    2
 C2 
A    3
 O1 
A    4
 N1 
A    5
 C3 
A    6
 C4 
A    7
 C5 
A    8
 C6 
A    9
 C7 
A   10
 C8 
A   11
 C9 
A   12
 C10
A   13
 C11
A   14
 O2 
A   15
 O3 
A   16
 C12
A   17
 H1 
A   18
 H2 
A   19
 H3 
A   20
 H4 
A   21
 H5 
A   22
 H6 
A   23
 H7 
A   24
 H8 
A   25
 H9 
A   26
 H10
A   27
 H11
A   28
 H12
A   29
 H13
M  END
>  <ref_pdb>  (99) 
x0310_0A

>  <ref_mols>  (99) 
x0554_0A,x0416_0A,x0446_0A

>  <original SMILES>  (99) 
CC(=O)Nc1cccc2c1CC(C(=O)O)C2

>  <rationale>  (99) 
info hbond:S125; 

>  <intxn_cluster>  (99) 
208

>  <intxn_cluster_rank>  (99) 
1848

>  <N_interactions>  (99) 
1

>  <∆∆G>  (99) 
-8.292666

>  <$/mg>  (99) 
nan

>  <comRMSD>  (99) 
0.775563

>  <N_rotatable_bonds>  (99) 
3

>  <hbond:SER:7>  (99) 
hbond:SER:7    0
hbond:SER:7    0
Name: 98, dtype: object

>  <halogenbond:SER:7>  (99) 
halogenbond:SER:7    0
halogenbond:SER:7    0
Name: 98, dtype: object

>  <hbond:GLY:8>  (99) 
hbond:GLY:8    0
hbond:GLY:8    0
Name: 98, dtype: object

>  <hydroph_interaction:ASN:19>  (99) 
hydroph_interaction:ASN:19    0
hydroph_interaction:ASN:19    0
Name: 98, dtype: object

>  <hbond:ASN:19>  (99) 
hbond:ASN:19    0
hbond:ASN:19    0
Name: 98, dtype: object

>  <halogenbond:ASN:19>  (99) 
halogenbond:ASN:19    0
halogenbond:ASN:19    0
Name: 98, dtype: object

>  <hbond:ARG:20>  (99) 
hbond:ARG:20    0
hbond:ARG:20    0
Name: 98, dtype: object

>  <hydroph_interaction:ARG:20>  (99) 
hydroph_interaction:ARG:20    0
hydroph_interaction:ARG:20    0
Name: 98, dtype: object

>  <saltbridge:ARG:20>  (99) 
saltbridge:ARG:20    0
saltbridge:ARG:20    0
Name: 98, dtype: object

>  <halogenbond:ARG:20>  (99) 
halogenbond:ARG:20    0
halogenbond:ARG:20    0
Name: 98, dtype: object

>  <pication:ARG:20>  (99) 
pication:ARG:20    0
pication:ARG:20    0
Name: 98, dtype: object

>  <hbond:HIS:21>  (99) 
hbond:HIS:21    0
hbond:HIS:21    0
Name: 98, dtype: object

>  <hydroph_interaction:HIS:21>  (99) 
hydroph_interaction:HIS:21    0
hydroph_interaction:HIS:21    0
Name: 98, dtype: object

>  <saltbridge:HIS:21>  (99) 
saltbridge:HIS:21    0
saltbridge:HIS:21    0
Name: 98, dtype: object

>  <pistack:HIS:21>  (99) 
pistack:HIS:21    0
pistack:HIS:21    0
Name: 98, dtype: object

>  <pication:HIS:21>  (99) 
pication:HIS:21    0
pication:HIS:21    0
Name: 98, dtype: object

>  <halogenbond:HIS:21>  (99) 
halogenbond:HIS:21    0
halogenbond:HIS:21    0
Name: 98, dtype: object

>  <hydroph_interaction:LEU:22>  (99) 
hydroph_interaction:LEU:22    0
hydroph_interaction:LEU:22    0
Name: 98, dtype: object

>  <hbond:LEU:22>  (99) 
hbond:LEU:22    0
hbond:LEU:22    0
Name: 98, dtype: object

>  <hydroph_interaction:TRP:28>  (99) 
hydroph_interaction:TRP:28    0
hydroph_interaction:TRP:28    0
Name: 98, dtype: object

>  <hbond:SER:36>  (99) 
hbond:SER:36    0
hbond:SER:36    0
Name: 98, dtype: object

>  <halogenbond:SER:36>  (99) 
halogenbond:SER:36    0
halogenbond:SER:36    0
Name: 98, dtype: object

>  <hbond:ARG:38>  (99) 
hbond:ARG:38    0
hbond:ARG:38    0
Name: 98, dtype: object

>  <halogenbond:ARG:38>  (99) 
halogenbond:ARG:38    0
halogenbond:ARG:38    0
Name: 98, dtype: object

>  <hbond:ASP:39>  (99) 
hbond:ASP:39    0
hbond:ASP:39    0
Name: 98, dtype: object

>  <saltbridge:ASP:39>  (99) 
saltbridge:ASP:39    0
saltbridge:ASP:39    0
Name: 98, dtype: object

>  <hydroph_interaction:ASP:39>  (99) 
hydroph_interaction:ASP:39    0
hydroph_interaction:ASP:39    0
Name: 98, dtype: object

>  <halogenbond:ASP:39>  (99) 
halogenbond:ASP:39    0
halogenbond:ASP:39    0
Name: 98, dtype: object

>  <hydroph_interaction:LEU:40>  (99) 
hydroph_interaction:LEU:40    0
hydroph_interaction:LEU:40    0
Name: 98, dtype: object

>  <hydroph_interaction:TYR:63>  (99) 
hydroph_interaction:TYR:63    0
hydroph_interaction:TYR:63    0
Name: 98, dtype: object

>  <pistack:TYR:63>  (99) 
pistack:TYR:63    0
pistack:TYR:63    0
Name: 98, dtype: object

>  <hbond:TYR:63>  (99) 
hbond:TYR:63    0
hbond:TYR:63    0
Name: 98, dtype: object

>  <hbond:TYR:64>  (99) 
hbond:TYR:64    0
hbond:TYR:64    0
Name: 98, dtype: object

>  <halogenbond:TYR:64>  (99) 
halogenbond:TYR:64    0
halogenbond:TYR:64    0
Name: 98, dtype: object

>  <hydroph_interaction:TYR:64>  (99) 
hydroph_interaction:TYR:64    0
hydroph_interaction:TYR:64    0
Name: 98, dtype: object

>  <hbond:CYS:65>  (99) 
hbond:CYS:65    0
hbond:CYS:65    0
Name: 98, dtype: object

>  <halogenbond:CYS:65>  (99) 
halogenbond:CYS:65    0
halogenbond:CYS:65    0
Name: 98, dtype: object

>  <hbond:SER:66>  (99) 
hbond:SER:66    0
hbond:SER:66    0
Name: 98, dtype: object

>  <hbond:SER:67>  (99) 
hbond:SER:67    0
hbond:SER:67    0
Name: 98, dtype: object

>  <halogenbond:SER:67>  (99) 
halogenbond:SER:67    0
halogenbond:SER:67    0
Name: 98, dtype: object

>  <hydroph_interaction:ARG:68>  (99) 
hydroph_interaction:ARG:68    0
hydroph_interaction:ARG:68    0
Name: 98, dtype: object

>  <hbond:ARG:68>  (99) 
hbond:ARG:68    0
hbond:ARG:68    0
Name: 98, dtype: object

>  <saltbridge:ARG:68>  (99) 
saltbridge:ARG:68    0
saltbridge:ARG:68    0
Name: 98, dtype: object

>  <pication:ARG:68>  (99) 
pication:ARG:68    0
pication:ARG:68    0
Name: 98, dtype: object

>  <hydroph_interaction:TYR:72>  (99) 
hydroph_interaction:TYR:72    0
hydroph_interaction:TYR:72    0
Name: 98, dtype: object

>  <hydroph_interaction:VAL:74>  (99) 
hydroph_interaction:VAL:74    0
hydroph_interaction:VAL:74    0
Name: 98, dtype: object

>  <hydroph_interaction:PHE:76>  (99) 
hydroph_interaction:PHE:76    0
hydroph_interaction:PHE:76    0
Name: 98, dtype: object

>  <hbond:SER:77>  (99) 
hbond:SER:77    0
hbond:SER:77    0
Name: 98, dtype: object

>  <hbond:SER:80>  (99) 
hbond:SER:80    0
hbond:SER:80    0
Name: 98, dtype: object

>  <hbond:LEU:81>  (99) 
hbond:LEU:81    0
hbond:LEU:81    0
Name: 98, dtype: object

>  <halogenbond:LEU:81>  (99) 
halogenbond:LEU:81    0
halogenbond:LEU:81    0
Name: 98, dtype: object

>  <hydroph_interaction:LEU:81>  (99) 
hydroph_interaction:LEU:81    0
hydroph_interaction:LEU:81    0
Name: 98, dtype: object

>  <hydroph_interaction:ILE:82>  (99) 
hydroph_interaction:ILE:82    0
hydroph_interaction:ILE:82    0
Name: 98, dtype: object

>  <hbond:ILE:82>  (99) 
hbond:ILE:82    0
hbond:ILE:82    0
Name: 98, dtype: object

>  <hydroph_interaction:PHE:83>  (99) 
hydroph_interaction:PHE:83    0
hydroph_interaction:PHE:83    0
Name: 98, dtype: object

>  <hbond:PHE:83>  (99) 
hbond:PHE:83    0
hbond:PHE:83    0
Name: 98, dtype: object

>  <halogenbond:PHE:83>  (99) 
halogenbond:PHE:83    0
halogenbond:PHE:83    0
Name: 98, dtype: object

>  <pistack:PHE:83>  (99) 
pistack:PHE:83    0
pistack:PHE:83    0
Name: 98, dtype: object

>  <hydroph_interaction:VAL:84>  (99) 
hydroph_interaction:VAL:84    0
hydroph_interaction:VAL:84    0
Name: 98, dtype: object

>  <hbond:VAL:84>  (99) 
hbond:VAL:84    0
hbond:VAL:84    0
Name: 98, dtype: object

>  <halogenbond:VAL:84>  (99) 
halogenbond:VAL:84    0
halogenbond:VAL:84    0
Name: 98, dtype: object

>  <hydroph_interaction:GLU:85>  (99) 
hydroph_interaction:GLU:85    0
hydroph_interaction:GLU:85    0
Name: 98, dtype: object

>  <hbond:GLU:85>  (99) 
hbond:GLU:85    0
hbond:GLU:85    0
Name: 98, dtype: object

>  <saltbridge:GLU:85>  (99) 
saltbridge:GLU:85    0
saltbridge:GLU:85    0
Name: 98, dtype: object

>  <halogenbond:GLU:85>  (99) 
halogenbond:GLU:85    0
halogenbond:GLU:85    0
Name: 98, dtype: object

>  <hbond:ALA:86>  (99) 
hbond:ALA:86    0
hbond:ALA:86    0
Name: 98, dtype: object

>  <halogenbond:ALA:86>  (99) 
halogenbond:ALA:86    0
halogenbond:ALA:86    0
Name: 98, dtype: object

>  <hydroph_interaction:ALA:86>  (99) 
hydroph_interaction:ALA:86    0
hydroph_interaction:ALA:86    0
Name: 98, dtype: object

>  <hbond:SER:87>  (99) 
hbond:SER:87    0
hbond:SER:87    0
Name: 98, dtype: object

>  <halogenbond:SER:87>  (99) 
halogenbond:SER:87    0
halogenbond:SER:87    0
Name: 98, dtype: object

>  <hbond:GLU:88>  (99) 
hbond:GLU:88    0
hbond:GLU:88    0
Name: 98, dtype: object

>  <hydroph_interaction:GLU:88>  (99) 
hydroph_interaction:GLU:88    0
hydroph_interaction:GLU:88    0
Name: 98, dtype: object

>  <halogenbond:GLU:88>  (99) 
halogenbond:GLU:88    0
halogenbond:GLU:88    0
Name: 98, dtype: object

>  <saltbridge:GLU:88>  (99) 
saltbridge:GLU:88    0
saltbridge:GLU:88    0
Name: 98, dtype: object

>  <hydroph_interaction:TYR:89>  (99) 
hydroph_interaction:TYR:89    0
hydroph_interaction:TYR:89    0
Name: 98, dtype: object

>  <pistack:TYR:89>  (99) 
pistack:TYR:89    0
pistack:TYR:89    0
Name: 98, dtype: object

>  <hbond:TYR:89>  (99) 
hbond:TYR:89    0
hbond:TYR:89    0
Name: 98, dtype: object

>  <halogenbond:TYR:89>  (99) 
halogenbond:TYR:89    0
halogenbond:TYR:89    0
Name: 98, dtype: object

>  <hbond:TYR:90>  (99) 
hbond:TYR:90    0
hbond:TYR:90    0
Name: 98, dtype: object

>  <hydroph_interaction:TYR:90>  (99) 
hydroph_interaction:TYR:90    0
hydroph_interaction:TYR:90    0
Name: 98, dtype: object

>  <pistack:TYR:90>  (99) 
pistack:TYR:90    0
pistack:TYR:90    0
Name: 98, dtype: object

>  <halogenbond:TYR:90>  (99) 
halogenbond:TYR:90    0
halogenbond:TYR:90    0
Name: 98, dtype: object

>  <pication:TYR:90>  (99) 
pication:TYR:90    0
pication:TYR:90    0
Name: 98, dtype: object

>  <hydroph_interaction:PRO:91>  (99) 
hydroph_interaction:PRO:91    0
hydroph_interaction:PRO:91    0
Name: 98, dtype: object

>  <halogenbond:PRO:91>  (99) 
halogenbond:PRO:91    0
halogenbond:PRO:91    0
Name: 98, dtype: object

>  <hbond:PRO:91>  (99) 
hbond:PRO:91    0
hbond:PRO:91    0
Name: 98, dtype: object

>  <hydroph_interaction:ALA:92>  (99) 
hydroph_interaction:ALA:92    0
hydroph_interaction:ALA:92    0
Name: 98, dtype: object

>  <hbond:ARG:93>  (99) 
hbond:ARG:93    0
hbond:ARG:93    0
Name: 98, dtype: object

>  <pication:ARG:93>  (99) 
pication:ARG:93    0
pication:ARG:93    0
Name: 98, dtype: object

>  <saltbridge:ARG:93>  (99) 
saltbridge:ARG:93    0
saltbridge:ARG:93    0
Name: 98, dtype: object

>  <hydroph_interaction:ARG:93>  (99) 
hydroph_interaction:ARG:93    0
hydroph_interaction:ARG:93    0
Name: 98, dtype: object

>  <halogenbond:ARG:93>  (99) 
halogenbond:ARG:93    0
halogenbond:ARG:93    0
Name: 98, dtype: object

>  <hydroph_interaction:TYR:94>  (99) 
hydroph_interaction:TYR:94    0
hydroph_interaction:TYR:94    0
Name: 98, dtype: object

>  <hbond:TYR:94>  (99) 
hbond:TYR:94    0
hbond:TYR:94    0
Name: 98, dtype: object

>  <halogenbond:GLN:95>  (99) 
halogenbond:GLN:95    0
halogenbond:GLN:95    0
Name: 98, dtype: object

>  <hbond:GLN:95>  (99) 
hbond:GLN:95    0
hbond:GLN:95    0
Name: 98, dtype: object

>  <hydroph_interaction:GLN:95>  (99) 
hydroph_interaction:GLN:95    0
hydroph_interaction:GLN:95    0
Name: 98, dtype: object

>  <hbond:SER:96>  (99) 
hbond:SER:96    0
hbond:SER:96    0
Name: 98, dtype: object

>  <hydroph_interaction:LEU:98>  (99) 
hydroph_interaction:LEU:98    0
hydroph_interaction:LEU:98    0
Name: 98, dtype: object

>  <hbond:LEU:98>  (99) 
hbond:LEU:98    0
hbond:LEU:98    0
Name: 98, dtype: object

>  <hbond:MET:99>  (99) 
hbond:MET:99    0
hbond:MET:99    0
Name: 98, dtype: object

>  <hydroph_interaction:MET:99>  (99) 
hydroph_interaction:MET:99    0
hydroph_interaction:MET:99    0
Name: 98, dtype: object

>  <halogenbond:MET:99>  (99) 
halogenbond:MET:99    0
halogenbond:MET:99    0
Name: 98, dtype: object

>  <hydroph_interaction:LEU:100>  (99) 
hydroph_interaction:LEU:100    0
hydroph_interaction:LEU:100    0
Name: 98, dtype: object

>  <hbond:LEU:100>  (99) 
hbond:LEU:100    0
hbond:LEU:100    0
Name: 98, dtype: object

>  <hbond:ALA:101>  (99) 
hbond:ALA:101    0
hbond:ALA:101    0
Name: 98, dtype: object

>  <hydroph_interaction:ALA:101>  (99) 
hydroph_interaction:ALA:101    0
hydroph_interaction:ALA:101    0
Name: 98, dtype: object

>  <hydroph_interaction:VAL:102>  (99) 
hydroph_interaction:VAL:102    0
hydroph_interaction:VAL:102    0
Name: 98, dtype: object

>  <hbond:VAL:102>  (99) 
hbond:VAL:102    0
hbond:VAL:102    0
Name: 98, dtype: object

>  <hbond:GLY:103>  (99) 
hbond:GLY:103    0
hbond:GLY:103    0
Name: 98, dtype: object

>  <halogenbond:GLY:103>  (99) 
halogenbond:GLY:103    0
halogenbond:GLY:103    0
Name: 98, dtype: object

>  <hydroph_interaction:HIS:104>  (99) 
hydroph_interaction:HIS:104    0
hydroph_interaction:HIS:104    0
Name: 98, dtype: object

>  <hbond:HIS:104>  (99) 
hbond:HIS:104    0
hbond:HIS:104    0
Name: 98, dtype: object

>  <saltbridge:HIS:104>  (99) 
saltbridge:HIS:104    0
saltbridge:HIS:104    0
Name: 98, dtype: object

>  <pication:HIS:104>  (99) 
pication:HIS:104    0
pication:HIS:104    0
Name: 98, dtype: object

>  <pistack:HIS:104>  (99) 
pistack:HIS:104    0
pistack:HIS:104    0
Name: 98, dtype: object

>  <halogenbond:HIS:104>  (99) 
halogenbond:HIS:104    0
halogenbond:HIS:104    0
Name: 98, dtype: object

>  <hbond:SER:105>  (99) 
hbond:SER:105    0
hbond:SER:105    0
Name: 98, dtype: object

>  <halogenbond:SER:105>  (99) 
halogenbond:SER:105    0
halogenbond:SER:105    0
Name: 98, dtype: object

>  <hbond:GLU:106>  (99) 
hbond:GLU:106    0
hbond:GLU:106    0
Name: 98, dtype: object

>  <hydroph_interaction:GLU:106>  (99) 
hydroph_interaction:GLU:106    0
hydroph_interaction:GLU:106    0
Name: 98, dtype: object

>  <saltbridge:GLU:106>  (99) 
saltbridge:GLU:106    0
saltbridge:GLU:106    0
Name: 98, dtype: object

>  <halogenbond:GLU:106>  (99) 
halogenbond:GLU:106    0
halogenbond:GLU:106    0
Name: 98, dtype: object

>  <hydroph_interaction:PRO:107>  (99) 
hydroph_interaction:PRO:107    0
hydroph_interaction:PRO:107    0
Name: 98, dtype: object

>  <hbond:PRO:107>  (99) 
hbond:PRO:107    0
hbond:PRO:107    0
Name: 98, dtype: object

>  <halogenbond:PRO:107>  (99) 
halogenbond:PRO:107    0
halogenbond:PRO:107    0
Name: 98, dtype: object

>  <hbond:GLY:108>  (99) 
hbond:GLY:108    0
hbond:GLY:108    0
Name: 98, dtype: object

>  <halogenbond:GLY:108>  (99) 
halogenbond:GLY:108    0
halogenbond:GLY:108    0
Name: 98, dtype: object

>  <hbond:ASP:109>  (99) 
hbond:ASP:109    0
hbond:ASP:109    0
Name: 98, dtype: object

>  <hydroph_interaction:ASP:109>  (99) 
hydroph_interaction:ASP:109    0
hydroph_interaction:ASP:109    0
Name: 98, dtype: object

>  <saltbridge:ASP:109>  (99) 
saltbridge:ASP:109    0
saltbridge:ASP:109    0
Name: 98, dtype: object

>  <hbond:CYS:110>  (99) 
hbond:CYS:110    0
hbond:CYS:110    0
Name: 98, dtype: object

>  <halogenbond:CYS:110>  (99) 
halogenbond:CYS:110    0
halogenbond:CYS:110    0
Name: 98, dtype: object

>  <hbond:GLY:111>  (99) 
hbond:GLY:111    0
hbond:GLY:111    0
Name: 98, dtype: object

>  <hbond:GLY:112>  (99) 
hbond:GLY:112    0
hbond:GLY:112    0
Name: 98, dtype: object

>  <hbond:ILE:113>  (99) 
hbond:ILE:113    0
hbond:ILE:113    0
Name: 98, dtype: object

>  <hydroph_interaction:LEU:114>  (99) 
hydroph_interaction:LEU:114    0
hydroph_interaction:LEU:114    0
Name: 98, dtype: object

>  <hbond:LEU:114>  (99) 
hbond:LEU:114    0
hbond:LEU:114    0
Name: 98, dtype: object

>  <hydroph_interaction:ILE:123>  (99) 
hydroph_interaction:ILE:123    0
hydroph_interaction:ILE:123    0
Name: 98, dtype: object

>  <hbond:ILE:123>  (99) 
hbond:ILE:123    0
hbond:ILE:123    0
Name: 98, dtype: object

>  <hydroph_interaction:VAL:124>  (99) 
hydroph_interaction:VAL:124    0
hydroph_interaction:VAL:124    0
Name: 98, dtype: object

>  <hbond:VAL:124>  (99) 
hbond:VAL:124    0
hbond:VAL:124    0
Name: 98, dtype: object

>  <halogenbond:VAL:124>  (99) 
halogenbond:VAL:124    0
halogenbond:VAL:124    0
Name: 98, dtype: object

>  <hbond:SER:125>  (99) 
hbond:SER:125    1
hbond:SER:125    1
Name: 98, dtype: object

>  <halogenbond:SER:125>  (99) 
halogenbond:SER:125    0
halogenbond:SER:125    0
Name: 98, dtype: object

>  <hydroph_interaction:THR:126>  (99) 
hydroph_interaction:THR:126    0
hydroph_interaction:THR:126    0
Name: 98, dtype: object

>  <hbond:THR:126>  (99) 
hbond:THR:126    0
hbond:THR:126    0
Name: 98, dtype: object

>  <halogenbond:THR:126>  (99) 
halogenbond:THR:126    0
halogenbond:THR:126    0
Name: 98, dtype: object

>  <hbond:GLY:127>  (99) 
hbond:GLY:127    0
hbond:GLY:127    0
Name: 98, dtype: object

>  <halogenbond:GLY:127>  (99) 
halogenbond:GLY:127    0
halogenbond:GLY:127    0
Name: 98, dtype: object

>  <hydroph_interaction:GLY:127>  (99) 
hydroph_interaction:GLY:127    0
hydroph_interaction:GLY:127    0
Name: 98, dtype: object

>  <hbond:GLY:128>  (99) 
hbond:GLY:128    0
hbond:GLY:128    0
Name: 98, dtype: object

>  <halogenbond:GLY:128>  (99) 
halogenbond:GLY:128    0
halogenbond:GLY:128    0
Name: 98, dtype: object

>  <hydroph_interaction:GLY:128>  (99) 
hydroph_interaction:GLY:128    0
hydroph_interaction:GLY:128    0
Name: 98, dtype: object

>  <hbond:ASN:129>  (99) 
hbond:ASN:129    0
hbond:ASN:129    0
Name: 98, dtype: object

>  <hydroph_interaction:ASN:129>  (99) 
hydroph_interaction:ASN:129    0
hydroph_interaction:ASN:129    0
Name: 98, dtype: object

>  <halogenbond:ASN:129>  (99) 
halogenbond:ASN:129    0
halogenbond:ASN:129    0
Name: 98, dtype: object

>  <hbond:GLY:130>  (99) 
hbond:GLY:130    0
hbond:GLY:130    0
Name: 98, dtype: object

>  <hydroph_interaction:LEU:131>  (99) 
hydroph_interaction:LEU:131    0
hydroph_interaction:LEU:131    0
Name: 98, dtype: object

>  <hbond:LEU:131>  (99) 
hbond:LEU:131    0
hbond:LEU:131    0
Name: 98, dtype: object

>  <halogenbond:LEU:131>  (99) 
halogenbond:LEU:131    0
halogenbond:LEU:131    0
Name: 98, dtype: object

>  <hydroph_interaction:VAL:132>  (99) 
hydroph_interaction:VAL:132    0
hydroph_interaction:VAL:132    0
Name: 98, dtype: object

>  <hbond:VAL:132>  (99) 
hbond:VAL:132    0
hbond:VAL:132    0
Name: 98, dtype: object

>  <hbond:GLY:133>  (99) 
hbond:GLY:133    0
hbond:GLY:133    0
Name: 98, dtype: object

>  <halogenbond:GLY:133>  (99) 
halogenbond:GLY:133    0
halogenbond:GLY:133    0
Name: 98, dtype: object

>  <hydroph_interaction:PHE:134>  (99) 
hydroph_interaction:PHE:134    0
hydroph_interaction:PHE:134    0
Name: 98, dtype: object

>  <hbond:PHE:134>  (99) 
hbond:PHE:134    0
hbond:PHE:134    0
Name: 98, dtype: object

>  <pistack:PHE:134>  (99) 
pistack:PHE:134    0
pistack:PHE:134    0
Name: 98, dtype: object

>  <pication:PHE:134>  (99) 
pication:PHE:134    0
pication:PHE:134    0
Name: 98, dtype: object

>  <hydroph_interaction:ALA:135>  (99) 
hydroph_interaction:ALA:135    0
hydroph_interaction:ALA:135    0
Name: 98, dtype: object

>  <hbond:ALA:135>  (99) 
hbond:ALA:135    0
hbond:ALA:135    0
Name: 98, dtype: object

$$$$
Z28230581
     RDKit          3D

 34 35  0  0  0  0  0  0  0  0999 V2000
   10.1390   13.5810   22.4780 C   0  0  0  0  0  0  0  0  0  0  0  0
    9.4910   12.4520   23.2270 C   0  0  0  0  0  0  0  0  0  0  0  0
    9.9930   11.1640   22.9640 C   0  0  0  0  0  0  0  0  0  0  0  0
    9.4660   10.0650   23.6000 C   0  0  0  0  0  0  0  0  0  0  0  0
    8.4390   10.2470   24.5010 C   0  0  0  0  0  0  0  0  0  0  0  0
    7.8950   11.4960   24.8080 C   0  0  0  0  0  0  0  0  0  0  0  0
    6.7790   11.5030   25.8140 C   0  0  0  0  0  0  0  0  0  0  0  0
    8.4230   12.6300   24.1580 C   0  0  0  0  0  0  0  0  0  0  0  0
    7.8840   13.9050   24.4320 O   0  0  0  0  0  0  0  0  0  0  0  0
    8.5170   14.6840   25.3960 C   0  0  0  0  0  0  0  0  0  0  0  0
    9.7310   14.7180   25.5360 O   0  0  0  0  0  0  0  0  0  0  0  0
    7.6730   15.5970   26.3140 C   0  0  0  0  0  0  0  0  0  0  0  0
    8.5550   16.3970   27.2680 C   0  0  0  0  0  0  0  0  0  0  0  0
    7.8220   16.4400   28.5870 C   0  0  0  0  0  0  0  0  0  0  0  0
    6.4810   15.7070   28.4500 C   0  0  0  0  0  0  0  0  0  0  0  0
    6.5820   14.9000   27.1370 C   0  0  0  0  0  0  0  0  0  0  0  0
   10.3950   14.3890   23.1690 H   0  0  0  0  0  0  0  0  0  0  0  0
   11.0430   13.2330   21.9720 H   0  0  0  0  0  0  0  0  0  0  0  0
    9.4770   14.0000   21.7130 H   0  0  0  0  0  0  0  0  0  0  0  0
   10.8010   11.0300   22.2540 H   0  0  0  0  0  0  0  0  0  0  0  0
    9.8670    9.0820   23.3820 H   0  0  0  0  0  0  0  0  0  0  0  0
    8.0910    9.3250   24.9490 H   0  0  0  0  0  0  0  0  0  0  0  0
    7.1090   11.9640   26.7470 H   0  0  0  0  0  0  0  0  0  0  0  0
    6.4000   10.4940   26.0050 H   0  0  0  0  0  0  0  0  0  0  0  0
    5.9390   12.0990   25.4480 H   0  0  0  0  0  0  0  0  0  0  0  0
    7.1670   16.3070   25.6460 H   0  0  0  0  0  0  0  0  0  0  0  0
    9.5530   15.9630   27.4070 H   0  0  0  0  0  0  0  0  0  0  0  0
    8.6970   17.4140   26.8890 H   0  0  0  0  0  0  0  0  0  0  0  0
    8.4220   15.9600   29.3680 H   0  0  0  0  0  0  0  0  0  0  0  0
    7.6650   17.4800   28.9050 H   0  0  0  0  0  0  0  0  0  0  0  0
    5.6540   16.4220   28.4470 H   0  0  0  0  0  0  0  0  0  0  0  0
    6.3330   15.0360   29.3020 H   0  0  0  0  0  0  0  0  0  0  0  0
    6.8040   13.8450   27.3310 H   0  0  0  0  0  0  0  0  0  0  0  0
    5.6260   14.9260   26.5980 H   0  0  0  0  0  0  0  0  0  0  0  0
  1  2  1  0
  2  3  2  0
  3  4  1  0
  4  5  2  0
  5  6  1  0
  6  7  1  0
  6  8  2  0
  8  9  1  0
  9 10  1  0
 10 11  2  0
 10 12  1  0
 12 13  1  0
 13 14  1  0
 14 15  1  0
 15 16  1  0
  8  2  1  0
 16 12  1  0
  1 17  1  0
  1 18  1  0
  1 19  1  0
  3 20  1  0
  4 21  1  0
  5 22  1  0
  7 23  1  0
  7 24  1  0
  7 25  1  0
 12 26  1  0
 13 27  1  0
 13 28  1  0
 14 29  1  0
 14 30  1  0
 15 31  1  0
 15 32  1  0
 16 33  1  0
 16 34  1  0
A    1
 C1 
A    2
 C2 
A    3
 C3 
A    4
 C4 
A    5
 C5 
A    6
 C6 
A    7
 C7 
A    8
 C8 
A    9
 O1 
A   10
 C9 
A   11
 O2 
A   12
 C10
A   13
 C11
A   14
 C12
A   15
 C13
A   16
 C14
A   17
 H1 
A   18
 H2 
A   19
 H3 
A   20
 H4 
A   21
 H5 
A   22
 H6 
A   23
 H7 
A   24
 H8 
A   25
 H9 
A   26
 H10
A   27
 H11
A   28
 H12
A   29
 H13
A   30
 H14
A   31
 H15
A   32
 H16
A   33
 H17
A   34
 H18
M  END
>  <ref_pdb>  (100) 
x0310_0A

>  <ref_mols>  (100) 
x0554_0A,x0812_0A,x0416_0A

>  <original SMILES>  (100) 
Cc1cccc(C)c1OC(=O)C1CCCC1

>  <rationale>  (100) 
info 

>  <intxn_cluster>  (100) 
208

>  <intxn_cluster_rank>  (100) 
2994

>  <N_interactions>  (100) 
0

>  <∆∆G>  (100) 
-7.612627

>  <$/mg>  (100) 
nan

>  <comRMSD>  (100) 
0.925728

>  <N_rotatable_bonds>  (100) 
4

>  <hbond:SER:7>  (100) 
hbond:SER:7    0
hbond:SER:7    0
Name: 99, dtype: object

>  <halogenbond:SER:7>  (100) 
halogenbond:SER:7    0
halogenbond:SER:7    0
Name: 99, dtype: object

>  <hbond:GLY:8>  (100) 
hbond:GLY:8    0
hbond:GLY:8    0
Name: 99, dtype: object

>  <hydroph_interaction:ASN:19>  (100) 
hydroph_interaction:ASN:19    0
hydroph_interaction:ASN:19    0
Name: 99, dtype: object

>  <hbond:ASN:19>  (100) 
hbond:ASN:19    0
hbond:ASN:19    0
Name: 99, dtype: object

>  <halogenbond:ASN:19>  (100) 
halogenbond:ASN:19    0
halogenbond:ASN:19    0
Name: 99, dtype: object

>  <hbond:ARG:20>  (100) 
hbond:ARG:20    0
hbond:ARG:20    0
Name: 99, dtype: object

>  <hydroph_interaction:ARG:20>  (100) 
hydroph_interaction:ARG:20    0
hydroph_interaction:ARG:20    0
Name: 99, dtype: object

>  <saltbridge:ARG:20>  (100) 
saltbridge:ARG:20    0
saltbridge:ARG:20    0
Name: 99, dtype: object

>  <halogenbond:ARG:20>  (100) 
halogenbond:ARG:20    0
halogenbond:ARG:20    0
Name: 99, dtype: object

>  <pication:ARG:20>  (100) 
pication:ARG:20    0
pication:ARG:20    0
Name: 99, dtype: object

>  <hbond:HIS:21>  (100) 
hbond:HIS:21    0
hbond:HIS:21    0
Name: 99, dtype: object

>  <hydroph_interaction:HIS:21>  (100) 
hydroph_interaction:HIS:21    0
hydroph_interaction:HIS:21    0
Name: 99, dtype: object

>  <saltbridge:HIS:21>  (100) 
saltbridge:HIS:21    0
saltbridge:HIS:21    0
Name: 99, dtype: object

>  <pistack:HIS:21>  (100) 
pistack:HIS:21    0
pistack:HIS:21    0
Name: 99, dtype: object

>  <pication:HIS:21>  (100) 
pication:HIS:21    0
pication:HIS:21    0
Name: 99, dtype: object

>  <halogenbond:HIS:21>  (100) 
halogenbond:HIS:21    0
halogenbond:HIS:21    0
Name: 99, dtype: object

>  <hydroph_interaction:LEU:22>  (100) 
hydroph_interaction:LEU:22    0
hydroph_interaction:LEU:22    0
Name: 99, dtype: object

>  <hbond:LEU:22>  (100) 
hbond:LEU:22    0
hbond:LEU:22    0
Name: 99, dtype: object

>  <hydroph_interaction:TRP:28>  (100) 
hydroph_interaction:TRP:28    0
hydroph_interaction:TRP:28    0
Name: 99, dtype: object

>  <hbond:SER:36>  (100) 
hbond:SER:36    0
hbond:SER:36    0
Name: 99, dtype: object

>  <halogenbond:SER:36>  (100) 
halogenbond:SER:36    0
halogenbond:SER:36    0
Name: 99, dtype: object

>  <hbond:ARG:38>  (100) 
hbond:ARG:38    0
hbond:ARG:38    0
Name: 99, dtype: object

>  <halogenbond:ARG:38>  (100) 
halogenbond:ARG:38    0
halogenbond:ARG:38    0
Name: 99, dtype: object

>  <hbond:ASP:39>  (100) 
hbond:ASP:39    0
hbond:ASP:39    0
Name: 99, dtype: object

>  <saltbridge:ASP:39>  (100) 
saltbridge:ASP:39    0
saltbridge:ASP:39    0
Name: 99, dtype: object

>  <hydroph_interaction:ASP:39>  (100) 
hydroph_interaction:ASP:39    0
hydroph_interaction:ASP:39    0
Name: 99, dtype: object

>  <halogenbond:ASP:39>  (100) 
halogenbond:ASP:39    0
halogenbond:ASP:39    0
Name: 99, dtype: object

>  <hydroph_interaction:LEU:40>  (100) 
hydroph_interaction:LEU:40    0
hydroph_interaction:LEU:40    0
Name: 99, dtype: object

>  <hydroph_interaction:TYR:63>  (100) 
hydroph_interaction:TYR:63    0
hydroph_interaction:TYR:63    0
Name: 99, dtype: object

>  <pistack:TYR:63>  (100) 
pistack:TYR:63    0
pistack:TYR:63    0
Name: 99, dtype: object

>  <hbond:TYR:63>  (100) 
hbond:TYR:63    0
hbond:TYR:63    0
Name: 99, dtype: object

>  <hbond:TYR:64>  (100) 
hbond:TYR:64    0
hbond:TYR:64    0
Name: 99, dtype: object

>  <halogenbond:TYR:64>  (100) 
halogenbond:TYR:64    0
halogenbond:TYR:64    0
Name: 99, dtype: object

>  <hydroph_interaction:TYR:64>  (100) 
hydroph_interaction:TYR:64    0
hydroph_interaction:TYR:64    0
Name: 99, dtype: object

>  <hbond:CYS:65>  (100) 
hbond:CYS:65    0
hbond:CYS:65    0
Name: 99, dtype: object

>  <halogenbond:CYS:65>  (100) 
halogenbond:CYS:65    0
halogenbond:CYS:65    0
Name: 99, dtype: object

>  <hbond:SER:66>  (100) 
hbond:SER:66    0
hbond:SER:66    0
Name: 99, dtype: object

>  <hbond:SER:67>  (100) 
hbond:SER:67    0
hbond:SER:67    0
Name: 99, dtype: object

>  <halogenbond:SER:67>  (100) 
halogenbond:SER:67    0
halogenbond:SER:67    0
Name: 99, dtype: object

>  <hydroph_interaction:ARG:68>  (100) 
hydroph_interaction:ARG:68    0
hydroph_interaction:ARG:68    0
Name: 99, dtype: object

>  <hbond:ARG:68>  (100) 
hbond:ARG:68    0
hbond:ARG:68    0
Name: 99, dtype: object

>  <saltbridge:ARG:68>  (100) 
saltbridge:ARG:68    0
saltbridge:ARG:68    0
Name: 99, dtype: object

>  <pication:ARG:68>  (100) 
pication:ARG:68    0
pication:ARG:68    0
Name: 99, dtype: object

>  <hydroph_interaction:TYR:72>  (100) 
hydroph_interaction:TYR:72    0
hydroph_interaction:TYR:72    0
Name: 99, dtype: object

>  <hydroph_interaction:VAL:74>  (100) 
hydroph_interaction:VAL:74    0
hydroph_interaction:VAL:74    0
Name: 99, dtype: object

>  <hydroph_interaction:PHE:76>  (100) 
hydroph_interaction:PHE:76    0
hydroph_interaction:PHE:76    0
Name: 99, dtype: object

>  <hbond:SER:77>  (100) 
hbond:SER:77    0
hbond:SER:77    0
Name: 99, dtype: object

>  <hbond:SER:80>  (100) 
hbond:SER:80    0
hbond:SER:80    0
Name: 99, dtype: object

>  <hbond:LEU:81>  (100) 
hbond:LEU:81    0
hbond:LEU:81    0
Name: 99, dtype: object

>  <halogenbond:LEU:81>  (100) 
halogenbond:LEU:81    0
halogenbond:LEU:81    0
Name: 99, dtype: object

>  <hydroph_interaction:LEU:81>  (100) 
hydroph_interaction:LEU:81    0
hydroph_interaction:LEU:81    0
Name: 99, dtype: object

>  <hydroph_interaction:ILE:82>  (100) 
hydroph_interaction:ILE:82    0
hydroph_interaction:ILE:82    0
Name: 99, dtype: object

>  <hbond:ILE:82>  (100) 
hbond:ILE:82    0
hbond:ILE:82    0
Name: 99, dtype: object

>  <hydroph_interaction:PHE:83>  (100) 
hydroph_interaction:PHE:83    0
hydroph_interaction:PHE:83    0
Name: 99, dtype: object

>  <hbond:PHE:83>  (100) 
hbond:PHE:83    0
hbond:PHE:83    0
Name: 99, dtype: object

>  <halogenbond:PHE:83>  (100) 
halogenbond:PHE:83    0
halogenbond:PHE:83    0
Name: 99, dtype: object

>  <pistack:PHE:83>  (100) 
pistack:PHE:83    0
pistack:PHE:83    0
Name: 99, dtype: object

>  <hydroph_interaction:VAL:84>  (100) 
hydroph_interaction:VAL:84    0
hydroph_interaction:VAL:84    0
Name: 99, dtype: object

>  <hbond:VAL:84>  (100) 
hbond:VAL:84    0
hbond:VAL:84    0
Name: 99, dtype: object

>  <halogenbond:VAL:84>  (100) 
halogenbond:VAL:84    0
halogenbond:VAL:84    0
Name: 99, dtype: object

>  <hydroph_interaction:GLU:85>  (100) 
hydroph_interaction:GLU:85    0
hydroph_interaction:GLU:85    0
Name: 99, dtype: object

>  <hbond:GLU:85>  (100) 
hbond:GLU:85    0
hbond:GLU:85    0
Name: 99, dtype: object

>  <saltbridge:GLU:85>  (100) 
saltbridge:GLU:85    0
saltbridge:GLU:85    0
Name: 99, dtype: object

>  <halogenbond:GLU:85>  (100) 
halogenbond:GLU:85    0
halogenbond:GLU:85    0
Name: 99, dtype: object

>  <hbond:ALA:86>  (100) 
hbond:ALA:86    0
hbond:ALA:86    0
Name: 99, dtype: object

>  <halogenbond:ALA:86>  (100) 
halogenbond:ALA:86    0
halogenbond:ALA:86    0
Name: 99, dtype: object

>  <hydroph_interaction:ALA:86>  (100) 
hydroph_interaction:ALA:86    0
hydroph_interaction:ALA:86    0
Name: 99, dtype: object

>  <hbond:SER:87>  (100) 
hbond:SER:87    0
hbond:SER:87    0
Name: 99, dtype: object

>  <halogenbond:SER:87>  (100) 
halogenbond:SER:87    0
halogenbond:SER:87    0
Name: 99, dtype: object

>  <hbond:GLU:88>  (100) 
hbond:GLU:88    0
hbond:GLU:88    0
Name: 99, dtype: object

>  <hydroph_interaction:GLU:88>  (100) 
hydroph_interaction:GLU:88    0
hydroph_interaction:GLU:88    0
Name: 99, dtype: object

>  <halogenbond:GLU:88>  (100) 
halogenbond:GLU:88    0
halogenbond:GLU:88    0
Name: 99, dtype: object

>  <saltbridge:GLU:88>  (100) 
saltbridge:GLU:88    0
saltbridge:GLU:88    0
Name: 99, dtype: object

>  <hydroph_interaction:TYR:89>  (100) 
hydroph_interaction:TYR:89    0
hydroph_interaction:TYR:89    0
Name: 99, dtype: object

>  <pistack:TYR:89>  (100) 
pistack:TYR:89    0
pistack:TYR:89    0
Name: 99, dtype: object

>  <hbond:TYR:89>  (100) 
hbond:TYR:89    0
hbond:TYR:89    0
Name: 99, dtype: object

>  <halogenbond:TYR:89>  (100) 
halogenbond:TYR:89    0
halogenbond:TYR:89    0
Name: 99, dtype: object

>  <hbond:TYR:90>  (100) 
hbond:TYR:90    0
hbond:TYR:90    0
Name: 99, dtype: object

>  <hydroph_interaction:TYR:90>  (100) 
hydroph_interaction:TYR:90    0
hydroph_interaction:TYR:90    0
Name: 99, dtype: object

>  <pistack:TYR:90>  (100) 
pistack:TYR:90    0
pistack:TYR:90    0
Name: 99, dtype: object

>  <halogenbond:TYR:90>  (100) 
halogenbond:TYR:90    0
halogenbond:TYR:90    0
Name: 99, dtype: object

>  <pication:TYR:90>  (100) 
pication:TYR:90    0
pication:TYR:90    0
Name: 99, dtype: object

>  <hydroph_interaction:PRO:91>  (100) 
hydroph_interaction:PRO:91    0
hydroph_interaction:PRO:91    0
Name: 99, dtype: object

>  <halogenbond:PRO:91>  (100) 
halogenbond:PRO:91    0
halogenbond:PRO:91    0
Name: 99, dtype: object

>  <hbond:PRO:91>  (100) 
hbond:PRO:91    0
hbond:PRO:91    0
Name: 99, dtype: object

>  <hydroph_interaction:ALA:92>  (100) 
hydroph_interaction:ALA:92    0
hydroph_interaction:ALA:92    0
Name: 99, dtype: object

>  <hbond:ARG:93>  (100) 
hbond:ARG:93    0
hbond:ARG:93    0
Name: 99, dtype: object

>  <pication:ARG:93>  (100) 
pication:ARG:93    0
pication:ARG:93    0
Name: 99, dtype: object

>  <saltbridge:ARG:93>  (100) 
saltbridge:ARG:93    0
saltbridge:ARG:93    0
Name: 99, dtype: object

>  <hydroph_interaction:ARG:93>  (100) 
hydroph_interaction:ARG:93    0
hydroph_interaction:ARG:93    0
Name: 99, dtype: object

>  <halogenbond:ARG:93>  (100) 
halogenbond:ARG:93    0
halogenbond:ARG:93    0
Name: 99, dtype: object

>  <hydroph_interaction:TYR:94>  (100) 
hydroph_interaction:TYR:94    0
hydroph_interaction:TYR:94    0
Name: 99, dtype: object

>  <hbond:TYR:94>  (100) 
hbond:TYR:94    0
hbond:TYR:94    0
Name: 99, dtype: object

>  <halogenbond:GLN:95>  (100) 
halogenbond:GLN:95    0
halogenbond:GLN:95    0
Name: 99, dtype: object

>  <hbond:GLN:95>  (100) 
hbond:GLN:95    0
hbond:GLN:95    0
Name: 99, dtype: object

>  <hydroph_interaction:GLN:95>  (100) 
hydroph_interaction:GLN:95    0
hydroph_interaction:GLN:95    0
Name: 99, dtype: object

>  <hbond:SER:96>  (100) 
hbond:SER:96    0
hbond:SER:96    0
Name: 99, dtype: object

>  <hydroph_interaction:LEU:98>  (100) 
hydroph_interaction:LEU:98    0
hydroph_interaction:LEU:98    0
Name: 99, dtype: object

>  <hbond:LEU:98>  (100) 
hbond:LEU:98    0
hbond:LEU:98    0
Name: 99, dtype: object

>  <hbond:MET:99>  (100) 
hbond:MET:99    0
hbond:MET:99    0
Name: 99, dtype: object

>  <hydroph_interaction:MET:99>  (100) 
hydroph_interaction:MET:99    0
hydroph_interaction:MET:99    0
Name: 99, dtype: object

>  <halogenbond:MET:99>  (100) 
halogenbond:MET:99    0
halogenbond:MET:99    0
Name: 99, dtype: object

>  <hydroph_interaction:LEU:100>  (100) 
hydroph_interaction:LEU:100    0
hydroph_interaction:LEU:100    0
Name: 99, dtype: object

>  <hbond:LEU:100>  (100) 
hbond:LEU:100    0
hbond:LEU:100    0
Name: 99, dtype: object

>  <hbond:ALA:101>  (100) 
hbond:ALA:101    0
hbond:ALA:101    0
Name: 99, dtype: object

>  <hydroph_interaction:ALA:101>  (100) 
hydroph_interaction:ALA:101    0
hydroph_interaction:ALA:101    0
Name: 99, dtype: object

>  <hydroph_interaction:VAL:102>  (100) 
hydroph_interaction:VAL:102    0
hydroph_interaction:VAL:102    0
Name: 99, dtype: object

>  <hbond:VAL:102>  (100) 
hbond:VAL:102    0
hbond:VAL:102    0
Name: 99, dtype: object

>  <hbond:GLY:103>  (100) 
hbond:GLY:103    0
hbond:GLY:103    0
Name: 99, dtype: object

>  <halogenbond:GLY:103>  (100) 
halogenbond:GLY:103    0
halogenbond:GLY:103    0
Name: 99, dtype: object

>  <hydroph_interaction:HIS:104>  (100) 
hydroph_interaction:HIS:104    0
hydroph_interaction:HIS:104    0
Name: 99, dtype: object

>  <hbond:HIS:104>  (100) 
hbond:HIS:104    0
hbond:HIS:104    0
Name: 99, dtype: object

>  <saltbridge:HIS:104>  (100) 
saltbridge:HIS:104    0
saltbridge:HIS:104    0
Name: 99, dtype: object

>  <pication:HIS:104>  (100) 
pication:HIS:104    0
pication:HIS:104    0
Name: 99, dtype: object

>  <pistack:HIS:104>  (100) 
pistack:HIS:104    0
pistack:HIS:104    0
Name: 99, dtype: object

>  <halogenbond:HIS:104>  (100) 
halogenbond:HIS:104    0
halogenbond:HIS:104    0
Name: 99, dtype: object

>  <hbond:SER:105>  (100) 
hbond:SER:105    0
hbond:SER:105    0
Name: 99, dtype: object

>  <halogenbond:SER:105>  (100) 
halogenbond:SER:105    0
halogenbond:SER:105    0
Name: 99, dtype: object

>  <hbond:GLU:106>  (100) 
hbond:GLU:106    0
hbond:GLU:106    0
Name: 99, dtype: object

>  <hydroph_interaction:GLU:106>  (100) 
hydroph_interaction:GLU:106    0
hydroph_interaction:GLU:106    0
Name: 99, dtype: object

>  <saltbridge:GLU:106>  (100) 
saltbridge:GLU:106    0
saltbridge:GLU:106    0
Name: 99, dtype: object

>  <halogenbond:GLU:106>  (100) 
halogenbond:GLU:106    0
halogenbond:GLU:106    0
Name: 99, dtype: object

>  <hydroph_interaction:PRO:107>  (100) 
hydroph_interaction:PRO:107    0
hydroph_interaction:PRO:107    0
Name: 99, dtype: object

>  <hbond:PRO:107>  (100) 
hbond:PRO:107    0
hbond:PRO:107    0
Name: 99, dtype: object

>  <halogenbond:PRO:107>  (100) 
halogenbond:PRO:107    0
halogenbond:PRO:107    0
Name: 99, dtype: object

>  <hbond:GLY:108>  (100) 
hbond:GLY:108    0
hbond:GLY:108    0
Name: 99, dtype: object

>  <halogenbond:GLY:108>  (100) 
halogenbond:GLY:108    0
halogenbond:GLY:108    0
Name: 99, dtype: object

>  <hbond:ASP:109>  (100) 
hbond:ASP:109    0
hbond:ASP:109    0
Name: 99, dtype: object

>  <hydroph_interaction:ASP:109>  (100) 
hydroph_interaction:ASP:109    0
hydroph_interaction:ASP:109    0
Name: 99, dtype: object

>  <saltbridge:ASP:109>  (100) 
saltbridge:ASP:109    0
saltbridge:ASP:109    0
Name: 99, dtype: object

>  <hbond:CYS:110>  (100) 
hbond:CYS:110    0
hbond:CYS:110    0
Name: 99, dtype: object

>  <halogenbond:CYS:110>  (100) 
halogenbond:CYS:110    0
halogenbond:CYS:110    0
Name: 99, dtype: object

>  <hbond:GLY:111>  (100) 
hbond:GLY:111    0
hbond:GLY:111    0
Name: 99, dtype: object

>  <hbond:GLY:112>  (100) 
hbond:GLY:112    0
hbond:GLY:112    0
Name: 99, dtype: object

>  <hbond:ILE:113>  (100) 
hbond:ILE:113    0
hbond:ILE:113    0
Name: 99, dtype: object

>  <hydroph_interaction:LEU:114>  (100) 
hydroph_interaction:LEU:114    0
hydroph_interaction:LEU:114    0
Name: 99, dtype: object

>  <hbond:LEU:114>  (100) 
hbond:LEU:114    0
hbond:LEU:114    0
Name: 99, dtype: object

>  <hydroph_interaction:ILE:123>  (100) 
hydroph_interaction:ILE:123    0
hydroph_interaction:ILE:123    0
Name: 99, dtype: object

>  <hbond:ILE:123>  (100) 
hbond:ILE:123    0
hbond:ILE:123    0
Name: 99, dtype: object

>  <hydroph_interaction:VAL:124>  (100) 
hydroph_interaction:VAL:124    0
hydroph_interaction:VAL:124    0
Name: 99, dtype: object

>  <hbond:VAL:124>  (100) 
hbond:VAL:124    0
hbond:VAL:124    0
Name: 99, dtype: object

>  <halogenbond:VAL:124>  (100) 
halogenbond:VAL:124    0
halogenbond:VAL:124    0
Name: 99, dtype: object

>  <hbond:SER:125>  (100) 
hbond:SER:125    0
hbond:SER:125    0
Name: 99, dtype: object

>  <halogenbond:SER:125>  (100) 
halogenbond:SER:125    0
halogenbond:SER:125    0
Name: 99, dtype: object

>  <hydroph_interaction:THR:126>  (100) 
hydroph_interaction:THR:126    0
hydroph_interaction:THR:126    0
Name: 99, dtype: object

>  <hbond:THR:126>  (100) 
hbond:THR:126    0
hbond:THR:126    0
Name: 99, dtype: object

>  <halogenbond:THR:126>  (100) 
halogenbond:THR:126    0
halogenbond:THR:126    0
Name: 99, dtype: object

>  <hbond:GLY:127>  (100) 
hbond:GLY:127    0
hbond:GLY:127    0
Name: 99, dtype: object

>  <halogenbond:GLY:127>  (100) 
halogenbond:GLY:127    0
halogenbond:GLY:127    0
Name: 99, dtype: object

>  <hydroph_interaction:GLY:127>  (100) 
hydroph_interaction:GLY:127    0
hydroph_interaction:GLY:127    0
Name: 99, dtype: object

>  <hbond:GLY:128>  (100) 
hbond:GLY:128    0
hbond:GLY:128    0
Name: 99, dtype: object

>  <halogenbond:GLY:128>  (100) 
halogenbond:GLY:128    0
halogenbond:GLY:128    0
Name: 99, dtype: object

>  <hydroph_interaction:GLY:128>  (100) 
hydroph_interaction:GLY:128    0
hydroph_interaction:GLY:128    0
Name: 99, dtype: object

>  <hbond:ASN:129>  (100) 
hbond:ASN:129    0
hbond:ASN:129    0
Name: 99, dtype: object

>  <hydroph_interaction:ASN:129>  (100) 
hydroph_interaction:ASN:129    0
hydroph_interaction:ASN:129    0
Name: 99, dtype: object

>  <halogenbond:ASN:129>  (100) 
halogenbond:ASN:129    0
halogenbond:ASN:129    0
Name: 99, dtype: object

>  <hbond:GLY:130>  (100) 
hbond:GLY:130    0
hbond:GLY:130    0
Name: 99, dtype: object

>  <hydroph_interaction:LEU:131>  (100) 
hydroph_interaction:LEU:131    0
hydroph_interaction:LEU:131    0
Name: 99, dtype: object

>  <hbond:LEU:131>  (100) 
hbond:LEU:131    0
hbond:LEU:131    0
Name: 99, dtype: object

>  <halogenbond:LEU:131>  (100) 
halogenbond:LEU:131    0
halogenbond:LEU:131    0
Name: 99, dtype: object

>  <hydroph_interaction:VAL:132>  (100) 
hydroph_interaction:VAL:132    0
hydroph_interaction:VAL:132    0
Name: 99, dtype: object

>  <hbond:VAL:132>  (100) 
hbond:VAL:132    0
hbond:VAL:132    0
Name: 99, dtype: object

>  <hbond:GLY:133>  (100) 
hbond:GLY:133    0
hbond:GLY:133    0
Name: 99, dtype: object

>  <halogenbond:GLY:133>  (100) 
halogenbond:GLY:133    0
halogenbond:GLY:133    0
Name: 99, dtype: object

>  <hydroph_interaction:PHE:134>  (100) 
hydroph_interaction:PHE:134    0
hydroph_interaction:PHE:134    0
Name: 99, dtype: object

>  <hbond:PHE:134>  (100) 
hbond:PHE:134    0
hbond:PHE:134    0
Name: 99, dtype: object

>  <pistack:PHE:134>  (100) 
pistack:PHE:134    0
pistack:PHE:134    0
Name: 99, dtype: object

>  <pication:PHE:134>  (100) 
pication:PHE:134    0
pication:PHE:134    0
Name: 99, dtype: object

>  <hydroph_interaction:ALA:135>  (100) 
hydroph_interaction:ALA:135    0
hydroph_interaction:ALA:135    0
Name: 99, dtype: object

>  <hbond:ALA:135>  (100) 
hbond:ALA:135    0
hbond:ALA:135    0
Name: 99, dtype: object

$$$$
