untitled-dbase-485_9
  -OEChem-11112315393D

 37 39  0     0  0  0  0  0  0999 V2000
   12.3944   15.3252   22.1330 C   0  0  0  0  0  0  0  0  0  0  0  0
   10.7789   13.6760   23.0451 C   0  0  0  0  0  0  0  0  0  0  0  0
    6.5955   10.5337   23.8690 C   0  0  0  0  0  0  0  0  0  0  0  0
    7.6058   11.5350   25.9345 C   0  0  0  0  0  0  0  0  0  0  0  0
    8.4667    9.3523   25.0493 C   0  0  0  0  0  0  0  0  0  0  0  0
    8.0055   12.6004   23.7000 C   0  0  0  0  0  0  0  0  0  0  0  0
    8.8671   10.4153   22.8140 C   0  0  0  0  0  0  0  0  0  0  0  0
    9.8793   11.4176   24.8826 C   0  0  0  0  0  0  0  0  0  0  0  0
    6.9786   11.8502   24.5658 C   0  0  0  0  0  0  0  0  0  0  0  0
    7.8438    9.6562   23.6761 C   0  0  0  0  0  0  0  0  0  0  0  0
    8.8595   10.6626   25.7526 C   0  0  0  0  0  0  0  0  0  0  0  0
    9.2722   11.7390   23.4999 C   0  0  0  0  0  0  0  0  0  0  0  0
   13.2652   15.5493   20.9228 C   0  0  0  0  0  0  0  0  0  0  0  0
   11.6806   14.1300   22.0706 N   0  0  0  0  0  0  0  0  0  0  0  0
   10.2336   12.4466   22.6833 N   0  0  0  0  0  0  0  0  0  0  0  0
   12.3336   16.1449   23.0473 O   0  0  0  0  0  0  0  0  0  0  0  0
   10.5069   14.2819   24.0803 O   0  0  0  0  0  0  0  0  0  0  0  0
   12.4658   14.7990   19.5326 Cl  0  0  0  0  0  0  0  0  0  0  0  0
    5.8494    9.9967   24.4674 H   0  0  0  0  0  0  0  0  0  0  0  0
    6.1320   10.7448   22.8975 H   0  0  0  0  0  0  0  0  0  0  0  0
    7.8692   12.4671   26.4495 H   0  0  0  0  0  0  0  0  0  0  0  0
    6.8776   11.0154   26.5692 H   0  0  0  0  0  0  0  0  0  0  0  0
    7.7533    8.7947   25.6686 H   0  0  0  0  0  0  0  0  0  0  0  0
    9.3495    8.7130   24.9269 H   0  0  0  0  0  0  0  0  0  0  0  0
    7.5542   12.8466   22.7299 H   0  0  0  0  0  0  0  0  0  0  0  0
    8.2650   13.5519   24.1822 H   0  0  0  0  0  0  0  0  0  0  0  0
    9.7506    9.7836   22.6537 H   0  0  0  0  0  0  0  0  0  0  0  0
    8.4350   10.6157   21.8248 H   0  0  0  0  0  0  0  0  0  0  0  0
   10.1798   12.3431   25.3908 H   0  0  0  0  0  0  0  0  0  0  0  0
   10.7849   10.8073   24.7693 H   0  0  0  0  0  0  0  0  0  0  0  0
    6.0854   12.4699   24.7018 H   0  0  0  0  0  0  0  0  0  0  0  0
    7.5649    8.7196   23.1806 H   0  0  0  0  0  0  0  0  0  0  0  0
    9.3004   10.4397   26.7306 H   0  0  0  0  0  0  0  0  0  0  0  0
   13.3656   16.6229   20.7416 H   0  0  0  0  0  0  0  0  0  0  0  0
   14.2607   15.1121   21.0334 H   0  0  0  0  0  0  0  0  0  0  0  0
   11.8243   13.5409   21.2551 H   0  0  0  0  0  0  0  0  0  0  0  0
   10.4885   12.0416   21.7889 H   0  0  0  0  0  0  0  0  0  0  0  0
  1 13  1  0  0  0  0
  1 14  1  0  0  0  0
  1 16  2  0  0  0  0
  2 14  1  0  0  0  0
  2 15  1  0  0  0  0
  2 17  2  0  0  0  0
  3  9  1  0  0  0  0
  3 10  1  0  0  0  0
  4  9  1  0  0  0  0
  4 11  1  0  0  0  0
  5 10  1  0  0  0  0
  5 11  1  0  0  0  0
  6  9  1  0  0  0  0
  6 12  1  0  0  0  0
  7 10  1  0  0  0  0
  7 12  1  0  0  0  0
  8 11  1  0  0  0  0
  8 12  1  0  0  0  0
 12 15  1  0  0  0  0
 13 18  1  0  0  0  0
  3 19  1  0  0  0  0
  3 20  1  0  0  0  0
  4 21  1  0  0  0  0
  4 22  1  0  0  0  0
  5 23  1  0  0  0  0
  5 24  1  0  0  0  0
  6 25  1  0  0  0  0
  6 26  1  0  0  0  0
  7 27  1  0  0  0  0
  7 28  1  0  0  0  0
  8 29  1  0  0  0  0
  8 30  1  0  0  0  0
  9 31  1  0  0  0  0
 10 32  1  0  0  0  0
 11 33  1  0  0  0  0
 13 34  1  0  0  0  0
 13 35  1  0  0  0  0
 14 36  1  0  0  0  0
 15 37  1  0  0  0  0
M  END
> <Catalog ID>
Z56877931

> <MW>
270.114

> <MW (desalted)>
270.755

> <ClogP>
2.644

> <logS>
-3.56

> <HBD>
2

> <HBA>
2

> <TPSA>
58.2

> <RotBonds>
2

> <ROCS_ShapeQuery>
A71EV2A-x0451_0A_A71EV2A-x0310_0A_A71EV2A-x0416_0A_peptide

> <ROCS_TanimotoCombo>
0.533 

> <ROCS_ShapeTanimoto>
0.299 

> <ROCS_ColorTanimoto>
0.234 

> <ROCS_RefTversky>
0.267 

> <ROCS_RefColorTversky>
0.261 

> <ROCS_RefTverskyCombo>
0.528 

> <ROCS_FitTversky>
1.654 

> <ROCS_FitColorTversky>
0.693 

> <ROCS_FitTverskyCombo>
2.347 

> <ROCS_ColorScore>
-7.994

> <ROCS_Overlap>
1853.605

> <ROCS_Rank>
1                   

$$$$
untitled-dbase-277_2
  -OEChem-11112315393D

 38 40  0     0  0  0  0  0  0999 V2000
   12.7377   15.5550   19.7192 C   0  0  0  0  0  0  0  0  0  0  0  0
   13.2678   15.5076   20.9451 C   0  0  0  0  0  0  0  0  0  0  0  0
   12.3950   15.3239   22.1358 C   0  0  0  0  0  0  0  0  0  0  0  0
   10.7791   13.6782   23.0483 C   0  0  0  0  0  0  0  0  0  0  0  0
    6.5941   10.5288   23.8605 C   0  0  0  0  0  0  0  0  0  0  0  0
    7.5952   11.5306   25.9301 C   0  0  0  0  0  0  0  0  0  0  0  0
    8.4628    9.3497   25.0470 C   0  0  0  0  0  0  0  0  0  0  0  0
    8.0015   12.5977   23.6977 C   0  0  0  0  0  0  0  0  0  0  0  0
    8.8698   10.4144   22.8137 C   0  0  0  0  0  0  0  0  0  0  0  0
    9.8728   11.4173   24.8866 C   0  0  0  0  0  0  0  0  0  0  0  0
    6.9726   11.8455   24.5593 C   0  0  0  0  0  0  0  0  0  0  0  0
    7.8445    9.6533   23.6717 C   0  0  0  0  0  0  0  0  0  0  0  0
    8.8510   10.6603   25.7525 C   0  0  0  0  0  0  0  0  0  0  0  0
    9.2702   11.7384   23.5018 C   0  0  0  0  0  0  0  0  0  0  0  0
   11.6827   14.1286   22.0733 N   0  0  0  0  0  0  0  0  0  0  0  0
   10.2336   12.4479   22.6891 N   0  0  0  0  0  0  0  0  0  0  0  0
   12.3359   16.1473   23.0430 O   0  0  0  0  0  0  0  0  0  0  0  0
   10.5062   14.2884   24.0808 O   0  0  0  0  0  0  0  0  0  0  0  0
   13.3805   15.6900   18.8556 H   0  0  0  0  0  0  0  0  0  0  0  0
   11.6723   15.4637   19.5391 H   0  0  0  0  0  0  0  0  0  0  0  0
   14.3394   15.6035   21.0811 H   0  0  0  0  0  0  0  0  0  0  0  0
    5.8466    9.9903   24.4558 H   0  0  0  0  0  0  0  0  0  0  0  0
    6.1338   10.7396   22.8874 H   0  0  0  0  0  0  0  0  0  0  0  0
    7.8553   12.4629   26.4466 H   0  0  0  0  0  0  0  0  0  0  0  0
    6.8654   11.0095   26.5619 H   0  0  0  0  0  0  0  0  0  0  0  0
    7.7480    8.7906   25.6635 H   0  0  0  0  0  0  0  0  0  0  0  0
    9.3470    8.7118   24.9276 H   0  0  0  0  0  0  0  0  0  0  0  0
    7.5534   12.8438   22.7261 H   0  0  0  0  0  0  0  0  0  0  0  0
    8.2577   13.5494   24.1813 H   0  0  0  0  0  0  0  0  0  0  0  0
    9.7548    9.7842   22.6564 H   0  0  0  0  0  0  0  0  0  0  0  0
    8.4409   10.6146   21.8231 H   0  0  0  0  0  0  0  0  0  0  0  0
   10.1700   12.3430   25.3963 H   0  0  0  0  0  0  0  0  0  0  0  0
   10.7798   10.8085   24.7763 H   0  0  0  0  0  0  0  0  0  0  0  0
    6.0779   12.4638   24.6924 H   0  0  0  0  0  0  0  0  0  0  0  0
    7.5689    8.7165   23.1747 H   0  0  0  0  0  0  0  0  0  0  0  0
    9.2886   10.4375   26.7319 H   0  0  0  0  0  0  0  0  0  0  0  0
   11.8284   13.5372   21.2593 H   0  0  0  0  0  0  0  0  0  0  0  0
   10.5268   12.0284   21.8133 H   0  0  0  0  0  0  0  0  0  0  0  0
  1  2  2  0  0  0  0
  2  3  1  0  0  0  0
  3 15  1  0  0  0  0
  3 17  2  0  0  0  0
  4 15  1  0  0  0  0
  4 16  1  0  0  0  0
  4 18  2  0  0  0  0
  5 11  1  0  0  0  0
  5 12  1  0  0  0  0
  6 11  1  0  0  0  0
  6 13  1  0  0  0  0
  7 12  1  0  0  0  0
  7 13  1  0  0  0  0
  8 11  1  0  0  0  0
  8 14  1  0  0  0  0
  9 12  1  0  0  0  0
  9 14  1  0  0  0  0
 10 13  1  0  0  0  0
 10 14  1  0  0  0  0
 14 16  1  0  0  0  0
  1 19  1  0  0  0  0
  1 20  1  0  0  0  0
  2 21  1  0  0  0  0
  5 22  1  0  0  0  0
  5 23  1  0  0  0  0
  6 24  1  0  0  0  0
  6 25  1  0  0  0  0
  7 26  1  0  0  0  0
  7 27  1  0  0  0  0
  8 28  1  0  0  0  0
  8 29  1  0  0  0  0
  9 30  1  0  0  0  0
  9 31  1  0  0  0  0
 10 32  1  0  0  0  0
 10 33  1  0  0  0  0
 11 34  1  0  0  0  0
 12 35  1  0  0  0  0
 13 36  1  0  0  0  0
 15 37  1  0  0  0  0
 16 38  1  0  0  0  0
M  END
> <Catalog ID>
Z85923115

> <MW>
248.152

> <MW (desalted)>
248.321

> <ClogP>
2.476

> <logS>
-3.62

> <HBD>
2

> <HBA>
2

> <TPSA>
58.2

> <RotBonds>
2

> <ROCS_ShapeQuery>
A71EV2A-x0451_0A_A71EV2A-x0310_0A_A71EV2A-x0416_0A_peptide

> <ROCS_TanimotoCombo>
0.527 

> <ROCS_ShapeTanimoto>
0.300 

> <ROCS_ColorTanimoto>
0.227 

> <ROCS_RefTversky>
0.269 

> <ROCS_RefColorTversky>
0.260 

> <ROCS_RefTverskyCombo>
0.529 

> <ROCS_FitTversky>
1.648 

> <ROCS_FitColorTversky>
0.639 

> <ROCS_FitTverskyCombo>
2.287 

> <ROCS_ColorScore>
-7.987

> <ROCS_Overlap>
1863.065

> <ROCS_Rank>
2                   

$$$$
untitled-dbase-404_2
  -OEChem-11112315393D

 27 28  0     0  0  0  0  0  0999 V2000
    6.9637   13.0085   25.8991 C   0  0  0  0  0  0  0  0  0  0  0  0
    6.3424   11.8066   26.2476 C   0  0  0  0  0  0  0  0  0  0  0  0
    8.0004   13.0397   24.9563 C   0  0  0  0  0  0  0  0  0  0  0  0
    6.7318   10.5946   25.6695 C   0  0  0  0  0  0  0  0  0  0  0  0
    8.4080   11.8326   24.3620 C   0  0  0  0  0  0  0  0  0  0  0  0
    9.3813   11.4510   23.4013 C   0  0  0  0  0  0  0  0  0  0  0  0
    7.7645   10.6573   24.7357 C   0  0  0  0  0  0  0  0  0  0  0  0
    9.2680   10.0878   23.2549 C   0  0  0  0  0  0  0  0  0  0  0  0
    9.9744    9.1601   22.4363 C   0  0  0  0  0  0  0  0  0  0  0  0
   10.8353   13.4541   23.2119 C   0  0  0  0  0  0  0  0  0  0  0  0
    9.5975    7.6947   22.5132 C   0  0  0  0  0  0  0  0  0  0  0  0
   11.7773   14.0852   22.2130 C   0  0  0  0  0  0  0  0  0  0  0  0
   10.2727   12.2617   22.7366 N   0  0  0  0  0  0  0  0  0  0  0  0
   10.9008    9.4349   21.6432 O   0  0  0  0  0  0  0  0  0  0  0  0
   10.6239   14.0001   24.2913 O   0  0  0  0  0  0  0  0  0  0  0  0
    8.2902    9.5968   24.0602 O   0  0  0  0  0  0  0  0  0  0  0  0
   10.8304   15.1838   21.1971 Cl  0  0  0  0  0  0  0  0  0  0  0  0
    6.6390   13.9348   26.3661 H   0  0  0  0  0  0  0  0  0  0  0  0
    5.5416   11.8130   26.9830 H   0  0  0  0  0  0  0  0  0  0  0  0
    8.4724   13.9823   24.6961 H   0  0  0  0  0  0  0  0  0  0  0  0
    6.2543    9.6587   25.9340 H   0  0  0  0  0  0  0  0  0  0  0  0
    8.8113    7.4087   21.7967 H   0  0  0  0  0  0  0  0  0  0  0  0
    9.2562    7.3933   23.5157 H   0  0  0  0  0  0  0  0  0  0  0  0
   10.4262    7.0013   22.2840 H   0  0  0  0  0  0  0  0  0  0  0  0
   12.2704   13.3494   21.5726 H   0  0  0  0  0  0  0  0  0  0  0  0
   12.5412   14.6592   22.7450 H   0  0  0  0  0  0  0  0  0  0  0  0
   10.5546   11.9623   21.7958 H   0  0  0  0  0  0  0  0  0  0  0  0
  1  2  1  0  0  0  0
  1  3  2  0  0  0  0
  2  4  2  0  0  0  0
  3  5  1  0  0  0  0
  4  7  1  0  0  0  0
  5  6  1  0  0  0  0
  5  7  2  0  0  0  0
  6  8  2  0  0  0  0
  6 13  1  0  0  0  0
  7 16  1  0  0  0  0
  8  9  1  0  0  0  0
  8 16  1  0  0  0  0
  9 11  1  0  0  0  0
  9 14  2  0  0  0  0
 10 12  1  0  0  0  0
 10 13  1  0  0  0  0
 10 15  2  0  0  0  0
 12 17  1  0  0  0  0
  1 18  1  0  0  0  0
  2 19  1  0  0  0  0
  3 20  1  0  0  0  0
  4 21  1  0  0  0  0
 11 22  1  0  0  0  0
 11 23  1  0  0  0  0
 11 24  1  0  0  0  0
 12 25  1  0  0  0  0
 12 26  1  0  0  0  0
 13 27  1  0  0  0  0
M  END
> <Catalog ID>
Z56347570

> <MW>
251.035

> <MW (desalted)>
251.666

> <ClogP>
2.672

> <logS>
-3.55

> <HBD>
1

> <HBA>
2

> <TPSA>
59.31

> <RotBonds>
3

> <ROCS_ShapeQuery>
A71EV2A-x0451_0A_A71EV2A-x0310_0A_A71EV2A-x0416_0A_peptide

> <ROCS_TanimotoCombo>
0.523 

> <ROCS_ShapeTanimoto>
0.330 

> <ROCS_ColorTanimoto>
0.192 

> <ROCS_RefTversky>
0.287 

> <ROCS_RefColorTversky>
0.200 

> <ROCS_RefTverskyCombo>
0.487 

> <ROCS_FitTversky>
1.831 

> <ROCS_FitColorTversky>
0.833 

> <ROCS_FitTverskyCombo>
2.664 

> <ROCS_ColorScore>
-6.085

> <ROCS_Overlap>
1992.769

> <ROCS_Rank>
3                   

$$$$
untitled-dbase-433_58
  -OEChem-11112315393D

 27 28  0     0  0  0  0  0  0999 V2000
    6.4239   11.3905   26.0396 C   0  0  0  0  0  0  0  0  0  0  0  0
    7.0424   12.6372   26.0499 C   0  0  0  0  0  0  0  0  0  0  0  0
    9.6051    9.8396   22.7009 C   0  0  0  0  0  0  0  0  0  0  0  0
    6.9032   10.3798   25.2058 C   0  0  0  0  0  0  0  0  0  0  0  0
    8.1425   12.8780   25.2263 C   0  0  0  0  0  0  0  0  0  0  0  0
    8.5051    9.5988   23.5246 C   0  0  0  0  0  0  0  0  0  0  0  0
   10.2236   11.0863   22.7111 C   0  0  0  0  0  0  0  0  0  0  0  0
    8.0093   10.6045   24.3702 C   0  0  0  0  0  0  0  0  0  0  0  0
    8.6382   11.8723   24.3806 C   0  0  0  0  0  0  0  0  0  0  0  0
    9.7444   12.0970   23.5449 C   0  0  0  0  0  0  0  0  0  0  0  0
   10.4446   13.3778   23.4984 C   0  0  0  0  0  0  0  0  0  0  0  0
   11.7796   14.8808   22.0355 C   0  0  0  0  0  0  0  0  0  0  0  0
   12.2663   14.9799   20.6120 C   0  0  0  0  0  0  0  0  0  0  0  0
   11.0431   13.7215   22.2749 N   0  0  0  0  0  0  0  0  0  0  0  0
   10.5121   14.0871   24.5134 O   0  0  0  0  0  0  0  0  0  0  0  0
   12.0091   15.7644   22.8591 O   0  0  0  0  0  0  0  0  0  0  0  0
   13.8078   15.8504   20.6267 Cl  0  0  0  0  0  0  0  0  0  0  0  0
    5.5679   11.2039   26.6817 H   0  0  0  0  0  0  0  0  0  0  0  0
    6.6699   13.4226   26.7009 H   0  0  0  0  0  0  0  0  0  0  0  0
    9.9790    9.0530   22.0519 H   0  0  0  0  0  0  0  0  0  0  0  0
    6.4045    9.4126   25.2144 H   0  0  0  0  0  0  0  0  0  0  0  0
    8.5982   13.8645   25.2645 H   0  0  0  0  0  0  0  0  0  0  0  0
    8.0370    8.6170   23.5001 H   0  0  0  0  0  0  0  0  0  0  0  0
   11.0799   11.2591   22.0639 H   0  0  0  0  0  0  0  0  0  0  0  0
   12.4259   13.9749   20.2115 H   0  0  0  0  0  0  0  0  0  0  0  0
   11.5665   15.5136   19.9639 H   0  0  0  0  0  0  0  0  0  0  0  0
   10.9386   13.0686   21.5033 H   0  0  0  0  0  0  0  0  0  0  0  0
  1  2  1  0  0  0  0
  1  4  2  0  0  0  0
  2  5  2  0  0  0  0
  3  6  1  0  0  0  0
  3  7  2  0  0  0  0
  4  8  1  0  0  0  0
  5  9  1  0  0  0  0
  6  8  2  0  0  0  0
  7 10  1  0  0  0  0
  8  9  1  0  0  0  0
  9 10  2  0  0  0  0
 10 11  1  0  0  0  0
 11 14  1  0  0  0  0
 11 15  2  0  0  0  0
 12 13  1  0  0  0  0
 12 14  1  0  0  0  0
 12 16  2  0  0  0  0
 13 17  1  0  0  0  0
  1 18  1  0  0  0  0
  2 19  1  0  0  0  0
  3 20  1  0  0  0  0
  4 21  1  0  0  0  0
  5 22  1  0  0  0  0
  6 23  1  0  0  0  0
  7 24  1  0  0  0  0
 13 25  1  0  0  0  0
 13 26  1  0  0  0  0
 14 27  1  0  0  0  0
M  END
> <Catalog ID>
Z56910374

> <MW>
247.04

> <MW (desalted)>
247.677

> <ClogP>
2.458

> <logS>
-4.44

> <HBD>
1

> <HBA>
2

> <TPSA>
46.17

> <RotBonds>
2

> <ROCS_ShapeQuery>
A71EV2A-x0451_0A_A71EV2A-x0310_0A_A71EV2A-x0416_0A_peptide

> <ROCS_TanimotoCombo>
0.516 

> <ROCS_ShapeTanimoto>
0.330 

> <ROCS_ColorTanimoto>
0.186 

> <ROCS_RefTversky>
0.287 

> <ROCS_RefColorTversky>
0.189 

> <ROCS_RefTverskyCombo>
0.476 

> <ROCS_FitTversky>
1.837 

> <ROCS_FitColorTversky>
0.907 

> <ROCS_FitTverskyCombo>
2.743 

> <ROCS_ColorScore>
-5.749

> <ROCS_Overlap>
1988.573

> <ROCS_Rank>
4                   

$$$$
untitled-dbase-662_79
  -OEChem-11112315393D

 41 42  0     1  0  0  0  0  0999 V2000
    6.6074   11.4032   26.1492 C   0  0  0  0  0  0  0  0  0  0  0  0
    7.0058   12.6637   25.7492 C   0  0  0  0  0  0  0  0  0  0  0  0
    7.2238   10.2863   25.5921 C   0  0  0  0  0  0  0  0  0  0  0  0
    8.0205   12.7940   24.8016 C   0  0  0  0  0  0  0  0  0  0  0  0
    8.2578   10.3929   24.6303 C   0  0  0  0  0  0  0  0  0  0  0  0
    8.6781   11.6756   24.2302 C   0  0  0  0  0  0  0  0  0  0  0  0
    9.7311    8.7425   23.3489 C   0  0  0  0  0  0  0  0  0  0  0  0
   12.3756   15.2756   19.9603 C   0  0  0  0  0  0  0  0  0  0  0  0
   11.6787   15.7681   20.9896 C   0  0  0  0  0  0  0  0  0  0  0  0
   12.2171   15.6615   22.3756 C   0  0  0  0  0  0  0  0  0  0  0  0
   10.5628   13.0398   23.4261 C   0  0  0  0  0  0  0  0  0  0  0  0
   10.5771    9.7473   22.6283 C   0  0  0  0  0  0  0  0  0  0  0  0
    9.8541   10.9858   22.1361 C   0  0  1  0  0  0  0  0  0  0  0  0
    8.5774   10.7274   21.3280 C   0  0  0  0  0  0  0  0  0  0  0  0
   13.5115   14.1491   23.8294 C   0  0  0  0  0  0  0  0  0  0  0  0
   11.7086   13.1769   22.4514 C   0  0  0  0  0  0  0  0  0  0  0  0
    8.7545    9.1347   24.2169 N   0  0  0  0  0  0  0  0  0  0  0  0
    9.6882   11.9440   23.2405 N   0  0  0  0  0  0  0  0  0  0  0  0
   12.4452   14.3418   22.8348 N   0  0  0  0  0  0  0  0  0  0  0  0
    9.9664    7.5388   23.1828 O   0  0  0  0  0  0  0  0  0  0  0  0
   12.4096   16.6834   23.0364 O   0  0  0  0  0  0  0  0  0  0  0  0
   10.4709   13.8730   24.3335 O   0  0  0  0  0  0  0  0  0  0  0  0
    5.8173   11.2831   26.8837 H   0  0  0  0  0  0  0  0  0  0  0  0
    6.5251   13.5474   26.1575 H   0  0  0  0  0  0  0  0  0  0  0  0
    6.8837    9.3065   25.9265 H   0  0  0  0  0  0  0  0  0  0  0  0
    8.2577   13.8064   24.4796 H   0  0  0  0  0  0  0  0  0  0  0  0
   12.0235   15.3306   18.9362 H   0  0  0  0  0  0  0  0  0  0  0  0
   13.3371   14.8031   20.1330 H   0  0  0  0  0  0  0  0  0  0  0  0
   10.7409   16.2781   20.8072 H   0  0  0  0  0  0  0  0  0  0  0  0
   11.4217   10.0127   23.2761 H   0  0  0  0  0  0  0  0  0  0  0  0
   11.0084    9.2342   21.7580 H   0  0  0  0  0  0  0  0  0  0  0  0
   10.5367   11.4254   21.4051 H   0  0  0  0  0  0  0  0  0  0  0  0
    7.8230   10.2839   21.9724 H   0  0  0  0  0  0  0  0  0  0  0  0
    8.7972   10.0480   20.5087 H   0  0  0  0  0  0  0  0  0  0  0  0
    8.2041   11.6667   20.9282 H   0  0  0  0  0  0  0  0  0  0  0  0
   13.0920   14.2482   24.8415 H   0  0  0  0  0  0  0  0  0  0  0  0
   13.9473   13.1462   23.7099 H   0  0  0  0  0  0  0  0  0  0  0  0
   14.2932   14.9086   23.6807 H   0  0  0  0  0  0  0  0  0  0  0  0
   11.2916   13.2828   21.4552 H   0  0  0  0  0  0  0  0  0  0  0  0
   12.3185   12.2821   22.5213 H   0  0  0  0  0  0  0  0  0  0  0  0
    8.2804    8.3522   24.6641 H   0  0  0  0  0  0  0  0  0  0  0  0
  1  2  1  0  0  0  0
  1  3  2  0  0  0  0
  2  4  2  0  0  0  0
  3  5  1  0  0  0  0
  4  6  1  0  0  0  0
  5  6  2  0  0  0  0
  5 17  1  0  0  0  0
  6 18  1  0  0  0  0
  7 12  1  0  0  0  0
  7 17  1  0  0  0  0
  7 20  2  0  0  0  0
  8  9  2  0  0  0  0
  9 10  1  0  0  0  0
 10 19  1  0  0  0  0
 10 21  2  0  0  0  0
 11 16  1  0  0  0  0
 11 18  1  0  0  0  0
 11 22  2  0  0  0  0
 12 13  1  0  0  0  0
 13 14  1  0  0  0  0
 13 18  1  0  0  0  0
 15 19  1  0  0  0  0
 16 19  1  0  0  0  0
  1 23  1  0  0  0  0
  2 24  1  0  0  0  0
  3 25  1  0  0  0  0
  4 26  1  0  0  0  0
  8 27  1  0  0  0  0
  8 28  1  0  0  0  0
  9 29  1  0  0  0  0
 12 30  1  0  0  0  0
 12 31  1  0  0  0  0
 13 32  1  0  0  0  0
 14 33  1  0  0  0  0
 14 34  1  0  0  0  0
 14 35  1  0  0  0  0
 15 36  1  0  0  0  0
 15 37  1  0  0  0  0
 15 38  1  0  0  0  0
 16 39  1  0  0  0  0
 16 40  1  0  0  0  0
 17 41  1  0  0  0  0
M  END
> <Catalog ID>
Z2285377333

> <MW>
301.34

> <MW (desalted)>
301.34

> <ClogP>
1.04

> <logS>
-2.972

> <HBD>
1

> <HBA>
3

> <TPSA>
69.72

> <RotBonds>
3

> <ROCS_ShapeQuery>
A71EV2A-x0451_0A_A71EV2A-x0310_0A_A71EV2A-x0416_0A_peptide

> <ROCS_TanimotoCombo>
0.514 

> <ROCS_ShapeTanimoto>
0.360 

> <ROCS_ColorTanimoto>
0.154 

> <ROCS_RefTversky>
0.314 

> <ROCS_RefColorTversky>
0.170 

> <ROCS_RefTverskyCombo>
0.484 

> <ROCS_FitTversky>
1.686 

> <ROCS_FitColorTversky>
0.628 

> <ROCS_FitTverskyCombo>
2.314 

> <ROCS_ColorScore>
-5.176

> <ROCS_Overlap>
2181.480

> <ROCS_Rank>
5                   

$$$$
untitled-dbase-389_1508
  -OEChem-11112315393D

 32 33  0     1  0  0  0  0  0999 V2000
    6.3298   11.6848   26.3147 C   0  0  0  0  0  0  0  0  0  0  0  0
    6.9032   12.9389   26.1024 C   0  0  0  0  0  0  0  0  0  0  0  0
    6.8075   10.5710   25.6238 C   0  0  0  0  0  0  0  0  0  0  0  0
    7.9487   13.0849   25.1904 C   0  0  0  0  0  0  0  0  0  0  0  0
    7.8621   10.7138   24.7217 C   0  0  0  0  0  0  0  0  0  0  0  0
    8.4176   11.9738   24.4890 C   0  0  0  0  0  0  0  0  0  0  0  0
   11.2881   15.3267   22.3437 C   0  0  0  0  0  0  0  0  0  0  0  0
   12.1465   13.1204   23.0897 C   0  0  0  0  0  0  0  0  0  0  0  0
    9.5779    9.7727   23.4723 C   0  0  0  0  0  0  0  0  0  0  0  0
    9.5934   11.0800   22.6912 C   0  0  2  0  0  0  0  0  0  0  0  0
   10.2359   15.9170   21.4395 C   0  0  0  0  0  0  0  0  0  0  0  0
   10.9122   11.2706   21.9566 C   0  0  0  0  0  0  0  0  0  0  0  0
   11.2913   13.9332   22.3304 N   0  0  0  0  0  0  0  0  0  0  0  0
   11.9058   11.7571   22.8564 N   0  0  0  0  0  0  0  0  0  0  0  0
   12.0313   16.0349   23.0202 O   0  0  0  0  0  0  0  0  0  0  0  0
   13.0034   13.5417   23.8650 O   0  0  0  0  0  0  0  0  0  0  0  0
    8.3010    9.5805   24.0894 O   0  0  0  0  0  0  0  0  0  0  0  0
    9.4321   12.1840   23.5925 O   0  0  0  0  0  0  0  0  0  0  0  0
   10.5426   15.3330   19.7965 Cl  0  0  0  0  0  0  0  0  0  0  0  0
    5.5128   11.5749   27.0220 H   0  0  0  0  0  0  0  0  0  0  0  0
    6.5317   13.8038   26.6444 H   0  0  0  0  0  0  0  0  0  0  0  0
    6.3605    9.5968   25.8018 H   0  0  0  0  0  0  0  0  0  0  0  0
    8.3832   14.0669   25.0248 H   0  0  0  0  0  0  0  0  0  0  0  0
    9.7514    8.9214   22.8058 H   0  0  0  0  0  0  0  0  0  0  0  0
   10.3473    9.7535   24.2549 H   0  0  0  0  0  0  0  0  0  0  0  0
    8.7678   11.1093   21.9676 H   0  0  0  0  0  0  0  0  0  0  0  0
    9.2479   15.5767   21.7617 H   0  0  0  0  0  0  0  0  0  0  0  0
   10.2514   17.0097   21.4322 H   0  0  0  0  0  0  0  0  0  0  0  0
   11.2065   10.3012   21.5535 H   0  0  0  0  0  0  0  0  0  0  0  0
   10.7406   11.9896   21.1551 H   0  0  0  0  0  0  0  0  0  0  0  0
   10.6217   13.4693   21.7229 H   0  0  0  0  0  0  0  0  0  0  0  0
   12.5114   11.0859   23.3374 H   0  0  0  0  0  0  0  0  0  0  0  0
  1  2  1  0  0  0  0
  1  3  2  0  0  0  0
  2  4  2  0  0  0  0
  3  5  1  0  0  0  0
  4  6  1  0  0  0  0
  5  6  2  0  0  0  0
  5 17  1  0  0  0  0
  6 18  1  0  0  0  0
  7 11  1  0  0  0  0
  7 13  1  0  0  0  0
  7 15  2  0  0  0  0
  8 13  1  0  0  0  0
  8 14  1  0  0  0  0
  8 16  2  0  0  0  0
  9 10  1  0  0  0  0
  9 17  1  0  0  0  0
 10 12  1  0  0  0  0
 10 18  1  0  0  0  0
 11 19  1  0  0  0  0
 12 14  1  0  0  0  0
  1 20  1  0  0  0  0
  2 21  1  0  0  0  0
  3 22  1  0  0  0  0
  4 23  1  0  0  0  0
  9 24  1  0  0  0  0
  9 25  1  0  0  0  0
 10 26  1  0  0  0  0
 11 27  1  0  0  0  0
 11 28  1  0  0  0  0
 12 29  1  0  0  0  0
 12 30  1  0  0  0  0
 13 31  1  0  0  0  0
 14 32  1  0  0  0  0
M  END
> <Catalog ID>
Z56985682

> <MW>
284.056

> <MW (desalted)>
284.696

> <ClogP>
2.007

> <logS>
-3.2

> <HBD>
2

> <HBA>
4

> <TPSA>
76.66

> <RotBonds>
3

> <ROCS_ShapeQuery>
A71EV2A-x0451_0A_A71EV2A-x0310_0A_A71EV2A-x0416_0A_peptide

> <ROCS_TanimotoCombo>
0.510 

> <ROCS_ShapeTanimoto>
0.335 

> <ROCS_ColorTanimoto>
0.175 

> <ROCS_RefTversky>
0.293 

> <ROCS_RefColorTversky>
0.194 

> <ROCS_RefTverskyCombo>
0.487 

> <ROCS_FitTversky>
1.750 

> <ROCS_FitColorTversky>
0.644 

> <ROCS_FitTverskyCombo>
2.394 

> <ROCS_ColorScore>
-5.925

> <ROCS_Overlap>
2033.478

> <ROCS_Rank>
6                   

$$$$
untitled-dbase-353_92
  -OEChem-11112315393D

 28 29  0     1  0  0  0  0  0999 V2000
    6.9505   13.1035   26.1544 C   0  0  0  0  0  0  0  0  0  0  0  0
    6.1742   11.9572   26.2725 C   0  0  0  0  0  0  0  0  0  0  0  0
    8.1011   13.1020   25.3563 C   0  0  0  0  0  0  0  0  0  0  0  0
    6.5467   10.8054   25.5908 C   0  0  0  0  0  0  0  0  0  0  0  0
    8.4934   11.9559   24.6471 C   0  0  0  0  0  0  0  0  0  0  0  0
    7.6877   10.8068   24.7787 C   0  0  0  0  0  0  0  0  0  0  0  0
    9.1585    8.3567   22.6546 C   0  0  0  0  0  0  0  0  0  0  0  0
   10.4830   13.0130   23.5439 C   0  0  0  0  0  0  0  0  0  0  0  0
   10.0520   10.5405   23.3948 C   0  0  0  0  0  0  0  0  0  0  0  0
    8.8068    9.7581   23.0336 C   0  0  2  0  0  0  0  0  0  0  0  0
   11.2269   12.9557   22.2278 C   0  0  0  0  0  0  0  0  0  0  0  0
    9.6939   11.8924   23.8509 N   0  0  0  0  0  0  0  0  0  0  0  0
    8.1970    7.4333   22.9912 N   0  0  0  0  0  0  0  0  0  0  0  0
   10.2085    8.0798   22.0800 O   0  0  0  0  0  0  0  0  0  0  0  0
   10.6058   14.0271   24.2333 O   0  0  0  0  0  0  0  0  0  0  0  0
    7.9531    9.6103   24.1585 O   0  0  0  0  0  0  0  0  0  0  0  0
   12.0945   14.4782   22.0785 Cl  0  0  0  0  0  0  0  0  0  0  0  0
    6.6718   14.0035   26.6957 H   0  0  0  0  0  0  0  0  0  0  0  0
    5.2870   11.9597   26.8981 H   0  0  0  0  0  0  0  0  0  0  0  0
    8.6788   14.0187   25.3515 H   0  0  0  0  0  0  0  0  0  0  0  0
    5.9416    9.9075   25.6872 H   0  0  0  0  0  0  0  0  0  0  0  0
   10.6037   10.0667   24.2172 H   0  0  0  0  0  0  0  0  0  0  0  0
   10.7167   10.5793   22.5274 H   0  0  0  0  0  0  0  0  0  0  0  0
    8.2568   10.2085   22.1979 H   0  0  0  0  0  0  0  0  0  0  0  0
   10.5062   12.8548   21.4265 H   0  0  0  0  0  0  0  0  0  0  0  0
   11.9240   12.1284   22.2597 H   0  0  0  0  0  0  0  0  0  0  0  0
    7.3531    7.7554   23.4533 H   0  0  0  0  0  0  0  0  0  0  0  0
    8.2976    6.4425   22.7960 H   0  0  0  0  0  0  0  0  0  0  0  0
  1  2  1  0  0  0  0
  1  3  2  0  0  0  0
  2  4  2  0  0  0  0
  3  5  1  0  0  0  0
  4  6  1  0  0  0  0
  5  6  2  0  0  0  0
  5 12  1  0  0  0  0
  6 16  1  0  0  0  0
  7 10  1  0  0  0  0
  7 13  1  0  0  0  0
  7 14  2  0  0  0  0
  8 11  1  0  0  0  0
  8 12  1  0  0  0  0
  8 15  2  0  0  0  0
  9 10  1  0  0  0  0
  9 12  1  0  0  0  0
 10 16  1  0  0  0  0
 11 17  1  0  0  0  0
  1 18  1  0  0  0  0
  2 19  1  0  0  0  0
  3 20  1  0  0  0  0
  4 21  1  0  0  0  0
  9 22  1  0  0  0  0
  9 23  1  0  0  0  0
 10 24  1  0  0  0  0
 11 25  1  0  0  0  0
 11 26  1  0  0  0  0
 13 27  1  0  0  0  0
 13 28  1  0  0  0  0
M  END
> <Catalog ID>
Z199424094

> <MW>
254.046

> <MW (desalted)>
254.67

> <ClogP>
0.385

> <logS>
-3.05

> <HBD>
1

> <HBA>
3

> <TPSA>
72.63

> <RotBonds>
2

> <ROCS_ShapeQuery>
A71EV2A-x0451_0A_A71EV2A-x0310_0A_A71EV2A-x0416_0A_peptide

> <ROCS_TanimotoCombo>
0.507 

> <ROCS_ShapeTanimoto>
0.322 

> <ROCS_ColorTanimoto>
0.184 

> <ROCS_RefTversky>
0.282 

> <ROCS_RefColorTversky>
0.193 

> <ROCS_RefTverskyCombo>
0.475 

> <ROCS_FitTversky>
1.803 

> <ROCS_FitColorTversky>
0.805 

> <ROCS_FitTverskyCombo>
2.608 

> <ROCS_ColorScore>
-5.870

> <ROCS_Overlap>
1955.196

> <ROCS_Rank>
7                   

$$$$
untitled-dbase-7_109
  -OEChem-11112315393D

 29 30  0     0  0  0  0  0  0999 V2000
    9.6000   10.1645   23.0882 C   0  0  0  0  0  0  0  0  0  0  0  0
    8.7459    9.2921   23.7635 C   0  0  0  0  0  0  0  0  0  0  0  0
    8.5323   12.0506   24.1600 C   0  0  0  0  0  0  0  0  0  0  0  0
    9.4968   11.5412   23.2901 C   0  0  0  0  0  0  0  0  0  0  0  0
    7.7899    9.7999   24.6436 C   0  0  0  0  0  0  0  0  0  0  0  0
    7.6688   11.1798   24.8252 C   0  0  0  0  0  0  0  0  0  0  0  0
   12.3266   15.4609   22.1608 C   0  0  0  0  0  0  0  0  0  0  0  0
   10.8360   13.6684   23.0363 C   0  0  0  0  0  0  0  0  0  0  0  0
    6.3084    9.4813   26.4015 C   0  0  0  0  0  0  0  0  0  0  0  0
    5.7002   10.8101   25.9972 C   0  0  0  0  0  0  0  0  0  0  0  0
   13.1897   15.7699   20.9639 C   0  0  0  0  0  0  0  0  0  0  0  0
   10.3561   12.4100   22.6166 N   0  0  0  0  0  0  0  0  0  0  0  0
   11.6860   14.2268   22.0604 N   0  0  0  0  0  0  0  0  0  0  0  0
   12.2399   16.2337   23.1131 O   0  0  0  0  0  0  0  0  0  0  0  0
   10.5687   14.2267   24.0973 O   0  0  0  0  0  0  0  0  0  0  0  0
    6.9939    8.8925   25.2927 O   0  0  0  0  0  0  0  0  0  0  0  0
    6.7291   11.7408   25.6501 O   0  0  0  0  0  0  0  0  0  0  0  0
   12.4915   14.9426   19.5629 Cl  0  0  0  0  0  0  0  0  0  0  0  0
   10.3460    9.7595   22.4090 H   0  0  0  0  0  0  0  0  0  0  0  0
    8.8381    8.2210   23.6060 H   0  0  0  0  0  0  0  0  0  0  0  0
    8.4441   13.1238   24.3129 H   0  0  0  0  0  0  0  0  0  0  0  0
    7.0178    9.5970   27.2303 H   0  0  0  0  0  0  0  0  0  0  0  0
    5.5253    8.7849   26.7165 H   0  0  0  0  0  0  0  0  0  0  0  0
    5.0230   10.7010   25.1410 H   0  0  0  0  0  0  0  0  0  0  0  0
    5.1323   11.2370   26.8298 H   0  0  0  0  0  0  0  0  0  0  0  0
   14.2003   15.3900   21.1374 H   0  0  0  0  0  0  0  0  0  0  0  0
   13.2441   16.8398   20.7485 H   0  0  0  0  0  0  0  0  0  0  0  0
   10.6810   12.0926   21.6974 H   0  0  0  0  0  0  0  0  0  0  0  0
   11.8448   13.6859   21.2150 H   0  0  0  0  0  0  0  0  0  0  0  0
  1  2  2  0  0  0  0
  1  4  1  0  0  0  0
  2  5  1  0  0  0  0
  3  4  2  0  0  0  0
  3  6  1  0  0  0  0
  4 12  1  0  0  0  0
  5  6  2  0  0  0  0
  5 16  1  0  0  0  0
  6 17  1  0  0  0  0
  7 11  1  0  0  0  0
  7 13  1  0  0  0  0
  7 14  2  0  0  0  0
  8 12  1  0  0  0  0
  8 13  1  0  0  0  0
  8 15  2  0  0  0  0
  9 10  1  0  0  0  0
  9 16  1  0  0  0  0
 10 17  1  0  0  0  0
 11 18  1  0  0  0  0
  1 19  1  0  0  0  0
  2 20  1  0  0  0  0
  3 21  1  0  0  0  0
  9 22  1  0  0  0  0
  9 23  1  0  0  0  0
 10 24  1  0  0  0  0
 10 25  1  0  0  0  0
 11 26  1  0  0  0  0
 11 27  1  0  0  0  0
 12 28  1  0  0  0  0
 13 29  1  0  0  0  0
M  END
> <Catalog ID>
Z56910347

> <MW>
270.041

> <MW (desalted)>
270.669

> <ClogP>
2.267

> <logS>
-3.02

> <HBD>
2

> <HBA>
4

> <TPSA>
76.66

> <RotBonds>
2

> <ROCS_ShapeQuery>
A71EV2A-x0451_0A_A71EV2A-x0310_0A_A71EV2A-x0416_0A_peptide

> <ROCS_TanimotoCombo>
0.504 

> <ROCS_ShapeTanimoto>
0.323 

> <ROCS_ColorTanimoto>
0.181 

> <ROCS_RefTversky>
0.284 

> <ROCS_RefColorTversky>
0.199 

> <ROCS_RefTverskyCombo>
0.484 

> <ROCS_FitTversky>
1.747 

> <ROCS_FitColorTversky>
0.662 

> <ROCS_FitTverskyCombo>
2.409 

> <ROCS_ColorScore>
-6.089

> <ROCS_Overlap>
1970.187

> <ROCS_Rank>
8                   

$$$$
untitled-dbase-922_46
  -OEChem-11112315393D

 26 27  0     0  0  0  0  0  0999 V2000
    9.6697   10.2267   23.0811 C   0  0  0  0  0  0  0  0  0  0  0  0
    8.8048    9.3477   23.7373 C   0  0  0  0  0  0  0  0  0  0  0  0
    8.5694   12.1419   24.1056 C   0  0  0  0  0  0  0  0  0  0  0  0
    9.5528   11.6158   23.2642 C   0  0  0  0  0  0  0  0  0  0  0  0
    7.8426    9.8927   24.5624 C   0  0  0  0  0  0  0  0  0  0  0  0
    7.7282   11.2524   24.7418 C   0  0  0  0  0  0  0  0  0  0  0  0
   12.4041   15.5232   22.1464 C   0  0  0  0  0  0  0  0  0  0  0  0
   10.8945   13.7415   23.0115 C   0  0  0  0  0  0  0  0  0  0  0  0
    6.2091   10.2713   25.9299 C   0  0  0  0  0  0  0  0  0  0  0  0
   13.2972   15.8151   20.9673 C   0  0  0  0  0  0  0  0  0  0  0  0
   10.4280   12.4759   22.5993 N   0  0  0  0  0  0  0  0  0  0  0  0
   11.7684   14.2863   22.0491 N   0  0  0  0  0  0  0  0  0  0  0  0
   12.2916   16.3107   23.0838 O   0  0  0  0  0  0  0  0  0  0  0  0
   10.5991   14.3160   24.0563 O   0  0  0  0  0  0  0  0  0  0  0  0
    6.9187    9.1972   25.2796 O   0  0  0  0  0  0  0  0  0  0  0  0
    6.7180   11.5783   25.5934 O   0  0  0  0  0  0  0  0  0  0  0  0
   12.6814   17.2692   20.1667 Cl  0  0  0  0  0  0  0  0  0  0  0  0
   10.4377    9.8232   22.4251 H   0  0  0  0  0  0  0  0  0  0  0  0
    8.8917    8.2759   23.5994 H   0  0  0  0  0  0  0  0  0  0  0  0
    8.4669   13.2114   24.2567 H   0  0  0  0  0  0  0  0  0  0  0  0
    5.1530   10.2207   25.6393 H   0  0  0  0  0  0  0  0  0  0  0  0
    6.2821   10.1345   27.0149 H   0  0  0  0  0  0  0  0  0  0  0  0
   13.2587   14.9766   20.2665 H   0  0  0  0  0  0  0  0  0  0  0  0
   14.3362   15.9880   21.2583 H   0  0  0  0  0  0  0  0  0  0  0  0
   10.7769   12.1449   21.6940 H   0  0  0  0  0  0  0  0  0  0  0  0
   11.9499   13.7325   21.2167 H   0  0  0  0  0  0  0  0  0  0  0  0
  1  2  2  0  0  0  0
  1  4  1  0  0  0  0
  2  5  1  0  0  0  0
  3  4  2  0  0  0  0
  3  6  1  0  0  0  0
  4 11  1  0  0  0  0
  5  6  2  0  0  0  0
  5 15  1  0  0  0  0
  6 16  1  0  0  0  0
  7 10  1  0  0  0  0
  7 12  1  0  0  0  0
  7 13  2  0  0  0  0
  8 11  1  0  0  0  0
  8 12  1  0  0  0  0
  8 14  2  0  0  0  0
  9 15  1  0  0  0  0
  9 16  1  0  0  0  0
 10 17  1  0  0  0  0
  1 18  1  0  0  0  0
  2 19  1  0  0  0  0
  3 20  1  0  0  0  0
  9 21  1  0  0  0  0
  9 22  1  0  0  0  0
 10 23  1  0  0  0  0
 10 24  1  0  0  0  0
 11 25  1  0  0  0  0
 12 26  1  0  0  0  0
M  END
> <Catalog ID>
Z114957106

> <MW>
256.025

> <MW (desalted)>
256.642

> <ClogP>
2.308

> <logS>
-3.1

> <HBD>
2

> <HBA>
4

> <TPSA>
76.66

> <RotBonds>
2

> <ROCS_ShapeQuery>
A71EV2A-x0451_0A_A71EV2A-x0310_0A_A71EV2A-x0416_0A_peptide

> <ROCS_TanimotoCombo>
0.503 

> <ROCS_ShapeTanimoto>
0.314 

> <ROCS_ColorTanimoto>
0.189 

> <ROCS_RefTversky>
0.277 

> <ROCS_RefColorTversky>
0.207 

> <ROCS_RefTverskyCombo>
0.484 

> <ROCS_FitTversky>
1.759 

> <ROCS_FitColorTversky>
0.684 

> <ROCS_FitTverskyCombo>
2.443 

> <ROCS_ColorScore>
-6.311

> <ROCS_Overlap>
1919.473

> <ROCS_Rank>
9                   

$$$$
untitled-dbase-22_235
  -OEChem-11112315393D

 32 33  0     0  0  0  0  0  0999 V2000
    9.5875   10.1258   23.1152 C   0  0  0  0  0  0  0  0  0  0  0  0
    8.7118    9.2589   23.7682 C   0  0  0  0  0  0  0  0  0  0  0  0
    8.5160   12.0056   24.1830 C   0  0  0  0  0  0  0  0  0  0  0  0
    9.4828   11.4998   23.3144 C   0  0  0  0  0  0  0  0  0  0  0  0
    7.7221    9.7609   24.6213 C   0  0  0  0  0  0  0  0  0  0  0  0
    7.6507   11.1400   24.8621 C   0  0  0  0  0  0  0  0  0  0  0  0
   12.2944   15.4288   22.1721 C   0  0  0  0  0  0  0  0  0  0  0  0
   10.8134   13.6315   23.0543 C   0  0  0  0  0  0  0  0  0  0  0  0
    5.3737    9.9971   26.6542 C   0  0  0  0  0  0  0  0  0  0  0  0
    5.5458    9.2506   25.3402 C   0  0  0  0  0  0  0  0  0  0  0  0
    6.4939   10.9961   26.9000 C   0  0  0  0  0  0  0  0  0  0  0  0
   13.1518   15.7402   20.9717 C   0  0  0  0  0  0  0  0  0  0  0  0
   10.3364   12.3712   22.6371 N   0  0  0  0  0  0  0  0  0  0  0  0
   11.6578   14.1924   22.0749 N   0  0  0  0  0  0  0  0  0  0  0  0
   12.2086   16.2018   23.1243 O   0  0  0  0  0  0  0  0  0  0  0  0
   10.5483   14.1895   24.1160 O   0  0  0  0  0  0  0  0  0  0  0  0
    6.8940    8.8139   25.1689 O   0  0  0  0  0  0  0  0  0  0  0  0
    6.7753   11.7529   25.7228 O   0  0  0  0  0  0  0  0  0  0  0  0
   12.4511   14.9097   19.5739 Cl  0  0  0  0  0  0  0  0  0  0  0  0
   10.3525    9.7168   22.4600 H   0  0  0  0  0  0  0  0  0  0  0  0
    8.8199    8.1868   23.6241 H   0  0  0  0  0  0  0  0  0  0  0  0
    8.4184   13.0811   24.3198 H   0  0  0  0  0  0  0  0  0  0  0  0
    4.4199   10.5372   26.6611 H   0  0  0  0  0  0  0  0  0  0  0  0
    5.3350    9.2633   27.4674 H   0  0  0  0  0  0  0  0  0  0  0  0
    4.8438    8.4098   25.2545 H   0  0  0  0  0  0  0  0  0  0  0  0
    5.3114    9.9260   24.5097 H   0  0  0  0  0  0  0  0  0  0  0  0
    6.2729   11.6552   27.7506 H   0  0  0  0  0  0  0  0  0  0  0  0
    7.4074   10.4530   27.1672 H   0  0  0  0  0  0  0  0  0  0  0  0
   14.1644   15.3640   21.1415 H   0  0  0  0  0  0  0  0  0  0  0  0
   13.2015   16.8102   20.7556 H   0  0  0  0  0  0  0  0  0  0  0  0
   10.6589   12.0544   21.7168 H   0  0  0  0  0  0  0  0  0  0  0  0
   11.8153   13.6516   21.2291 H   0  0  0  0  0  0  0  0  0  0  0  0
  1  2  2  0  0  0  0
  1  4  1  0  0  0  0
  2  5  1  0  0  0  0
  3  4  2  0  0  0  0
  3  6  1  0  0  0  0
  4 13  1  0  0  0  0
  5  6  2  0  0  0  0
  5 17  1  0  0  0  0
  6 18  1  0  0  0  0
  7 12  1  0  0  0  0
  7 14  1  0  0  0  0
  7 15  2  0  0  0  0
  8 13  1  0  0  0  0
  8 14  1  0  0  0  0
  8 16  2  0  0  0  0
  9 10  1  0  0  0  0
  9 11  1  0  0  0  0
 10 17  1  0  0  0  0
 11 18  1  0  0  0  0
 12 19  1  0  0  0  0
  1 20  1  0  0  0  0
  2 21  1  0  0  0  0
  3 22  1  0  0  0  0
  9 23  1  0  0  0  0
  9 24  1  0  0  0  0
 10 25  1  0  0  0  0
 10 26  1  0  0  0  0
 11 27  1  0  0  0  0
 11 28  1  0  0  0  0
 12 29  1  0  0  0  0
 12 30  1  0  0  0  0
 13 31  1  0  0  0  0
 14 32  1  0  0  0  0
M  END
> <Catalog ID>
Z99599718

> <MW>
284.056

> <MW (desalted)>
284.696

> <ClogP>
2.426

> <logS>
-3.17

> <HBD>
2

> <HBA>
4

> <TPSA>
76.66

> <RotBonds>
2

> <ROCS_ShapeQuery>
A71EV2A-x0451_0A_A71EV2A-x0310_0A_A71EV2A-x0416_0A_peptide

> <ROCS_TanimotoCombo>
0.502 

> <ROCS_ShapeTanimoto>
0.325 

> <ROCS_ColorTanimoto>
0.178 

> <ROCS_RefTversky>
0.286 

> <ROCS_RefColorTversky>
0.196 

> <ROCS_RefTverskyCombo>
0.483 

> <ROCS_FitTversky>
1.704 

> <ROCS_FitColorTversky>
0.652 

> <ROCS_FitTverskyCombo>
2.356 

> <ROCS_ColorScore>
-5.995

> <ROCS_Overlap>
1986.192

> <ROCS_Rank>
10                  

$$$$
untitled-dbase-661_1
  -OEChem-11112315393D

 32 34  0     1  0  0  0  0  0999 V2000
   12.2667   14.4967   21.9988 C   0  0  0  0  0  0  0  0  0  0  0  0
   11.5792   13.3801   22.2477 C   0  0  0  0  0  0  0  0  0  0  0  0
   10.7280   13.3205   23.4523 C   0  0  0  0  0  0  0  0  0  0  0  0
    7.5362   10.4034   23.0186 C   0  0  0  0  0  0  0  0  0  0  0  0
    7.5610   10.2295   25.3888 C   0  0  0  0  0  0  0  0  0  0  0  0
   10.0475   10.9409   22.8310 C   0  0  0  0  0  0  0  0  0  0  0  0
    6.9731   11.0962   24.2737 C   0  0  1  0  0  0  0  0  0  0  0  0
    8.9796   10.0381   23.4402 C   0  0  1  0  0  0  0  0  0  0  0  0
    8.9939   10.4357   24.9315 C   0  0  1  0  0  0  0  0  0  0  0  0
    9.1534   11.9668   24.8110 C   0  0  2  0  0  0  0  0  0  0  0  0
    7.7164   12.4296   24.4807 C   0  0  2  0  0  0  0  0  0  0  0  0
    5.9836   13.8228   25.2421 C   0  0  0  0  0  0  0  0  0  0  0  0
   10.0377   12.1428   23.6637 N   0  0  0  0  0  0  0  0  0  0  0  0
   10.6791   14.3024   24.1926 O   0  0  0  0  0  0  0  0  0  0  0  0
    7.1788   13.1376   25.5903 O   0  0  0  0  0  0  0  0  0  0  0  0
   12.9085   14.6005   21.1304 H   0  0  0  0  0  0  0  0  0  0  0  0
   12.1954   15.3419   22.6753 H   0  0  0  0  0  0  0  0  0  0  0  0
   11.6240   12.5168   21.5968 H   0  0  0  0  0  0  0  0  0  0  0  0
    6.9701    9.4868   22.8145 H   0  0  0  0  0  0  0  0  0  0  0  0
    7.4894   11.0363   22.1268 H   0  0  0  0  0  0  0  0  0  0  0  0
    7.3709   10.6211   26.3930 H   0  0  0  0  0  0  0  0  0  0  0  0
    7.2404    9.1841   25.3343 H   0  0  0  0  0  0  0  0  0  0  0  0
   11.0416   10.4887   22.9172 H   0  0  0  0  0  0  0  0  0  0  0  0
    9.8554   11.1907   21.7835 H   0  0  0  0  0  0  0  0  0  0  0  0
    5.8844   11.1797   24.2994 H   0  0  0  0  0  0  0  0  0  0  0  0
    9.1825    8.9764   23.2702 H   0  0  0  0  0  0  0  0  0  0  0  0
    9.7731    9.9456   25.5191 H   0  0  0  0  0  0  0  0  0  0  0  0
    9.5587   12.4415   25.7101 H   0  0  0  0  0  0  0  0  0  0  0  0
    7.6601   13.0843   23.6048 H   0  0  0  0  0  0  0  0  0  0  0  0
    5.5995   14.3542   26.1162 H   0  0  0  0  0  0  0  0  0  0  0  0
    5.2418   13.1043   24.8842 H   0  0  0  0  0  0  0  0  0  0  0  0
    6.2039   14.5415   24.4493 H   0  0  0  0  0  0  0  0  0  0  0  0
  1  2  2  0  0  0  0
  2  3  1  0  0  0  0
  3 13  1  0  0  0  0
  3 14  2  0  0  0  0
  4  7  1  0  0  0  0
  4  8  1  0  0  0  0
  5  7  1  0  0  0  0
  5  9  1  0  0  0  0
  6  8  1  0  0  0  0
  6 13  1  0  0  0  0
  7 11  1  0  0  0  0
  8  9  1  0  0  0  0
  9 10  1  0  0  0  0
 10 11  1  0  0  0  0
 10 13  1  0  0  0  0
 11 15  1  0  0  0  0
 12 15  1  0  0  0  0
  1 16  1  0  0  0  0
  1 17  1  0  0  0  0
  2 18  1  0  0  0  0
  4 19  1  0  0  0  0
  4 20  1  0  0  0  0
  5 21  1  0  0  0  0
  5 22  1  0  0  0  0
  6 23  1  0  0  0  0
  6 24  1  0  0  0  0
  7 25  1  0  0  0  0
  8 26  1  0  0  0  0
  9 27  1  0  0  0  0
 10 28  1  0  0  0  0
 11 29  1  0  0  0  0
 12 30  1  0  0  0  0
 12 31  1  0  0  0  0
 12 32  1  0  0  0  0
M  END
> <Catalog ID>
Z2238549117

> <MW>
207.126

> <MW (desalted)>
207.269

> <ClogP>
1.001

> <logS>
-2.31

> <HBD>
0

> <HBA>
2

> <TPSA>
29.54

> <RotBonds>
2

> <ROCS_ShapeQuery>
A71EV2A-x0451_0A_A71EV2A-x0310_0A_A71EV2A-x0416_0A_peptide

> <ROCS_TanimotoCombo>
0.498 

> <ROCS_ShapeTanimoto>
0.291 

> <ROCS_ColorTanimoto>
0.207 

> <ROCS_RefTversky>
0.258 

> <ROCS_RefColorTversky>
0.262 

> <ROCS_RefTverskyCombo>
0.520 

> <ROCS_FitTversky>
1.766 

> <ROCS_FitColorTversky>
0.494 

> <ROCS_FitTverskyCombo>
2.260 

> <ROCS_ColorScore>
-8.098

> <ROCS_Overlap>
1790.597

> <ROCS_Rank>
11                  

$$$$
untitled-dbase-334_44
  -OEChem-11112315393D

 36 37  0     1  0  0  0  0  0999 V2000
   11.4080   15.4258   22.0259 C   0  0  0  0  0  0  0  0  0  0  0  0
   10.9122   13.2927   23.1945 C   0  0  0  0  0  0  0  0  0  0  0  0
    6.4607   11.5455   25.8076 C   0  0  0  0  0  0  0  0  0  0  0  0
    7.0923   12.7149   25.0373 C   0  0  0  0  0  0  0  0  0  0  0  0
    7.1502   10.7835   23.6606 C   0  0  0  0  0  0  0  0  0  0  0  0
    8.5404   10.1786   25.4941 C   0  0  0  0  0  0  0  0  0  0  0  0
    7.0554   10.3104   25.1098 C   0  0  1  0  0  0  0  0  0  0  0  0
    8.0011   12.0047   24.0164 C   0  0  2  0  0  0  0  0  0  0  0  0
    9.1941   11.3815   24.7803 C   0  0  2  0  0  0  0  0  0  0  0  0
   11.6242   10.7357   24.6265 C   0  0  0  0  0  0  0  0  0  0  0  0
   11.4470   16.0046   20.6342 C   0  0  0  0  0  0  0  0  0  0  0  0
   10.3314   10.9577   23.8573 C   0  0  2  0  0  0  0  0  0  0  0  0
   11.0489   14.0794   22.0407 N   0  0  0  0  0  0  0  0  0  0  0  0
   10.5493   12.0158   22.8424 N   0  0  0  0  0  0  0  0  0  0  0  0
   11.6539   16.1090   23.0180 O   0  0  0  0  0  0  0  0  0  0  0  0
   11.0939   13.6986   24.3412 O   0  0  0  0  0  0  0  0  0  0  0  0
   12.6094   15.0628   19.6873 Cl  0  0  0  0  0  0  0  0  0  0  0  0
    6.6987   11.5794   26.8754 H   0  0  0  0  0  0  0  0  0  0  0  0
    5.3706   11.5688   25.6986 H   0  0  0  0  0  0  0  0  0  0  0  0
    6.3139   13.2940   24.5275 H   0  0  0  0  0  0  0  0  0  0  0  0
    7.6436   13.3930   25.6961 H   0  0  0  0  0  0  0  0  0  0  0  0
    7.6567   10.0692   23.0046 H   0  0  0  0  0  0  0  0  0  0  0  0
    6.1785   11.0467   23.2290 H   0  0  0  0  0  0  0  0  0  0  0  0
    8.6899   10.2213   26.5780 H   0  0  0  0  0  0  0  0  0  0  0  0
    8.9452    9.2260   25.1334 H   0  0  0  0  0  0  0  0  0  0  0  0
    6.4800    9.3968   25.2715 H   0  0  0  0  0  0  0  0  0  0  0  0
    8.2863   12.6405   23.1755 H   0  0  0  0  0  0  0  0  0  0  0  0
    9.5973   12.0883   25.5156 H   0  0  0  0  0  0  0  0  0  0  0  0
   11.9197   11.6475   25.1569 H   0  0  0  0  0  0  0  0  0  0  0  0
   12.4389   10.4582   23.9496 H   0  0  0  0  0  0  0  0  0  0  0  0
   11.5155    9.9412   25.3733 H   0  0  0  0  0  0  0  0  0  0  0  0
   10.4578   15.9168   20.1767 H   0  0  0  0  0  0  0  0  0  0  0  0
   11.7530   17.0537   20.6227 H   0  0  0  0  0  0  0  0  0  0  0  0
   10.0527   10.0373   23.3348 H   0  0  0  0  0  0  0  0  0  0  0  0
   10.8723   13.6321   21.1455 H   0  0  0  0  0  0  0  0  0  0  0  0
   10.3775   11.7579   21.8937 H   0  0  0  0  0  0  0  0  0  0  0  0
  1 11  1  0  0  0  0
  1 13  1  0  0  0  0
  1 15  2  0  0  0  0
  2 13  1  0  0  0  0
  2 14  1  0  0  0  0
  2 16  2  0  0  0  0
  3  4  1  0  0  0  0
  3  7  1  0  0  0  0
  4  8  1  0  0  0  0
  5  7  1  0  0  0  0
  5  8  1  0  0  0  0
  6  7  1  0  0  0  0
  6  9  1  0  0  0  0
  8  9  1  0  0  0  0
  9 12  1  0  0  0  0
 10 12  1  0  0  0  0
 11 17  1  0  0  0  0
 12 14  1  0  0  0  0
  3 18  1  0  0  0  0
  3 19  1  0  0  0  0
  4 20  1  0  0  0  0
  4 21  1  0  0  0  0
  5 22  1  0  0  0  0
  5 23  1  0  0  0  0
  6 24  1  0  0  0  0
  6 25  1  0  0  0  0
  7 26  1  0  0  0  0
  8 27  1  0  0  0  0
  9 28  1  0  0  0  0
 10 29  1  0  0  0  0
 10 30  1  0  0  0  0
 10 31  1  0  0  0  0
 11 32  1  0  0  0  0
 11 33  1  0  0  0  0
 12 34  1  0  0  0  0
 13 35  1  0  0  0  0
 14 36  1  0  0  0  0
M  END
> <Catalog ID>
Z57012197

> <MW>
258.114

> <MW (desalted)>
258.744

> <ClogP>
3.219

> <logS>
-3.67

> <HBD>
2

> <HBA>
2

> <TPSA>
58.2

> <RotBonds>
3

> <ROCS_ShapeQuery>
A71EV2A-x0451_0A_A71EV2A-x0310_0A_A71EV2A-x0416_0A_peptide

> <ROCS_TanimotoCombo>
0.490 

> <ROCS_ShapeTanimoto>
0.282 

> <ROCS_ColorTanimoto>
0.208 

> <ROCS_RefTversky>
0.253 

> <ROCS_RefColorTversky>
0.236 

> <ROCS_RefTverskyCombo>
0.489 

> <ROCS_FitTversky>
1.663 

> <ROCS_FitColorTversky>
0.635 

> <ROCS_FitTverskyCombo>
2.297 

> <ROCS_ColorScore>
-7.237

> <ROCS_Overlap>
1755.378

> <ROCS_Rank>
12                  

$$$$
untitled-dbase-172_53
  -OEChem-11112315393D

 31 32  0     1  0  0  0  0  0999 V2000
    6.7453   13.0710   26.0834 C   0  0  0  0  0  0  0  0  0  0  0  0
    6.2283   11.8321   26.4452 C   0  0  0  0  0  0  0  0  0  0  0  0
    7.7816   13.1613   25.1455 C   0  0  0  0  0  0  0  0  0  0  0  0
    6.7200   10.6828   25.8396 C   0  0  0  0  0  0  0  0  0  0  0  0
    8.3365   12.0152   24.5635 C   0  0  0  0  0  0  0  0  0  0  0  0
    7.7366   10.7817   24.8840 C   0  0  0  0  0  0  0  0  0  0  0  0
    8.8746    8.4997   22.3951 C   0  0  0  0  0  0  0  0  0  0  0  0
   10.3741   13.0553   23.4308 C   0  0  0  0  0  0  0  0  0  0  0  0
    9.6698   10.7929   22.8930 C   0  0  0  0  0  0  0  0  0  0  0  0
    8.4943    9.8397   22.9401 C   0  0  2  0  0  0  0  0  0  0  0  0
    8.4470    6.0617   22.6305 C   0  0  0  0  0  0  0  0  0  0  0  0
   11.0119   13.2201   22.0746 C   0  0  0  0  0  0  0  0  0  0  0  0
    9.4355   12.0357   23.6391 N   0  0  0  0  0  0  0  0  0  0  0  0
    8.2287    7.4407   23.0040 N   0  0  0  0  0  0  0  0  0  0  0  0
    9.6937    8.4274   21.4865 O   0  0  0  0  0  0  0  0  0  0  0  0
   10.6572   13.8901   24.3003 O   0  0  0  0  0  0  0  0  0  0  0  0
    8.1101    9.6008   24.2880 O   0  0  0  0  0  0  0  0  0  0  0  0
   12.4819   12.2549   22.0941 Cl  0  0  0  0  0  0  0  0  0  0  0  0
    6.3533   13.9748   26.5416 H   0  0  0  0  0  0  0  0  0  0  0  0
    5.4513   11.7637   27.2000 H   0  0  0  0  0  0  0  0  0  0  0  0
    8.1428   14.1611   24.9317 H   0  0  0  0  0  0  0  0  0  0  0  0
    6.3057    9.7166   26.1073 H   0  0  0  0  0  0  0  0  0  0  0  0
   10.5806   10.3330   23.3290 H   0  0  0  0  0  0  0  0  0  0  0  0
    9.9130   11.0081   21.8359 H   0  0  0  0  0  0  0  0  0  0  0  0
    7.6357   10.2129   22.3643 H   0  0  0  0  0  0  0  0  0  0  0  0
    7.7366    5.7784   21.8399 H   0  0  0  0  0  0  0  0  0  0  0  0
    9.4755    5.9408   22.2597 H   0  0  0  0  0  0  0  0  0  0  0  0
    8.2954    5.4159   23.5080 H   0  0  0  0  0  0  0  0  0  0  0  0
   11.2518   14.2656   21.9293 H   0  0  0  0  0  0  0  0  0  0  0  0
   10.3283   12.8474   21.3227 H   0  0  0  0  0  0  0  0  0  0  0  0
    7.5689    7.6411   23.7496 H   0  0  0  0  0  0  0  0  0  0  0  0
  1  2  1  0  0  0  0
  1  3  2  0  0  0  0
  2  4  2  0  0  0  0
  3  5  1  0  0  0  0
  4  6  1  0  0  0  0
  5  6  2  0  0  0  0
  5 13  1  0  0  0  0
  6 17  1  0  0  0  0
  7 10  1  0  0  0  0
  7 14  1  0  0  0  0
  7 15  2  0  0  0  0
  8 12  1  0  0  0  0
  8 13  1  0  0  0  0
  8 16  2  0  0  0  0
  9 10  1  0  0  0  0
  9 13  1  0  0  0  0
 10 17  1  0  0  0  0
 11 14  1  0  0  0  0
 12 18  1  0  0  0  0
  1 19  1  0  0  0  0
  2 20  1  0  0  0  0
  3 21  1  0  0  0  0
  4 22  1  0  0  0  0
  9 23  1  0  0  0  0
  9 24  1  0  0  0  0
 10 25  1  0  0  0  0
 11 26  1  0  0  0  0
 11 27  1  0  0  0  0
 11 28  1  0  0  0  0
 12 29  1  0  0  0  0
 12 30  1  0  0  0  0
 14 31  1  0  0  0  0
M  END
> <Catalog ID>
Z199424102

> <MW>
268.061

> <MW (desalted)>
268.696

> <ClogP>
0.735

> <logS>
-3.09

> <HBD>
1

> <HBA>
3

> <TPSA>
58.64

> <RotBonds>
2

> <ROCS_ShapeQuery>
A71EV2A-x0451_0A_A71EV2A-x0310_0A_A71EV2A-x0416_0A_peptide

> <ROCS_TanimotoCombo>
0.489 

> <ROCS_ShapeTanimoto>
0.304 

> <ROCS_ColorTanimoto>
0.186 

> <ROCS_RefTversky>
0.271 

> <ROCS_RefColorTversky>
0.194 

> <ROCS_RefTverskyCombo>
0.465 

> <ROCS_FitTversky>
1.671 

> <ROCS_FitColorTversky>
0.810 

> <ROCS_FitTverskyCombo>
2.481 

> <ROCS_ColorScore>
-5.906

> <ROCS_Overlap>
1877.919

> <ROCS_Rank>
13                  

$$$$
untitled-dbase-879_0
  -OEChem-11112315393D

 35 37  0     0  0  0  0  0  0999 V2000
    9.5998   10.8234   22.8249 C   0  0  0  0  0  0  0  0  0  0  0  0
    8.6125   10.0946   23.4923 C   0  0  0  0  0  0  0  0  0  0  0  0
    9.1080   12.7965   24.1635 C   0  0  0  0  0  0  0  0  0  0  0  0
    9.8462   12.1668   23.1586 C   0  0  0  0  0  0  0  0  0  0  0  0
    7.8983   10.7402   24.4802 C   0  0  0  0  0  0  0  0  0  0  0  0
    8.1393   12.0543   24.8065 C   0  0  0  0  0  0  0  0  0  0  0  0
   11.1904   14.2027   22.6992 C   0  0  0  0  0  0  0  0  0  0  0  0
    4.7515   12.2571   28.2598 C   0  0  0  0  0  0  0  0  0  0  0  0
    6.2203   11.9406   28.5268 C   0  0  0  0  0  0  0  0  0  0  0  0
    4.5167   12.6784   26.8120 C   0  0  0  0  0  0  0  0  0  0  0  0
    6.7576   10.9005   27.5457 C   0  0  0  0  0  0  0  0  0  0  0  0
    5.0540   11.6385   25.8308 C   0  0  0  0  0  0  0  0  0  0  0  0
    6.5346   11.3113   26.0816 C   0  0  0  0  0  0  0  0  0  0  0  0
   12.3059   14.6456   21.7811 C   0  0  0  0  0  0  0  0  0  0  0  0
   10.8373   12.8764   22.4790 N   0  0  0  0  0  0  0  0  0  0  0  0
   10.6991   14.9935   23.5001 O   0  0  0  0  0  0  0  0  0  0  0  0
    6.9045   10.1943   25.2334 O   0  0  0  0  0  0  0  0  0  0  0  0
    7.3266   12.4962   25.8048 O   0  0  0  0  0  0  0  0  0  0  0  0
   11.5674   15.3006   20.3110 Cl  0  0  0  0  0  0  0  0  0  0  0  0
   10.1773   10.3381   22.0414 H   0  0  0  0  0  0  0  0  0  0  0  0
    8.4188    9.0589   23.2375 H   0  0  0  0  0  0  0  0  0  0  0  0
    9.2866   13.8323   24.4324 H   0  0  0  0  0  0  0  0  0  0  0  0
    4.1426   11.3728   28.4843 H   0  0  0  0  0  0  0  0  0  0  0  0
    4.4179   13.0538   28.9340 H   0  0  0  0  0  0  0  0  0  0  0  0
    6.8129   12.8605   28.4524 H   0  0  0  0  0  0  0  0  0  0  0  0
    6.3363   11.5721   29.5524 H   0  0  0  0  0  0  0  0  0  0  0  0
    3.4441   12.8246   26.6411 H   0  0  0  0  0  0  0  0  0  0  0  0
    5.0007   13.6453   26.6285 H   0  0  0  0  0  0  0  0  0  0  0  0
    7.8289   10.7550   27.7331 H   0  0  0  0  0  0  0  0  0  0  0  0
    6.2792    9.9309   27.7349 H   0  0  0  0  0  0  0  0  0  0  0  0
    4.4557   10.7208   25.8991 H   0  0  0  0  0  0  0  0  0  0  0  0
    4.9232   12.0137   24.8080 H   0  0  0  0  0  0  0  0  0  0  0  0
   12.9767   13.8282   21.5049 H   0  0  0  0  0  0  0  0  0  0  0  0
   12.8888   15.4318   22.2693 H   0  0  0  0  0  0  0  0  0  0  0  0
   11.3491   12.3764   21.7548 H   0  0  0  0  0  0  0  0  0  0  0  0
  1  2  2  0  0  0  0
  1  4  1  0  0  0  0
  2  5  1  0  0  0  0
  3  4  2  0  0  0  0
  3  6  1  0  0  0  0
  4 15  1  0  0  0  0
  5  6  2  0  0  0  0
  5 17  1  0  0  0  0
  6 18  1  0  0  0  0
  7 14  1  0  0  0  0
  7 15  1  0  0  0  0
  7 16  2  0  0  0  0
  8  9  1  0  0  0  0
  8 10  1  0  0  0  0
  9 11  1  0  0  0  0
 10 12  1  0  0  0  0
 11 13  1  0  0  0  0
 12 13  1  0  0  0  0
 13 17  1  0  0  0  0
 13 18  1  0  0  0  0
 14 19  1  0  0  0  0
  1 20  1  0  0  0  0
  2 21  1  0  0  0  0
  3 22  1  0  0  0  0
  8 23  1  0  0  0  0
  8 24  1  0  0  0  0
  9 25  1  0  0  0  0
  9 26  1  0  0  0  0
 10 27  1  0  0  0  0
 10 28  1  0  0  0  0
 11 29  1  0  0  0  0
 11 30  1  0  0  0  0
 12 31  1  0  0  0  0
 12 32  1  0  0  0  0
 14 33  1  0  0  0  0
 14 34  1  0  0  0  0
 15 35  1  0  0  0  0
M  END
> <Catalog ID>
Z57983169

> <MW>
281.082

> <MW (desalted)>
281.735

> <ClogP>
3.422

> <logS>
-4.43

> <HBD>
1

> <HBA>
3

> <TPSA>
47.56

> <RotBonds>
2

> <ROCS_ShapeQuery>
A71EV2A-x0451_0A_A71EV2A-x0310_0A_A71EV2A-x0416_0A_peptide

> <ROCS_TanimotoCombo>
0.489 

> <ROCS_ShapeTanimoto>
0.323 

> <ROCS_ColorTanimoto>
0.165 

> <ROCS_RefTversky>
0.286 

> <ROCS_RefColorTversky>
0.180 

> <ROCS_RefTverskyCombo>
0.466 

> <ROCS_FitTversky>
1.684 

> <ROCS_FitColorTversky>
0.664 

> <ROCS_FitTverskyCombo>
2.348 

> <ROCS_ColorScore>
-5.490

> <ROCS_Overlap>
1983.858

> <ROCS_Rank>
14                  

$$$$
untitled-dbase-238_215
  -OEChem-11112315393D

 29 30  0     1  0  0  0  0  0999 V2000
    6.9813    7.5448   24.7007 C   0  0  0  0  0  0  0  0  0  0  0  0
    8.2141    7.2446   24.1202 C   0  0  0  0  0  0  0  0  0  0  0  0
    6.6346    8.8707   24.9616 C   0  0  0  0  0  0  0  0  0  0  0  0
    9.0999    8.2700   23.7885 C   0  0  0  0  0  0  0  0  0  0  0  0
    7.5253    9.8960   24.6430 C   0  0  0  0  0  0  0  0  0  0  0  0
    8.7484    9.5970   24.0364 C   0  0  0  0  0  0  0  0  0  0  0  0
   10.2085   12.8045   23.5755 C   0  0  0  0  0  0  0  0  0  0  0  0
   11.5122   15.2451   22.5054 C   0  0  0  0  0  0  0  0  0  0  0  0
    8.2379   12.0890   24.9022 C   0  0  0  0  0  0  0  0  0  0  0  0
    9.0565   11.8584   23.6462 C   0  0  2  0  0  0  0  0  0  0  0  0
   12.7336   16.0790   22.2168 C   0  0  0  0  0  0  0  0  0  0  0  0
   10.6067   13.0642   22.2801 N   0  0  0  0  0  0  0  0  0  0  0  0
   11.6395   13.9423   22.0655 N   0  0  0  0  0  0  0  0  0  0  0  0
   10.7004   13.2953   24.5894 O   0  0  0  0  0  0  0  0  0  0  0  0
   10.5330   15.7076   23.0883 O   0  0  0  0  0  0  0  0  0  0  0  0
    7.1370   11.1763   24.9426 O   0  0  0  0  0  0  0  0  0  0  0  0
    9.6514   10.5615   23.6698 O   0  0  0  0  0  0  0  0  0  0  0  0
   14.1106   15.3311   23.0408 Cl  0  0  0  0  0  0  0  0  0  0  0  0
    6.2922    6.7442   24.9540 H   0  0  0  0  0  0  0  0  0  0  0  0
    8.4827    6.2109   23.9223 H   0  0  0  0  0  0  0  0  0  0  0  0
    5.6762    9.0947   25.4220 H   0  0  0  0  0  0  0  0  0  0  0  0
   10.0542    8.0279   23.3287 H   0  0  0  0  0  0  0  0  0  0  0  0
    8.8343   11.9567   25.8146 H   0  0  0  0  0  0  0  0  0  0  0  0
    7.8307   13.1057   24.9194 H   0  0  0  0  0  0  0  0  0  0  0  0
    8.4555   11.9601   22.7345 H   0  0  0  0  0  0  0  0  0  0  0  0
   12.9555   16.1387   21.1483 H   0  0  0  0  0  0  0  0  0  0  0  0
   12.5860   17.0889   22.6088 H   0  0  0  0  0  0  0  0  0  0  0  0
   10.1904   12.6375   21.4591 H   0  0  0  0  0  0  0  0  0  0  0  0
   12.4529   13.5810   21.5784 H   0  0  0  0  0  0  0  0  0  0  0  0
  1  2  1  0  0  0  0
  1  3  2  0  0  0  0
  2  4  2  0  0  0  0
  3  5  1  0  0  0  0
  4  6  1  0  0  0  0
  5  6  2  0  0  0  0
  5 16  1  0  0  0  0
  6 17  1  0  0  0  0
  7 10  1  0  0  0  0
  7 12  1  0  0  0  0
  7 14  2  0  0  0  0
  8 11  1  0  0  0  0
  8 13  1  0  0  0  0
  8 15  2  0  0  0  0
  9 10  1  0  0  0  0
  9 16  1  0  0  0  0
 10 17  1  0  0  0  0
 11 18  1  0  0  0  0
 12 13  1  0  0  0  0
  1 19  1  0  0  0  0
  2 20  1  0  0  0  0
  3 21  1  0  0  0  0
  4 22  1  0  0  0  0
  9 23  1  0  0  0  0
  9 24  1  0  0  0  0
 10 25  1  0  0  0  0
 11 26  1  0  0  0  0
 11 27  1  0  0  0  0
 12 28  1  0  0  0  0
 13 29  1  0  0  0  0
M  END
> <Catalog ID>
Z56347434

> <MW>
270.041

> <MW (desalted)>
270.669

> <ClogP>
1.08

> <logS>
-3.24

> <HBD>
2

> <HBA>
4

> <TPSA>
76.66

> <RotBonds>
3

> <ROCS_ShapeQuery>
A71EV2A-x0451_0A_A71EV2A-x0310_0A_A71EV2A-x0416_0A_peptide

> <ROCS_TanimotoCombo>
0.488 

> <ROCS_ShapeTanimoto>
0.307 

> <ROCS_ColorTanimoto>
0.181 

> <ROCS_RefTversky>
0.273 

> <ROCS_RefColorTversky>
0.201 

> <ROCS_RefTverskyCombo>
0.474 

> <ROCS_FitTversky>
1.680 

> <ROCS_FitColorTversky>
0.646 

> <ROCS_FitTverskyCombo>
2.326 

> <ROCS_ColorScore>
-6.126

> <ROCS_Overlap>
1893.867

> <ROCS_Rank>
15                  

$$$$
untitled-dbase-928_209
  -OEChem-11112315393D

 33 34  0     0  0  0  0  0  0999 V2000
    8.6749   11.7489   24.5849 C   0  0  0  0  0  0  0  0  0  0  0  0
    7.7662   10.6642   24.5878 C   0  0  0  0  0  0  0  0  0  0  0  0
    9.7142   11.3252   23.7943 C   0  0  0  0  0  0  0  0  0  0  0  0
   10.4594   14.6343   20.2899 C   0  0  0  0  0  0  0  0  0  0  0  0
   10.4258   15.1838   21.5077 C   0  0  0  0  0  0  0  0  0  0  0  0
   10.5993   14.3393   22.7196 C   0  0  0  0  0  0  0  0  0  0  0  0
    8.4544   13.0105   25.3340 C   0  0  0  0  0  0  0  0  0  0  0  0
    6.4640   10.6814   25.3027 C   0  0  0  0  0  0  0  0  0  0  0  0
    6.9808   13.1437   25.7631 C   0  0  0  0  0  0  0  0  0  0  0  0
    6.4192   11.8269   26.3321 C   0  0  0  0  0  0  0  0  0  0  0  0
   10.1543    9.1978   22.5307 C   0  0  0  0  0  0  0  0  0  0  0  0
   10.9731   11.9857   23.4024 C   0  0  0  0  0  0  0  0  0  0  0  0
    8.1894    9.6345   23.8511 N   0  0  0  0  0  0  0  0  0  0  0  0
    9.3766   10.0662   23.3842 N   0  0  0  0  0  0  0  0  0  0  0  0
   10.7846   13.0077   22.3950 N   0  0  0  0  0  0  0  0  0  0  0  0
   10.5727   14.8015   23.8557 O   0  0  0  0  0  0  0  0  0  0  0  0
   10.3309   15.2568   19.4105 H   0  0  0  0  0  0  0  0  0  0  0  0
   10.6131   13.5725   20.1318 H   0  0  0  0  0  0  0  0  0  0  0  0
   10.2701   16.2510   21.6220 H   0  0  0  0  0  0  0  0  0  0  0  0
    9.0917   13.0084   26.2264 H   0  0  0  0  0  0  0  0  0  0  0  0
    8.7397   13.8777   24.7283 H   0  0  0  0  0  0  0  0  0  0  0  0
    5.6599   10.8219   24.5702 H   0  0  0  0  0  0  0  0  0  0  0  0
    6.2857    9.7262   25.8089 H   0  0  0  0  0  0  0  0  0  0  0  0
    6.8900   13.9410   26.5089 H   0  0  0  0  0  0  0  0  0  0  0  0
    6.3745   13.4432   24.8985 H   0  0  0  0  0  0  0  0  0  0  0  0
    5.3863   11.9752   26.6668 H   0  0  0  0  0  0  0  0  0  0  0  0
    7.0046   11.5452   27.2170 H   0  0  0  0  0  0  0  0  0  0  0  0
   10.8080    8.5961   23.1676 H   0  0  0  0  0  0  0  0  0  0  0  0
    9.4819    8.5542   21.9566 H   0  0  0  0  0  0  0  0  0  0  0  0
   10.7454    9.8052   21.8396 H   0  0  0  0  0  0  0  0  0  0  0  0
   11.4678   12.4743   24.2615 H   0  0  0  0  0  0  0  0  0  0  0  0
   11.7114   11.2727   22.9931 H   0  0  0  0  0  0  0  0  0  0  0  0
   10.7609   12.7090   21.4255 H   0  0  0  0  0  0  0  0  0  0  0  0
  1  2  1  0  0  0  0
  1  3  2  0  0  0  0
  1  7  1  0  0  0  0
  2  8  1  0  0  0  0
  2 13  2  0  0  0  0
  3 12  1  0  0  0  0
  3 14  1  0  0  0  0
  4  5  2  0  0  0  0
  5  6  1  0  0  0  0
  6 15  1  0  0  0  0
  6 16  2  0  0  0  0
  7  9  1  0  0  0  0
  8 10  1  0  0  0  0
  9 10  1  0  0  0  0
 11 14  1  0  0  0  0
 12 15  1  0  0  0  0
 13 14  1  0  0  0  0
  4 17  1  0  0  0  0
  4 18  1  0  0  0  0
  5 19  1  0  0  0  0
  7 20  1  0  0  0  0
  7 21  1  0  0  0  0
  8 22  1  0  0  0  0
  8 23  1  0  0  0  0
  9 24  1  0  0  0  0
  9 25  1  0  0  0  0
 10 26  1  0  0  0  0
 10 27  1  0  0  0  0
 11 28  1  0  0  0  0
 11 29  1  0  0  0  0
 11 30  1  0  0  0  0
 12 31  1  0  0  0  0
 12 32  1  0  0  0  0
 15 33  1  0  0  0  0
M  END
> <Catalog ID>
Z2737383547

> <MW>
219.283

> <MW (desalted)>
219.283

> <ClogP>
0.412

> <logS>
-1.64

> <HBD>
1

> <HBA>
2

> <TPSA>
46.92

> <RotBonds>
3

> <ROCS_ShapeQuery>
A71EV2A-x0451_0A_A71EV2A-x0310_0A_A71EV2A-x0416_0A_peptide

> <ROCS_TanimotoCombo>
0.486 

> <ROCS_ShapeTanimoto>
0.314 

> <ROCS_ColorTanimoto>
0.172 

> <ROCS_RefTversky>
0.275 

> <ROCS_RefColorTversky>
0.182 

> <ROCS_RefTverskyCombo>
0.457 

> <ROCS_FitTversky>
1.844 

> <ROCS_FitColorTversky>
0.759 

> <ROCS_FitTverskyCombo>
2.603 

> <ROCS_ColorScore>
-5.546

> <ROCS_Overlap>
1903.724

> <ROCS_Rank>
16                  

$$$$
untitled-dbase-437_90
  -OEChem-11112315393D

 41 43  0     1  0  0  0  0  0999 V2000
    5.8114   13.0718   27.8969 C   0  0  0  0  0  0  0  0  0  0  0  0
    5.3149   12.7163   29.1510 C   0  0  0  0  0  0  0  0  0  0  0  0
    3.9781   10.9820   28.1300 C   0  0  0  0  0  0  0  0  0  0  0  0
    5.3912   12.3825   26.7594 C   0  0  0  0  0  0  0  0  0  0  0  0
    4.3982   11.6714   29.2675 C   0  0  0  0  0  0  0  0  0  0  0  0
    4.4746   11.3376   26.8759 C   0  0  0  0  0  0  0  0  0  0  0  0
   11.6680   12.8266   21.3420 C   0  0  0  0  0  0  0  0  0  0  0  0
   10.5686   13.3539   21.8849 C   0  0  0  0  0  0  0  0  0  0  0  0
   10.2970   13.1182   23.3155 C   0  0  0  0  0  0  0  0  0  0  0  0
    8.7273    9.8524   23.2885 C   0  0  0  0  0  0  0  0  0  0  0  0
    9.4191    9.9169   24.6620 C   0  0  0  0  0  0  0  0  0  0  0  0
    7.1623   11.8749   23.3819 C   0  0  0  0  0  0  0  0  0  0  0  0
    8.3156   11.9797   25.7002 C   0  0  0  0  0  0  0  0  0  0  0  0
    8.5123   11.3161   22.8838 C   0  0  1  0  0  0  0  0  0  0  0  0
    9.5494   11.4118   24.9650 C   0  0  2  0  0  0  0  0  0  0  0  0
    6.9865   11.7745   24.9231 C   0  0  0  0  0  0  0  0  0  0  0  0
    5.9280   12.7683   25.4102 C   0  0  0  0  0  0  0  0  0  0  0  0
    9.5534   12.0035   23.6380 N   0  0  0  0  0  0  0  0  0  0  0  0
   10.7426   13.9201   24.1365 O   0  0  0  0  0  0  0  0  0  0  0  0
    6.4949   10.4674   25.2472 O   0  0  0  0  0  0  0  0  0  0  0  0
    3.9220   11.3295   30.4718 F   0  0  0  0  0  0  0  0  0  0  0  0
    4.0647   10.6696   25.7885 F   0  0  0  0  0  0  0  0  0  0  0  0
    6.5256   13.8870   27.8160 H   0  0  0  0  0  0  0  0  0  0  0  0
    5.6421   13.2523   30.0370 H   0  0  0  0  0  0  0  0  0  0  0  0
    3.2644   10.1687   28.2205 H   0  0  0  0  0  0  0  0  0  0  0  0
   11.9214   12.9649   20.2963 H   0  0  0  0  0  0  0  0  0  0  0  0
   12.3454   12.2359   21.9497 H   0  0  0  0  0  0  0  0  0  0  0  0
    9.8695   13.9488   21.3117 H   0  0  0  0  0  0  0  0  0  0  0  0
    9.3985    9.3601   22.5743 H   0  0  0  0  0  0  0  0  0  0  0  0
    7.7998    9.2727   23.3165 H   0  0  0  0  0  0  0  0  0  0  0  0
    8.8668    9.3685   25.4309 H   0  0  0  0  0  0  0  0  0  0  0  0
   10.4132    9.4604   24.5838 H   0  0  0  0  0  0  0  0  0  0  0  0
    7.0988   12.9266   23.0731 H   0  0  0  0  0  0  0  0  0  0  0  0
    6.3474   11.3408   22.8771 H   0  0  0  0  0  0  0  0  0  0  0  0
    8.2493   11.5168   26.6926 H   0  0  0  0  0  0  0  0  0  0  0  0
    8.4843   13.0534   25.8577 H   0  0  0  0  0  0  0  0  0  0  0  0
    8.6098   11.4462   21.8038 H   0  0  0  0  0  0  0  0  0  0  0  0
   10.4635   11.6454   25.5199 H   0  0  0  0  0  0  0  0  0  0  0  0
    5.1151   12.8147   24.6807 H   0  0  0  0  0  0  0  0  0  0  0  0
    6.3659   13.7693   25.4513 H   0  0  0  0  0  0  0  0  0  0  0  0
    5.6482   10.3783   24.7878 H   0  0  0  0  0  0  0  0  0  0  0  0
  1  2  2  0  0  0  0
  1  4  1  0  0  0  0
  2  5  1  0  0  0  0
  3  5  2  0  0  0  0
  3  6  1  0  0  0  0
  4  6  2  0  0  0  0
  4 17  1  0  0  0  0
  5 21  1  0  0  0  0
  6 22  1  0  0  0  0
  7  8  2  0  0  0  0
  8  9  1  0  0  0  0
  9 18  1  0  0  0  0
  9 19  2  0  0  0  0
 10 11  1  0  0  0  0
 10 14  1  0  0  0  0
 11 15  1  0  0  0  0
 12 14  1  0  0  0  0
 12 16  1  0  0  0  0
 13 15  1  0  0  0  0
 13 16  1  0  0  0  0
 14 18  1  0  0  0  0
 15 18  1  0  0  0  0
 16 17  1  0  0  0  0
 16 20  1  0  0  0  0
  1 23  1  0  0  0  0
  2 24  1  0  0  0  0
  3 25  1  0  0  0  0
  7 26  1  0  0  0  0
  7 27  1  0  0  0  0
  8 28  1  0  0  0  0
 10 29  1  0  0  0  0
 10 30  1  0  0  0  0
 11 31  1  0  0  0  0
 11 32  1  0  0  0  0
 12 33  1  0  0  0  0
 12 34  1  0  0  0  0
 13 35  1  0  0  0  0
 13 36  1  0  0  0  0
 14 37  1  0  0  0  0
 15 38  1  0  0  0  0
 17 39  1  0  0  0  0
 17 40  1  0  0  0  0
 20 41  1  0  0  0  0
M  END
> <Catalog ID>
Z2285377802

> <MW>
307.335

> <MW (desalted)>
307.335

> <ClogP>
1.626

> <logS>
-3.885

> <HBD>
1

> <HBA>
2

> <TPSA>
40.54

> <RotBonds>
3

> <ROCS_ShapeQuery>
A71EV2A-x0451_0A_A71EV2A-x0310_0A_A71EV2A-x0416_0A_peptide

> <ROCS_TanimotoCombo>
0.486 

> <ROCS_ShapeTanimoto>
0.284 

> <ROCS_ColorTanimoto>
0.202 

> <ROCS_RefTversky>
0.263 

> <ROCS_RefColorTversky>
0.233 

> <ROCS_RefTverskyCombo>
0.496 

> <ROCS_FitTversky>
1.394 

> <ROCS_FitColorTversky>
0.604 

> <ROCS_FitTverskyCombo>
1.997 

> <ROCS_ColorScore>
-7.158

> <ROCS_Overlap>
1824.302

> <ROCS_Rank>
17                  

$$$$
untitled-dbase-910_84
  -OEChem-11112315393D

 32 33  0     0  0  0  0  0  0999 V2000
    6.4780   12.8949   25.0643 C   0  0  0  0  0  0  0  0  0  0  0  0
    8.3981   11.8697   24.0279 C   0  0  0  0  0  0  0  0  0  0  0  0
    7.6106   13.0146   24.2652 C   0  0  0  0  0  0  0  0  0  0  0  0
    9.5952   11.6603   23.2708 C   0  0  0  0  0  0  0  0  0  0  0  0
   10.0280   10.3532   23.3160 C   0  0  0  0  0  0  0  0  0  0  0  0
    6.1754   11.6519   25.5914 C   0  0  0  0  0  0  0  0  0  0  0  0
    7.9758   10.6846   24.6212 C   0  0  0  0  0  0  0  0  0  0  0  0
   11.1680    9.7523   22.6990 C   0  0  0  0  0  0  0  0  0  0  0  0
   10.8232   13.8099   23.0859 C   0  0  0  0  0  0  0  0  0  0  0  0
    7.9301   14.3624   23.6991 C   0  0  0  0  0  0  0  0  0  0  0  0
    4.9592   11.5188   26.4504 C   0  0  0  0  0  0  0  0  0  0  0  0
   11.0883    8.2926   22.3086 C   0  0  0  0  0  0  0  0  0  0  0  0
   11.4850   14.6535   22.0212 C   0  0  0  0  0  0  0  0  0  0  0  0
    6.8873   10.5203   25.4019 N   0  0  0  0  0  0  0  0  0  0  0  0
   10.2678   12.6395   22.5623 N   0  0  0  0  0  0  0  0  0  0  0  0
   12.2495   10.3213   22.4480 O   0  0  0  0  0  0  0  0  0  0  0  0
   10.8022   14.1928   24.2525 O   0  0  0  0  0  0  0  0  0  0  0  0
    9.0020    9.3696   24.2663 S   0  0  0  0  0  0  0  0  0  0  0  0
   10.2484   15.0885   20.8307 Cl  0  0  0  0  0  0  0  0  0  0  0  0
    5.8484   13.7559   25.2682 H   0  0  0  0  0  0  0  0  0  0  0  0
    8.5749   14.9177   24.3886 H   0  0  0  0  0  0  0  0  0  0  0  0
    8.4416   14.2727   22.7340 H   0  0  0  0  0  0  0  0  0  0  0  0
    7.0168   14.9432   23.5263 H   0  0  0  0  0  0  0  0  0  0  0  0
    4.0872   11.2695   25.8357 H   0  0  0  0  0  0  0  0  0  0  0  0
    5.0925   10.7343   27.2048 H   0  0  0  0  0  0  0  0  0  0  0  0
    4.7532   12.4508   26.9902 H   0  0  0  0  0  0  0  0  0  0  0  0
   10.7114    8.1333   21.2859 H   0  0  0  0  0  0  0  0  0  0  0  0
   10.4564    7.7012   22.9893 H   0  0  0  0  0  0  0  0  0  0  0  0
   12.0620    7.7711   22.3135 H   0  0  0  0  0  0  0  0  0  0  0  0
   12.2975   14.1303   21.5108 H   0  0  0  0  0  0  0  0  0  0  0  0
   11.8819   15.5663   22.4743 H   0  0  0  0  0  0  0  0  0  0  0  0
   10.3687   12.4921   21.5544 H   0  0  0  0  0  0  0  0  0  0  0  0
  1  3  2  0  0  0  0
  1  6  1  0  0  0  0
  2  3  1  0  0  0  0
  2  4  1  0  0  0  0
  2  7  2  0  0  0  0
  3 10  1  0  0  0  0
  4  5  2  0  0  0  0
  4 15  1  0  0  0  0
  5  8  1  0  0  0  0
  5 18  1  0  0  0  0
  6 11  1  0  0  0  0
  6 14  2  0  0  0  0
  7 14  1  0  0  0  0
  7 18  1  0  0  0  0
  8 12  1  0  0  0  0
  8 16  2  0  0  0  0
  9 13  1  0  0  0  0
  9 15  1  0  0  0  0
  9 17  2  0  0  0  0
 13 19  1  0  0  0  0
  1 20  1  0  0  0  0
 10 21  1  0  0  0  0
 10 22  1  0  0  0  0
 10 23  1  0  0  0  0
 11 24  1  0  0  0  0
 11 25  1  0  0  0  0
 11 26  1  0  0  0  0
 12 27  1  0  0  0  0
 12 28  1  0  0  0  0
 12 29  1  0  0  0  0
 13 30  1  0  0  0  0
 13 31  1  0  0  0  0
 15 32  1  0  0  0  0
M  END
> <Catalog ID>
Z89267041

> <MW>
296.039

> <MW (desalted)>
296.773

> <ClogP>
3.337

> <logS>
-4.23

> <HBD>
1

> <HBA>
3

> <TPSA>
59.06

> <RotBonds>
3

> <ROCS_ShapeQuery>
A71EV2A-x0451_0A_A71EV2A-x0310_0A_A71EV2A-x0416_0A_peptide

> <ROCS_TanimotoCombo>
0.486 

> <ROCS_ShapeTanimoto>
0.316 

> <ROCS_ColorTanimoto>
0.170 

> <ROCS_RefTversky>
0.280 

> <ROCS_RefColorTversky>
0.181 

> <ROCS_RefTverskyCombo>
0.460 

> <ROCS_FitTversky>
1.680 

> <ROCS_FitColorTversky>
0.753 

> <ROCS_FitTverskyCombo>
2.432 

> <ROCS_ColorScore>
-5.495

> <ROCS_Overlap>
1941.362

> <ROCS_Rank>
18                  

$$$$
untitled-dbase-115_63
  -OEChem-11112315393D

 29 29  0     0  0  0  0  0  0999 V2000
    8.3787    9.3626   24.1183 C   0  0  0  0  0  0  0  0  0  0  0  0
    9.2517   10.1520   23.3697 C   0  0  0  0  0  0  0  0  0  0  0  0
    8.3635   12.1354   24.4254 C   0  0  0  0  0  0  0  0  0  0  0  0
    7.4980    9.9597   25.0204 C   0  0  0  0  0  0  0  0  0  0  0  0
    7.4905   11.3460   25.1739 C   0  0  0  0  0  0  0  0  0  0  0  0
    9.2442   11.5383   23.5233 C   0  0  0  0  0  0  0  0  0  0  0  0
   12.2441   15.2328   22.1096 C   0  0  0  0  0  0  0  0  0  0  0  0
   10.6949   13.5679   23.1242 C   0  0  0  0  0  0  0  0  0  0  0  0
    6.5721    9.0939   25.8101 C   0  0  0  0  0  0  0  0  0  0  0  0
    6.5579   12.0070   26.1351 C   0  0  0  0  0  0  0  0  0  0  0  0
   13.0614   15.4461   20.8607 C   0  0  0  0  0  0  0  0  0  0  0  0
   10.1307   12.3390   22.7659 N   0  0  0  0  0  0  0  0  0  0  0  0
   11.5257   14.0383   22.0873 N   0  0  0  0  0  0  0  0  0  0  0  0
   12.2537   16.0417   23.0354 O   0  0  0  0  0  0  0  0  0  0  0  0
   10.5171   14.1779   24.1754 O   0  0  0  0  0  0  0  0  0  0  0  0
   12.2430   14.6163   19.5280 Cl  0  0  0  0  0  0  0  0  0  0  0  0
    8.3914    8.2833   23.9908 H   0  0  0  0  0  0  0  0  0  0  0  0
    9.9326    9.6755   22.6692 H   0  0  0  0  0  0  0  0  0  0  0  0
    8.3569   13.2167   24.5458 H   0  0  0  0  0  0  0  0  0  0  0  0
    7.0436    8.7949   26.7534 H   0  0  0  0  0  0  0  0  0  0  0  0
    5.6363    9.6189   26.0380 H   0  0  0  0  0  0  0  0  0  0  0  0
    6.3026    8.1889   25.2515 H   0  0  0  0  0  0  0  0  0  0  0  0
    5.6129   12.2548   25.6380 H   0  0  0  0  0  0  0  0  0  0  0  0
    6.3425   11.3549   26.9905 H   0  0  0  0  0  0  0  0  0  0  0  0
    6.9932   12.9296   26.5387 H   0  0  0  0  0  0  0  0  0  0  0  0
   14.0548   15.0101   20.9982 H   0  0  0  0  0  0  0  0  0  0  0  0
   13.1693   16.5025   20.6031 H   0  0  0  0  0  0  0  0  0  0  0  0
   10.3888   11.9780   21.8510 H   0  0  0  0  0  0  0  0  0  0  0  0
   11.6076   13.4599   21.2559 H   0  0  0  0  0  0  0  0  0  0  0  0
  1  2  2  0  0  0  0
  1  4  1  0  0  0  0
  2  6  1  0  0  0  0
  3  5  1  0  0  0  0
  3  6  2  0  0  0  0
  4  5  2  0  0  0  0
  4  9  1  0  0  0  0
  5 10  1  0  0  0  0
  6 12  1  0  0  0  0
  7 11  1  0  0  0  0
  7 13  1  0  0  0  0
  7 14  2  0  0  0  0
  8 12  1  0  0  0  0
  8 13  1  0  0  0  0
  8 15  2  0  0  0  0
 11 16  1  0  0  0  0
  1 17  1  0  0  0  0
  2 18  1  0  0  0  0
  3 19  1  0  0  0  0
  9 20  1  0  0  0  0
  9 21  1  0  0  0  0
  9 22  1  0  0  0  0
 10 23  1  0  0  0  0
 10 24  1  0  0  0  0
 10 25  1  0  0  0  0
 11 26  1  0  0  0  0
 11 27  1  0  0  0  0
 12 28  1  0  0  0  0
 13 29  1  0  0  0  0
M  END
> <Catalog ID>
Z111869264

> <MW>
240.067

> <MW (desalted)>
240.686

> <ClogP>
3.162

> <logS>
-3.54

> <HBD>
2

> <HBA>
2

> <TPSA>
58.2

> <RotBonds>
2

> <ROCS_ShapeQuery>
A71EV2A-x0451_0A_A71EV2A-x0310_0A_A71EV2A-x0416_0A_peptide

> <ROCS_TanimotoCombo>
0.485 

> <ROCS_ShapeTanimoto>
0.300 

> <ROCS_ColorTanimoto>
0.185 

> <ROCS_RefTversky>
0.265 

> <ROCS_RefColorTversky>
0.188 

> <ROCS_RefTverskyCombo>
0.453 

> <ROCS_FitTversky>
1.807 

> <ROCS_FitColorTversky>
0.902 

> <ROCS_FitTverskyCombo>
2.709 

> <ROCS_ColorScore>
-5.720

> <ROCS_Overlap>
1835.741

> <ROCS_Rank>
19                  

$$$$
untitled-dbase-66_28
  -OEChem-11112315393D

 29 29  0     0  0  0  0  0  0999 V2000
    7.4885   11.3734   25.1793 C   0  0  0  0  0  0  0  0  0  0  0  0
    8.3693   12.1462   24.4227 C   0  0  0  0  0  0  0  0  0  0  0  0
    8.3569    9.3704   24.1444 C   0  0  0  0  0  0  0  0  0  0  0  0
    7.4823    9.9855   25.0402 C   0  0  0  0  0  0  0  0  0  0  0  0
    9.2377   10.1433   23.3878 C   0  0  0  0  0  0  0  0  0  0  0  0
    9.2439   11.5312   23.5269 C   0  0  0  0  0  0  0  0  0  0  0  0
   12.2402   15.2275   22.1103 C   0  0  0  0  0  0  0  0  0  0  0  0
   10.6928   13.5617   23.1263 C   0  0  0  0  0  0  0  0  0  0  0  0
    6.5387    9.1594   25.8476 C   0  0  0  0  0  0  0  0  0  0  0  0
   10.1615    9.4578   22.4337 C   0  0  0  0  0  0  0  0  0  0  0  0
   13.0567   15.4409   20.8609 C   0  0  0  0  0  0  0  0  0  0  0  0
   10.1294   12.3323   22.7688 N   0  0  0  0  0  0  0  0  0  0  0  0
   11.5227   14.0324   22.0888 N   0  0  0  0  0  0  0  0  0  0  0  0
   12.2496   16.0368   23.0357 O   0  0  0  0  0  0  0  0  0  0  0  0
   10.5150   14.1721   24.1774 O   0  0  0  0  0  0  0  0  0  0  0  0
   12.2383   14.6100   19.5289 Cl  0  0  0  0  0  0  0  0  0  0  0  0
    6.8107   11.8612   25.8748 H   0  0  0  0  0  0  0  0  0  0  0  0
    8.3658   13.2271   24.5406 H   0  0  0  0  0  0  0  0  0  0  0  0
    8.3495    8.2883   24.0358 H   0  0  0  0  0  0  0  0  0  0  0  0
    5.5921    9.0256   25.3099 H   0  0  0  0  0  0  0  0  0  0  0  0
    6.9600    8.1688   26.0623 H   0  0  0  0  0  0  0  0  0  0  0  0
    6.3254    9.6304   26.8160 H   0  0  0  0  0  0  0  0  0  0  0  0
    9.6884    9.3637   21.4498 H   0  0  0  0  0  0  0  0  0  0  0  0
   11.0983   10.0164   22.3201 H   0  0  0  0  0  0  0  0  0  0  0  0
   10.4277    8.4560   22.7920 H   0  0  0  0  0  0  0  0  0  0  0  0
   14.0505   15.0058   20.9981 H   0  0  0  0  0  0  0  0  0  0  0  0
   13.1636   16.4973   20.6028 H   0  0  0  0  0  0  0  0  0  0  0  0
   10.3874   11.9711   21.8539 H   0  0  0  0  0  0  0  0  0  0  0  0
   11.6047   13.4537   21.2576 H   0  0  0  0  0  0  0  0  0  0  0  0
  1  2  2  0  0  0  0
  1  4  1  0  0  0  0
  2  6  1  0  0  0  0
  3  4  2  0  0  0  0
  3  5  1  0  0  0  0
  4  9  1  0  0  0  0
  5  6  2  0  0  0  0
  5 10  1  0  0  0  0
  6 12  1  0  0  0  0
  7 11  1  0  0  0  0
  7 13  1  0  0  0  0
  7 14  2  0  0  0  0
  8 12  1  0  0  0  0
  8 13  1  0  0  0  0
  8 15  2  0  0  0  0
 11 16  1  0  0  0  0
  1 17  1  0  0  0  0
  2 18  1  0  0  0  0
  3 19  1  0  0  0  0
  9 20  1  0  0  0  0
  9 21  1  0  0  0  0
  9 22  1  0  0  0  0
 10 23  1  0  0  0  0
 10 24  1  0  0  0  0
 10 25  1  0  0  0  0
 11 26  1  0  0  0  0
 11 27  1  0  0  0  0
 12 28  1  0  0  0  0
 13 29  1  0  0  0  0
M  END
> <Catalog ID>
Z57008883

> <MW>
240.067

> <MW (desalted)>
240.686

> <ClogP>
2.652

> <logS>
-3.31

> <HBD>
2

> <HBA>
2

> <TPSA>
58.2

> <RotBonds>
2

> <ROCS_ShapeQuery>
A71EV2A-x0451_0A_A71EV2A-x0310_0A_A71EV2A-x0416_0A_peptide

> <ROCS_TanimotoCombo>
0.485 

> <ROCS_ShapeTanimoto>
0.300 

> <ROCS_ColorTanimoto>
0.185 

> <ROCS_RefTversky>
0.265 

> <ROCS_RefColorTversky>
0.189 

> <ROCS_RefTverskyCombo>
0.453 

> <ROCS_FitTversky>
1.805 

> <ROCS_FitColorTversky>
0.903 

> <ROCS_FitTverskyCombo>
2.708 

> <ROCS_ColorScore>
-5.730

> <ROCS_Overlap>
1833.907

> <ROCS_Rank>
20                  

$$$$
untitled-dbase-861_64
  -OEChem-11112315393D

 25 25  0     0  0  0  0  0  0999 V2000
    5.8253   12.4639   26.8735 C   0  0  0  0  0  0  0  0  0  0  0  0
    6.5851   11.9512   26.0978 C   0  0  0  0  0  0  0  0  0  0  0  0
    8.3800    9.3592   24.1190 C   0  0  0  0  0  0  0  0  0  0  0  0
    7.4982    9.9551   25.0206 C   0  0  0  0  0  0  0  0  0  0  0  0
    9.2529   10.1495   23.3713 C   0  0  0  0  0  0  0  0  0  0  0  0
    8.3620   12.1318   24.4266 C   0  0  0  0  0  0  0  0  0  0  0  0
    7.4891   11.3414   25.1744 C   0  0  0  0  0  0  0  0  0  0  0  0
    9.2439   11.5359   23.5251 C   0  0  0  0  0  0  0  0  0  0  0  0
   12.2419   15.2317   22.1111 C   0  0  0  0  0  0  0  0  0  0  0  0
   10.6934   13.5661   23.1258 C   0  0  0  0  0  0  0  0  0  0  0  0
   13.0594   15.4452   20.8623 C   0  0  0  0  0  0  0  0  0  0  0  0
   10.1300   12.3369   22.7676 N   0  0  0  0  0  0  0  0  0  0  0  0
   11.5242   14.0368   22.0889 N   0  0  0  0  0  0  0  0  0  0  0  0
   12.2508   16.0409   23.0366 O   0  0  0  0  0  0  0  0  0  0  0  0
   10.5150   14.1764   24.1768 O   0  0  0  0  0  0  0  0  0  0  0  0
   12.2417   14.6146   19.5296 Cl  0  0  0  0  0  0  0  0  0  0  0  0
    5.1518   12.9191   27.5614 H   0  0  0  0  0  0  0  0  0  0  0  0
    8.3877    8.2795   23.9999 H   0  0  0  0  0  0  0  0  0  0  0  0
    6.8235    9.3254   25.5956 H   0  0  0  0  0  0  0  0  0  0  0  0
    9.9359    9.6741   22.6717 H   0  0  0  0  0  0  0  0  0  0  0  0
    8.3573   13.2138   24.5437 H   0  0  0  0  0  0  0  0  0  0  0  0
   14.0529   15.0098   21.0001 H   0  0  0  0  0  0  0  0  0  0  0  0
   13.1667   16.5016   20.6044 H   0  0  0  0  0  0  0  0  0  0  0  0
   10.3886   11.9758   21.8529 H   0  0  0  0  0  0  0  0  0  0  0  0
   11.6066   13.4582   21.2577 H   0  0  0  0  0  0  0  0  0  0  0  0
  1  2  3  0  0  0  0
  2  7  1  0  0  0  0
  3  4  1  0  0  0  0
  3  5  2  0  0  0  0
  4  7  2  0  0  0  0
  5  8  1  0  0  0  0
  6  7  1  0  0  0  0
  6  8  2  0  0  0  0
  8 12  1  0  0  0  0
  9 11  1  0  0  0  0
  9 13  1  0  0  0  0
  9 14  2  0  0  0  0
 10 12  1  0  0  0  0
 10 13  1  0  0  0  0
 10 15  2  0  0  0  0
 11 16  1  0  0  0  0
  1 17  1  0  0  0  0
  3 18  1  0  0  0  0
  4 19  1  0  0  0  0
  5 20  1  0  0  0  0
  6 21  1  0  0  0  0
 11 22  1  0  0  0  0
 11 23  1  0  0  0  0
 12 24  1  0  0  0  0
 13 25  1  0  0  0  0
M  END
> <Catalog ID>
Z381561446

> <MW>
236.035

> <MW (desalted)>
236.654

> <ClogP>
2.484

> <logS>
-3.335

> <HBD>
2

> <HBA>
2

> <TPSA>
58.2

> <RotBonds>
2

> <ROCS_ShapeQuery>
A71EV2A-x0451_0A_A71EV2A-x0310_0A_A71EV2A-x0416_0A_peptide

> <ROCS_TanimotoCombo>
0.484 

> <ROCS_ShapeTanimoto>
0.306 

> <ROCS_ColorTanimoto>
0.179 

> <ROCS_RefTversky>
0.268 

> <ROCS_RefColorTversky>
0.188 

> <ROCS_RefTverskyCombo>
0.456 

> <ROCS_FitTversky>
1.826 

> <ROCS_FitColorTversky>
0.784 

> <ROCS_FitTverskyCombo>
2.611 

> <ROCS_ColorScore>
-5.720

> <ROCS_Overlap>
1860.751

> <ROCS_Rank>
21                  

$$$$
untitled-dbase-252_13
  -OEChem-11112315393D

 22 23  0     0  0  0  0  0  0999 V2000
   10.5391   10.9766   22.5226 C   0  0  0  0  0  0  0  0  0  0  0  0
    9.8154    9.9133   23.0677 C   0  0  0  0  0  0  0  0  0  0  0  0
    9.0752   12.5893   23.6116 C   0  0  0  0  0  0  0  0  0  0  0  0
   10.1712   12.3066   22.7928 C   0  0  0  0  0  0  0  0  0  0  0  0
    8.7373   10.2186   23.8727 C   0  0  0  0  0  0  0  0  0  0  0  0
    8.3769   11.5220   24.1377 C   0  0  0  0  0  0  0  0  0  0  0  0
   11.0926   14.6117   22.7966 C   0  0  0  0  0  0  0  0  0  0  0  0
    7.0183   10.2097   25.1602 C   0  0  0  0  0  0  0  0  0  0  0  0
   11.9493   15.4954   21.9199 C   0  0  0  0  0  0  0  0  0  0  0  0
   10.9091   13.3527   22.2369 N   0  0  0  0  0  0  0  0  0  0  0  0
   10.6375   15.0442   23.8520 O   0  0  0  0  0  0  0  0  0  0  0  0
    7.9202    9.3193   24.4876 O   0  0  0  0  0  0  0  0  0  0  0  0
    7.2886   11.6035   24.9522 O   0  0  0  0  0  0  0  0  0  0  0  0
    7.0681    9.9529   26.4912 F   0  0  0  0  0  0  0  0  0  0  0  0
    5.7556    9.9462   24.7401 F   0  0  0  0  0  0  0  0  0  0  0  0
   11.6843   15.0076   20.2384 Cl  0  0  0  0  0  0  0  0  0  0  0  0
   11.3942   10.7634   21.8851 H   0  0  0  0  0  0  0  0  0  0  0  0
   10.0953    8.8866   22.8610 H   0  0  0  0  0  0  0  0  0  0  0  0
    8.7803   13.6102   23.8302 H   0  0  0  0  0  0  0  0  0  0  0  0
   13.0150   15.4121   22.1477 H   0  0  0  0  0  0  0  0  0  0  0  0
   11.6420   16.5378   22.0425 H   0  0  0  0  0  0  0  0  0  0  0  0
   11.3541   13.1775   21.3382 H   0  0  0  0  0  0  0  0  0  0  0  0
  1  2  2  0  0  0  0
  1  4  1  0  0  0  0
  2  5  1  0  0  0  0
  3  4  2  0  0  0  0
  3  6  1  0  0  0  0
  4 10  1  0  0  0  0
  5  6  2  0  0  0  0
  5 12  1  0  0  0  0
  6 13  1  0  0  0  0
  7  9  1  0  0  0  0
  7 10  1  0  0  0  0
  7 11  2  0  0  0  0
  8 12  1  0  0  0  0
  8 13  1  0  0  0  0
  8 14  1  0  0  0  0
  8 15  1  0  0  0  0
  9 16  1  0  0  0  0
  1 17  1  0  0  0  0
  2 18  1  0  0  0  0
  3 19  1  0  0  0  0
  9 20  1  0  0  0  0
  9 21  1  0  0  0  0
 10 22  1  0  0  0  0
M  END
> <Catalog ID>
Z56915980

> <MW>
249

> <MW (desalted)>
249.599

> <ClogP>
3.417

> <logS>
-3.75

> <HBD>
1

> <HBA>
3

> <TPSA>
47.56

> <RotBonds>
2

> <ROCS_ShapeQuery>
A71EV2A-x0451_0A_A71EV2A-x0310_0A_A71EV2A-x0416_0A_peptide

> <ROCS_TanimotoCombo>
0.484 

> <ROCS_ShapeTanimoto>
0.306 

> <ROCS_ColorTanimoto>
0.178 

> <ROCS_RefTversky>
0.270 

> <ROCS_RefColorTversky>
0.187 

> <ROCS_RefTverskyCombo>
0.457 

> <ROCS_FitTversky>
1.765 

> <ROCS_FitColorTversky>
0.780 

> <ROCS_FitTverskyCombo>
2.545 

> <ROCS_ColorScore>
-5.702

> <ROCS_Overlap>
1871.799

> <ROCS_Rank>
22                  

$$$$
untitled-dbase-530_107
  -OEChem-11112315393D

 31 33  0     1  0  0  0  0  0999 V2000
    6.0744   11.1332   26.3092 C   0  0  0  0  0  0  0  0  0  0  0  0
    6.0360   12.4005   25.7088 C   0  0  0  0  0  0  0  0  0  0  0  0
    7.0086   10.1815   25.8999 C   0  0  0  0  0  0  0  0  0  0  0  0
    6.9319   12.7348   24.6896 C   0  0  0  0  0  0  0  0  0  0  0  0
    7.8917   10.5223   24.8877 C   0  0  0  0  0  0  0  0  0  0  0  0
    7.8631   11.7920   24.2767 C   0  0  0  0  0  0  0  0  0  0  0  0
    9.1167   16.3890   22.0960 C   0  0  0  0  0  0  0  0  0  0  0  0
   10.3176   15.8234   21.9413 C   0  0  0  0  0  0  0  0  0  0  0  0
   10.7240   14.6743   22.7938 C   0  0  0  0  0  0  0  0  0  0  0  0
    8.9805    9.6553   24.3002 C   0  0  0  0  0  0  0  0  0  0  0  0
    8.9173   11.8988   23.2200 C   0  0  2  0  0  0  0  0  0  0  0  0
    9.6047   10.5369   23.2292 C   0  0  1  0  0  0  0  0  0  0  0  0
   10.3795   11.7828   23.5779 C   0  0  1  0  0  0  0  0  0  0  0  0
   11.4160   12.2989   22.6405 C   0  0  0  0  0  0  0  0  0  0  0  0
   11.0050   13.5401   22.0438 N   0  0  0  0  0  0  0  0  0  0  0  0
   10.7906   14.7505   24.0164 O   0  0  0  0  0  0  0  0  0  0  0  0
    5.3697   10.8924   27.1006 H   0  0  0  0  0  0  0  0  0  0  0  0
    5.3017   13.1295   26.0409 H   0  0  0  0  0  0  0  0  0  0  0  0
    7.0392    9.2025   26.3658 H   0  0  0  0  0  0  0  0  0  0  0  0
    6.8959   13.7176   24.2306 H   0  0  0  0  0  0  0  0  0  0  0  0
    8.8278   17.2276   21.4711 H   0  0  0  0  0  0  0  0  0  0  0  0
    8.3985   16.0438   22.8315 H   0  0  0  0  0  0  0  0  0  0  0  0
   11.0068   16.1992   21.1929 H   0  0  0  0  0  0  0  0  0  0  0  0
    9.7198    9.3817   25.0589 H   0  0  0  0  0  0  0  0  0  0  0  0
    8.5474    8.7568   23.8501 H   0  0  0  0  0  0  0  0  0  0  0  0
    8.6519   12.3141   22.2545 H   0  0  0  0  0  0  0  0  0  0  0  0
    9.7914   10.0340   22.2911 H   0  0  0  0  0  0  0  0  0  0  0  0
   10.6712   11.9338   24.6111 H   0  0  0  0  0  0  0  0  0  0  0  0
   12.3535   12.4602   23.1935 H   0  0  0  0  0  0  0  0  0  0  0  0
   11.5835   11.5571   21.8451 H   0  0  0  0  0  0  0  0  0  0  0  0
   10.8897   13.5676   21.0312 H   0  0  0  0  0  0  0  0  0  0  0  0
  1  2  1  0  0  0  0
  1  3  2  0  0  0  0
  2  4  2  0  0  0  0
  3  5  1  0  0  0  0
  4  6  1  0  0  0  0
  5  6  2  0  0  0  0
  5 10  1  0  0  0  0
  6 11  1  0  0  0  0
  7  8  2  0  0  0  0
  8  9  1  0  0  0  0
  9 15  1  0  0  0  0
  9 16  2  0  0  0  0
 10 12  1  0  0  0  0
 11 12  1  0  0  0  0
 11 13  1  0  0  0  0
 12 13  1  0  0  0  0
 13 14  1  0  0  0  0
 14 15  1  0  0  0  0
  1 17  1  0  0  0  0
  2 18  1  0  0  0  0
  3 19  1  0  0  0  0
  4 20  1  0  0  0  0
  7 21  1  0  0  0  0
  7 22  1  0  0  0  0
  8 23  1  0  0  0  0
 10 24  1  0  0  0  0
 10 25  1  0  0  0  0
 11 26  1  0  0  0  0
 12 27  1  0  0  0  0
 13 28  1  0  0  0  0
 14 29  1  0  0  0  0
 14 30  1  0  0  0  0
 15 31  1  0  0  0  0
M  END
> <Catalog ID>
Z2285377748

> <MW>
213.275

> <MW (desalted)>
213.275

> <ClogP>
1.623

> <logS>
-2.96

> <HBD>
1

> <HBA>
1

> <TPSA>
29.1

> <RotBonds>
3

> <ROCS_ShapeQuery>
A71EV2A-x0451_0A_A71EV2A-x0310_0A_A71EV2A-x0416_0A_peptide

> <ROCS_TanimotoCombo>
0.482 

> <ROCS_ShapeTanimoto>
0.291 

> <ROCS_ColorTanimoto>
0.191 

> <ROCS_RefTversky>
0.259 

> <ROCS_RefColorTversky>
0.208 

> <ROCS_RefTverskyCombo>
0.467 

> <ROCS_FitTversky>
1.731 

> <ROCS_FitColorTversky>
0.703 

> <ROCS_FitTverskyCombo>
2.435 

> <ROCS_ColorScore>
-6.334

> <ROCS_Overlap>
1797.565

> <ROCS_Rank>
23                  

$$$$
untitled-dbase-434_1
  -OEChem-11112315393D

 27 28  0     0  0  0  0  0  0999 V2000
    6.8202   12.6262   25.7818 C   0  0  0  0  0  0  0  0  0  0  0  0
    7.9072   12.8589   24.9316 C   0  0  0  0  0  0  0  0  0  0  0  0
    7.1050   10.2601   25.4982 C   0  0  0  0  0  0  0  0  0  0  0  0
    6.4232   11.3273   26.0711 C   0  0  0  0  0  0  0  0  0  0  0  0
    8.6250   11.7968   24.3563 C   0  0  0  0  0  0  0  0  0  0  0  0
    8.1882   10.4946   24.6388 C   0  0  0  0  0  0  0  0  0  0  0  0
    9.8531    9.4656   23.1860 C   0  0  0  0  0  0  0  0  0  0  0  0
   10.4230   13.2343   23.3957 C   0  0  0  0  0  0  0  0  0  0  0  0
   10.1963   10.8505   22.6933 C   0  0  0  0  0  0  0  0  0  0  0  0
   11.0799   13.5286   22.0640 C   0  0  0  0  0  0  0  0  0  0  0  0
    5.2826   11.0798   26.9980 C   0  0  0  0  0  0  0  0  0  0  0  0
    8.8330    9.3797   24.0933 N   0  0  0  0  0  0  0  0  0  0  0  0
    9.7576   11.9958   23.4951 N   0  0  0  0  0  0  0  0  0  0  0  0
   10.3989    8.4717   22.7041 O   0  0  0  0  0  0  0  0  0  0  0  0
   10.5351   14.0705   24.2948 O   0  0  0  0  0  0  0  0  0  0  0  0
    4.7185   12.2225   27.4910 F   0  0  0  0  0  0  0  0  0  0  0  0
    4.2499   10.3930   26.4246 F   0  0  0  0  0  0  0  0  0  0  0  0
    5.6436   10.3490   28.0932 F   0  0  0  0  0  0  0  0  0  0  0  0
   11.0097   15.2723   21.8488 Cl  0  0  0  0  0  0  0  0  0  0  0  0
    6.2957   13.4729   26.2173 H   0  0  0  0  0  0  0  0  0  0  0  0
    8.1810   13.8962   24.7740 H   0  0  0  0  0  0  0  0  0  0  0  0
    6.7967    9.2415   25.7254 H   0  0  0  0  0  0  0  0  0  0  0  0
   11.2880   10.9122   22.6114 H   0  0  0  0  0  0  0  0  0  0  0  0
    9.7706   10.9349   21.6881 H   0  0  0  0  0  0  0  0  0  0  0  0
   10.5181   13.0312   21.2842 H   0  0  0  0  0  0  0  0  0  0  0  0
   12.1088   13.1963   22.1054 H   0  0  0  0  0  0  0  0  0  0  0  0
    8.5293    8.4572   24.3917 H   0  0  0  0  0  0  0  0  0  0  0  0
  1  2  2  0  0  0  0
  1  4  1  0  0  0  0
  2  5  1  0  0  0  0
  3  4  2  0  0  0  0
  3  6  1  0  0  0  0
  4 11  1  0  0  0  0
  5  6  2  0  0  0  0
  5 13  1  0  0  0  0
  6 12  1  0  0  0  0
  7  9  1  0  0  0  0
  7 12  1  0  0  0  0
  7 14  2  0  0  0  0
  8 10  1  0  0  0  0
  8 13  1  0  0  0  0
  8 15  2  0  0  0  0
  9 13  1  0  0  0  0
 10 19  1  0  0  0  0
 11 16  1  0  0  0  0
 11 17  1  0  0  0  0
 11 18  1  0  0  0  0
  1 20  1  0  0  0  0
  2 21  1  0  0  0  0
  3 22  1  0  0  0  0
  9 23  1  0  0  0  0
  9 24  1  0  0  0  0
 10 25  1  0  0  0  0
 10 26  1  0  0  0  0
 12 27  1  0  0  0  0
M  END
> <Catalog ID>
Z147652002

> <MW>
292.023

> <MW (desalted)>
292.642

> <ClogP>
2.375

> <logS>
-3.47

> <HBD>
1

> <HBA>
2

> <TPSA>
49.41

> <RotBonds>
2

> <ROCS_ShapeQuery>
A71EV2A-x0451_0A_A71EV2A-x0310_0A_A71EV2A-x0416_0A_peptide

> <ROCS_TanimotoCombo>
0.482 

> <ROCS_ShapeTanimoto>
0.331 

> <ROCS_ColorTanimoto>
0.151 

> <ROCS_RefTversky>
0.291 

> <ROCS_RefColorTversky>
0.159 

> <ROCS_RefTverskyCombo>
0.450 

> <ROCS_FitTversky>
1.712 

> <ROCS_FitColorTversky>
0.760 

> <ROCS_FitTverskyCombo>
2.471 

> <ROCS_ColorScore>
-4.816

> <ROCS_Overlap>
2018.803

> <ROCS_Rank>
24                  

$$$$
untitled-dbase-391_58
  -OEChem-11112315393D

 34 35  0     1  0  0  0  0  0999 V2000
   11.7684   15.5649   21.6644 C   0  0  0  0  0  0  0  0  0  0  0  0
   11.2140   14.3512   21.7406 C   0  0  0  0  0  0  0  0  0  0  0  0
   10.6827   13.8462   23.0348 C   0  0  0  0  0  0  0  0  0  0  0  0
    9.7482   10.3438   23.8977 C   0  0  0  0  0  0  0  0  0  0  0  0
    7.6588   11.1361   26.4543 C   0  0  0  0  0  0  0  0  0  0  0  0
    8.0738   12.2303   24.1548 C   0  0  0  0  0  0  0  0  0  0  0  0
    8.4556    9.6659   23.4708 C   0  0  0  0  0  0  0  0  0  0  0  0
    7.0850   12.3785   27.1215 C   0  0  0  0  0  0  0  0  0  0  0  0
    5.7722   11.5235   24.9619 C   0  0  0  0  0  0  0  0  0  0  0  0
    9.5596   11.8586   24.0471 C   0  0  2  0  0  0  0  0  0  0  0  0
    7.2751   11.1840   24.9581 C   0  0  2  0  0  0  0  0  0  0  0  0
   10.1491   12.5734   22.9139 N   0  0  0  0  0  0  0  0  0  0  0  0
   10.7251   14.5059   24.0683 O   0  0  0  0  0  0  0  0  0  0  0  0
    4.4697   12.0713   27.1852 O   0  0  0  0  0  0  0  0  0  0  0  0
    5.4430   13.9901   25.8420 O   0  0  0  0  0  0  0  0  0  0  0  0
    7.4139    9.8586   24.4253 O   0  0  0  0  0  0  0  0  0  0  0  0
    5.5027   12.6310   26.3384 S   0  0  0  0  0  0  0  0  0  0  0  0
   12.1547   15.9259   20.7170 H   0  0  0  0  0  0  0  0  0  0  0  0
   11.8532   16.2235   22.5217 H   0  0  0  0  0  0  0  0  0  0  0  0
   11.1483   13.7236   20.8585 H   0  0  0  0  0  0  0  0  0  0  0  0
   10.1070    9.9047   24.8392 H   0  0  0  0  0  0  0  0  0  0  0  0
   10.5178   10.1516   23.1343 H   0  0  0  0  0  0  0  0  0  0  0  0
    8.7567   11.1415   26.5553 H   0  0  0  0  0  0  0  0  0  0  0  0
    7.2977   10.2363   26.9702 H   0  0  0  0  0  0  0  0  0  0  0  0
    7.9633   13.2244   24.6060 H   0  0  0  0  0  0  0  0  0  0  0  0
    7.6557   12.2888   23.1399 H   0  0  0  0  0  0  0  0  0  0  0  0
    8.1117   10.0968   22.5227 H   0  0  0  0  0  0  0  0  0  0  0  0
    8.6056    8.5948   23.2898 H   0  0  0  0  0  0  0  0  0  0  0  0
    6.9121   12.2141   28.1889 H   0  0  0  0  0  0  0  0  0  0  0  0
    7.7132   13.2596   26.9761 H   0  0  0  0  0  0  0  0  0  0  0  0
    5.4750   12.0619   24.0518 H   0  0  0  0  0  0  0  0  0  0  0  0
    5.1346   10.6405   25.0968 H   0  0  0  0  0  0  0  0  0  0  0  0
   10.0987   12.2212   24.9273 H   0  0  0  0  0  0  0  0  0  0  0  0
   10.1299   12.1155   22.0062 H   0  0  0  0  0  0  0  0  0  0  0  0
  1  2  2  0  0  0  0
  2  3  1  0  0  0  0
  3 12  1  0  0  0  0
  3 13  2  0  0  0  0
  4  7  1  0  0  0  0
  4 10  1  0  0  0  0
  5  8  1  0  0  0  0
  5 11  1  0  0  0  0
  6 10  1  0  0  0  0
  6 11  1  0  0  0  0
  7 16  1  0  0  0  0
  8 17  1  0  0  0  0
  9 11  1  0  0  0  0
  9 17  1  0  0  0  0
 10 12  1  0  0  0  0
 11 16  1  0  0  0  0
 14 17  2  0  0  0  0
 15 17  2  0  0  0  0
  1 18  1  0  0  0  0
  1 19  1  0  0  0  0
  2 20  1  0  0  0  0
  4 21  1  0  0  0  0
  4 22  1  0  0  0  0
  5 23  1  0  0  0  0
  5 24  1  0  0  0  0
  6 25  1  0  0  0  0
  6 26  1  0  0  0  0
  7 27  1  0  0  0  0
  7 28  1  0  0  0  0
  8 29  1  0  0  0  0
  8 30  1  0  0  0  0
  9 31  1  0  0  0  0
  9 32  1  0  0  0  0
 10 33  1  0  0  0  0
 12 34  1  0  0  0  0
M  END
> <Catalog ID>
Z2737383362

> <MW>
259.322

> <MW (desalted)>
259.322

> <ClogP>
-2.566

> <logS>
-1.6

> <HBD>
1

> <HBA>
4

> <TPSA>
72.47

> <RotBonds>
2

> <ROCS_ShapeQuery>
A71EV2A-x0451_0A_A71EV2A-x0310_0A_A71EV2A-x0416_0A_peptide

> <ROCS_TanimotoCombo>
0.481 

> <ROCS_ShapeTanimoto>
0.298 

> <ROCS_ColorTanimoto>
0.183 

> <ROCS_RefTversky>
0.264 

> <ROCS_RefColorTversky>
0.201 

> <ROCS_RefTverskyCombo>
0.466 

> <ROCS_FitTversky>
1.751 

> <ROCS_FitColorTversky>
0.669 

> <ROCS_FitTverskyCombo>
2.420 

> <ROCS_ColorScore>
-6.149

> <ROCS_Overlap>
1830.760

> <ROCS_Rank>
25                  

$$$$
untitled-dbase-787_8
  -OEChem-11112315393D

 27 28  0     1  0  0  0  0  0999 V2000
    7.8450    7.5925   23.6964 C   0  0  0  0  0  0  0  0  0  0  0  0
    8.9967    7.6230   22.9092 C   0  0  0  0  0  0  0  0  0  0  0  0
    7.3885    8.7568   24.3147 C   0  0  0  0  0  0  0  0  0  0  0  0
    9.6897    8.8202   22.7286 C   0  0  0  0  0  0  0  0  0  0  0  0
    8.0885    9.9517   24.1461 C   0  0  0  0  0  0  0  0  0  0  0  0
    9.2264    9.9878   23.3354 C   0  0  0  0  0  0  0  0  0  0  0  0
   10.2013   13.4020   23.4906 C   0  0  0  0  0  0  0  0  0  0  0  0
   11.8543   14.4630   21.9965 C   0  0  0  0  0  0  0  0  0  0  0  0
    8.5665   12.1135   24.8406 C   0  0  0  0  0  0  0  0  0  0  0  0
    9.1965   12.2988   23.4733 C   0  0  2  0  0  0  0  0  0  0  0  0
   12.4063   14.3403   20.5988 C   0  0  0  0  0  0  0  0  0  0  0  0
   10.8620   13.5238   22.2696 N   0  0  0  0  0  0  0  0  0  0  0  0
   10.3929   14.0921   24.4881 O   0  0  0  0  0  0  0  0  0  0  0  0
   12.2780   15.3036   22.7873 O   0  0  0  0  0  0  0  0  0  0  0  0
    7.6029   11.0571   24.7957 O   0  0  0  0  0  0  0  0  0  0  0  0
    9.9380   11.1368   23.1042 O   0  0  0  0  0  0  0  0  0  0  0  0
   12.8839   15.9580   20.0607 Cl  0  0  0  0  0  0  0  0  0  0  0  0
    7.3054    6.6595   23.8315 H   0  0  0  0  0  0  0  0  0  0  0  0
    9.3517    6.7138   22.4326 H   0  0  0  0  0  0  0  0  0  0  0  0
    6.4958    8.7221   24.9331 H   0  0  0  0  0  0  0  0  0  0  0  0
   10.5807    8.8368   22.1069 H   0  0  0  0  0  0  0  0  0  0  0  0
    9.3119   11.8733   25.6103 H   0  0  0  0  0  0  0  0  0  0  0  0
    8.0489   13.0257   25.1567 H   0  0  0  0  0  0  0  0  0  0  0  0
    8.4504   12.5088   22.6975 H   0  0  0  0  0  0  0  0  0  0  0  0
   11.6282   13.9563   19.9333 H   0  0  0  0  0  0  0  0  0  0  0  0
   13.2763   13.6812   20.5461 H   0  0  0  0  0  0  0  0  0  0  0  0
   10.6013   12.8817   21.5253 H   0  0  0  0  0  0  0  0  0  0  0  0
  1  2  1  0  0  0  0
  1  3  2  0  0  0  0
  2  4  2  0  0  0  0
  3  5  1  0  0  0  0
  4  6  1  0  0  0  0
  5  6  2  0  0  0  0
  5 15  1  0  0  0  0
  6 16  1  0  0  0  0
  7 10  1  0  0  0  0
  7 12  1  0  0  0  0
  7 13  2  0  0  0  0
  8 11  1  0  0  0  0
  8 12  1  0  0  0  0
  8 14  2  0  0  0  0
  9 10  1  0  0  0  0
  9 15  1  0  0  0  0
 10 16  1  0  0  0  0
 11 17  1  0  0  0  0
  1 18  1  0  0  0  0
  2 19  1  0  0  0  0
  3 20  1  0  0  0  0
  4 21  1  0  0  0  0
  9 22  1  0  0  0  0
  9 23  1  0  0  0  0
 10 24  1  0  0  0  0
 11 25  1  0  0  0  0
 11 26  1  0  0  0  0
 12 27  1  0  0  0  0
M  END
> <Catalog ID>
Z56924443

> <MW>
255.03

> <MW (desalted)>
255.654

> <ClogP>
1.295

> <logS>
-3.17

> <HBD>
1

> <HBA>
4

> <TPSA>
64.63

> <RotBonds>
2

> <ROCS_ShapeQuery>
A71EV2A-x0451_0A_A71EV2A-x0310_0A_A71EV2A-x0416_0A_peptide

> <ROCS_TanimotoCombo>
0.481 

> <ROCS_ShapeTanimoto>
0.315 

> <ROCS_ColorTanimoto>
0.165 

> <ROCS_RefTversky>
0.277 

> <ROCS_RefColorTversky>
0.180 

> <ROCS_RefTverskyCombo>
0.458 

> <ROCS_FitTversky>
1.769 

> <ROCS_FitColorTversky>
0.666 

> <ROCS_FitTverskyCombo>
2.436 

> <ROCS_ColorScore>
-5.493

> <ROCS_Overlap>
1922.360

> <ROCS_Rank>
26                  

$$$$
untitled-dbase-118_60
  -OEChem-11112315393D

 32 34  0     0  0  0  0  0  0999 V2000
   10.5493   10.9845   22.5191 C   0  0  0  0  0  0  0  0  0  0  0  0
    9.8255    9.9226   23.0667 C   0  0  0  0  0  0  0  0  0  0  0  0
    9.0838   12.5991   23.6024 C   0  0  0  0  0  0  0  0  0  0  0  0
   10.1806   12.3150   22.7853 C   0  0  0  0  0  0  0  0  0  0  0  0
    8.7471   10.2303   23.8699 C   0  0  0  0  0  0  0  0  0  0  0  0
    8.3865   11.5325   24.1304 C   0  0  0  0  0  0  0  0  0  0  0  0
   11.0995   14.6211   22.7845 C   0  0  0  0  0  0  0  0  0  0  0  0
    4.7322   10.4551   25.9113 C   0  0  0  0  0  0  0  0  0  0  0  0
    5.6478   10.4640   27.1370 C   0  0  0  0  0  0  0  0  0  0  0  0
    5.5711    9.9103   24.7586 C   0  0  0  0  0  0  0  0  0  0  0  0
    6.9943    9.9223   26.6647 C   0  0  0  0  0  0  0  0  0  0  0  0
    7.0127   10.2123   25.1647 C   0  0  0  0  0  0  0  0  0  0  0  0
   11.9559   15.5037   21.9063 C   0  0  0  0  0  0  0  0  0  0  0  0
   10.9177   13.3606   22.2276 N   0  0  0  0  0  0  0  0  0  0  0  0
   10.6432   15.0556   23.8386 O   0  0  0  0  0  0  0  0  0  0  0  0
    7.9287    9.3339   24.4865 O   0  0  0  0  0  0  0  0  0  0  0  0
    7.2973   11.6132   24.9432 O   0  0  0  0  0  0  0  0  0  0  0  0
   12.4026   14.5672   20.4714 Cl  0  0  0  0  0  0  0  0  0  0  0  0
   11.4041   10.7700   21.8817 H   0  0  0  0  0  0  0  0  0  0  0  0
   10.1067    8.8954   22.8644 H   0  0  0  0  0  0  0  0  0  0  0  0
    8.7864   13.6201   23.8170 H   0  0  0  0  0  0  0  0  0  0  0  0
    3.8389    9.8440   26.0753 H   0  0  0  0  0  0  0  0  0  0  0  0
    4.3954   11.4752   25.6923 H   0  0  0  0  0  0  0  0  0  0  0  0
    5.7567   11.4887   27.5112 H   0  0  0  0  0  0  0  0  0  0  0  0
    5.2408    9.8590   27.9534 H   0  0  0  0  0  0  0  0  0  0  0  0
    5.4162    8.8296   24.6523 H   0  0  0  0  0  0  0  0  0  0  0  0
    5.2939   10.3813   23.8097 H   0  0  0  0  0  0  0  0  0  0  0  0
    7.8227   10.4022   27.1961 H   0  0  0  0  0  0  0  0  0  0  0  0
    7.0573    8.8434   26.8519 H   0  0  0  0  0  0  0  0  0  0  0  0
   12.8678   15.8406   22.4057 H   0  0  0  0  0  0  0  0  0  0  0  0
   11.3784   16.3792   21.5964 H   0  0  0  0  0  0  0  0  0  0  0  0
   11.3635   13.1838   21.3296 H   0  0  0  0  0  0  0  0  0  0  0  0
  1  2  2  0  0  0  0
  1  4  1  0  0  0  0
  2  5  1  0  0  0  0
  3  4  2  0  0  0  0
  3  6  1  0  0  0  0
  4 14  1  0  0  0  0
  5  6  2  0  0  0  0
  5 16  1  0  0  0  0
  6 17  1  0  0  0  0
  7 13  1  0  0  0  0
  7 14  1  0  0  0  0
  7 15  2  0  0  0  0
  8  9  1  0  0  0  0
  8 10  1  0  0  0  0
  9 11  1  0  0  0  0
 10 12  1  0  0  0  0
 11 12  1  0  0  0  0
 12 16  1  0  0  0  0
 12 17  1  0  0  0  0
 13 18  1  0  0  0  0
  1 19  1  0  0  0  0
  2 20  1  0  0  0  0
  3 21  1  0  0  0  0
  8 22  1  0  0  0  0
  8 23  1  0  0  0  0
  9 24  1  0  0  0  0
  9 25  1  0  0  0  0
 10 26  1  0  0  0  0
 10 27  1  0  0  0  0
 11 28  1  0  0  0  0
 11 29  1  0  0  0  0
 13 30  1  0  0  0  0
 13 31  1  0  0  0  0
 14 32  1  0  0  0  0
M  END
> <Catalog ID>
Z56347573

> <MW>
267.066

> <MW (desalted)>
267.708

> <ClogP>
2.863

> <logS>
-3.92

> <HBD>
1

> <HBA>
3

> <TPSA>
47.56

> <RotBonds>
2

> <ROCS_ShapeQuery>
A71EV2A-x0451_0A_A71EV2A-x0310_0A_A71EV2A-x0416_0A_peptide

> <ROCS_TanimotoCombo>
0.480 

> <ROCS_ShapeTanimoto>
0.308 

> <ROCS_ColorTanimoto>
0.173 

> <ROCS_RefTversky>
0.274 

> <ROCS_RefColorTversky>
0.187 

> <ROCS_RefTverskyCombo>
0.461 

> <ROCS_FitTversky>
1.663 

> <ROCS_FitColorTversky>
0.690 

> <ROCS_FitTverskyCombo>
2.354 

> <ROCS_ColorScore>
-5.711

> <ROCS_Overlap>
1900.347

> <ROCS_Rank>
27                  

$$$$
untitled-dbase-241_7
  -OEChem-11112315393D

 31 32  0     0  0  0  0  0  0999 V2000
    9.6821   10.8287   23.3487 C   0  0  0  0  0  0  0  0  0  0  0  0
    8.9199    9.6967   23.6371 C   0  0  0  0  0  0  0  0  0  0  0  0
    7.3256   11.0719   24.8220 C   0  0  0  0  0  0  0  0  0  0  0  0
    9.2660   12.0824   23.7970 C   0  0  0  0  0  0  0  0  0  0  0  0
    7.7417    9.8183   24.3737 C   0  0  0  0  0  0  0  0  0  0  0  0
    8.0878   12.2040   24.5336 C   0  0  0  0  0  0  0  0  0  0  0  0
   10.0781   13.2369   23.4819 C   0  0  0  0  0  0  0  0  0  0  0  0
   11.4471   14.5432   22.4196 C   0  0  0  0  0  0  0  0  0  0  0  0
    6.4913   13.6773   25.7349 C   0  0  0  0  0  0  0  0  0  0  0  0
    6.9281    8.6074   24.6837 C   0  0  0  0  0  0  0  0  0  0  0  0
   12.3658   15.0217   21.3749 C   0  0  0  0  0  0  0  0  0  0  0  0
    6.3233   15.1424   26.0648 C   0  0  0  0  0  0  0  0  0  0  0  0
   10.2072   14.3347   24.1921 N   0  0  0  0  0  0  0  0  0  0  0  0
   11.0782   15.1658   23.5162 N   0  0  0  0  0  0  0  0  0  0  0  0
   10.8413   13.3250   22.3574 N   0  0  0  0  0  0  0  0  0  0  0  0
    7.6441   13.4471   24.9969 N   0  0  0  0  0  0  0  0  0  0  0  0
    5.6484   12.8619   26.0991 O   0  0  0  0  0  0  0  0  0  0  0  0
    5.4611   15.2532   27.6075 Cl  0  0  0  0  0  0  0  0  0  0  0  0
   10.5985   10.7155   22.7741 H   0  0  0  0  0  0  0  0  0  0  0  0
    9.2525    8.7236   23.2856 H   0  0  0  0  0  0  0  0  0  0  0  0
    6.4064   11.1627   25.3967 H   0  0  0  0  0  0  0  0  0  0  0  0
    7.2502    8.1637   25.6337 H   0  0  0  0  0  0  0  0  0  0  0  0
    5.8608    8.8529   24.7586 H   0  0  0  0  0  0  0  0  0  0  0  0
    7.0250    7.8497   23.8952 H   0  0  0  0  0  0  0  0  0  0  0  0
   13.4088   14.7332   21.5937 H   0  0  0  0  0  0  0  0  0  0  0  0
   12.1129   14.6177   20.3778 H   0  0  0  0  0  0  0  0  0  0  0  0
   12.3420   16.1217   21.2683 H   0  0  0  0  0  0  0  0  0  0  0  0
    5.7566   15.6853   25.3042 H   0  0  0  0  0  0  0  0  0  0  0  0
    7.3076   15.6069   26.1711 H   0  0  0  0  0  0  0  0  0  0  0  0
   10.9388   12.6320   21.6260 H   0  0  0  0  0  0  0  0  0  0  0  0
    8.2184   14.2556   24.7727 H   0  0  0  0  0  0  0  0  0  0  0  0
  1  2  2  0  0  0  0
  1  4  1  0  0  0  0
  2  5  1  0  0  0  0
  3  5  2  0  0  0  0
  3  6  1  0  0  0  0
  4  6  2  0  0  0  0
  4  7  1  0  0  0  0
  5 10  1  0  0  0  0
  6 16  1  0  0  0  0
  7 13  2  0  0  0  0
  7 15  1  0  0  0  0
  8 11  1  0  0  0  0
  8 14  2  0  0  0  0
  8 15  1  0  0  0  0
  9 12  1  0  0  0  0
  9 16  1  0  0  0  0
  9 17  2  0  0  0  0
 12 18  1  0  0  0  0
 13 14  1  0  0  0  0
  1 19  1  0  0  0  0
  2 20  1  0  0  0  0
  3 21  1  0  0  0  0
 10 22  1  0  0  0  0
 10 23  1  0  0  0  0
 10 24  1  0  0  0  0
 11 25  1  0  0  0  0
 11 26  1  0  0  0  0
 11 27  1  0  0  0  0
 12 28  1  0  0  0  0
 12 29  1  0  0  0  0
 15 30  1  0  0  0  0
 16 31  1  0  0  0  0
M  END
> <Catalog ID>
Z1416063849

> <MW>
264.078

> <MW (desalted)>
264.711

> <ClogP>
0.82

> <logS>
-3.942

> <HBD>
2

> <HBA>
3

> <TPSA>
70.67

> <RotBonds>
3

> <ROCS_ShapeQuery>
A71EV2A-x0451_0A_A71EV2A-x0310_0A_A71EV2A-x0416_0A_peptide

> <ROCS_TanimotoCombo>
0.480 

> <ROCS_ShapeTanimoto>
0.314 

> <ROCS_ColorTanimoto>
0.167 

> <ROCS_RefTversky>
0.278 

> <ROCS_RefColorTversky>
0.183 

> <ROCS_RefTverskyCombo>
0.460 

> <ROCS_FitTversky>
1.705 

> <ROCS_FitColorTversky>
0.654 

> <ROCS_FitTverskyCombo>
2.359 

> <ROCS_ColorScore>
-5.570

> <ROCS_Overlap>
1926.168

> <ROCS_Rank>
28                  

$$$$
untitled-dbase-332_33
  -OEChem-11112315393D

 28 29  0     1  0  0  0  0  0999 V2000
    5.5772   10.8411   25.9444 C   0  0  0  0  0  0  0  0  0  0  0  0
    5.9260   12.1763   26.1494 C   0  0  0  0  0  0  0  0  0  0  0  0
    6.4086   10.0077   25.1959 C   0  0  0  0  0  0  0  0  0  0  0  0
    7.1018   12.6850   25.5974 C   0  0  0  0  0  0  0  0  0  0  0  0
    7.5915   10.5122   24.6549 C   0  0  0  0  0  0  0  0  0  0  0  0
    7.9268   11.8556   24.8371 C   0  0  0  0  0  0  0  0  0  0  0  0
   10.7973   14.5876   22.6005 C   0  0  0  0  0  0  0  0  0  0  0  0
    9.6969   10.1536   23.7442 C   0  0  0  0  0  0  0  0  0  0  0  0
    9.6324   11.6011   23.2753 C   0  0  2  0  0  0  0  0  0  0  0  0
   10.7289   15.6307   21.5145 C   0  0  0  0  0  0  0  0  0  0  0  0
   11.0199   12.1474   22.9721 C   0  0  0  0  0  0  0  0  0  0  0  0
   10.9201   13.2850   22.1180 N   0  0  0  0  0  0  0  0  0  0  0  0
   10.7625   14.8887   23.7923 O   0  0  0  0  0  0  0  0  0  0  0  0
    8.3765    9.6403   23.9474 O   0  0  0  0  0  0  0  0  0  0  0  0
    9.0568   12.4178   24.3043 O   0  0  0  0  0  0  0  0  0  0  0  0
   12.2212   15.5290   20.5671 Cl  0  0  0  0  0  0  0  0  0  0  0  0
    4.6588   10.4489   26.3716 H   0  0  0  0  0  0  0  0  0  0  0  0
    5.2786   12.8220   26.7358 H   0  0  0  0  0  0  0  0  0  0  0  0
    6.1332    8.9670   25.0485 H   0  0  0  0  0  0  0  0  0  0  0  0
    7.3611   13.7284   25.7547 H   0  0  0  0  0  0  0  0  0  0  0  0
   10.1810    9.5237   22.9906 H   0  0  0  0  0  0  0  0  0  0  0  0
   10.2566   10.0511   24.6827 H   0  0  0  0  0  0  0  0  0  0  0  0
    9.0036   11.6911   22.3794 H   0  0  0  0  0  0  0  0  0  0  0  0
    9.8781   15.4843   20.8445 H   0  0  0  0  0  0  0  0  0  0  0  0
   10.6597   16.6233   21.9680 H   0  0  0  0  0  0  0  0  0  0  0  0
   11.4784   12.4242   23.9218 H   0  0  0  0  0  0  0  0  0  0  0  0
   11.5855   11.3537   22.4833 H   0  0  0  0  0  0  0  0  0  0  0  0
   10.9396   13.1388   21.1047 H   0  0  0  0  0  0  0  0  0  0  0  0
  1  2  1  0  0  0  0
  1  3  2  0  0  0  0
  2  4  2  0  0  0  0
  3  5  1  0  0  0  0
  4  6  1  0  0  0  0
  5  6  2  0  0  0  0
  5 14  1  0  0  0  0
  6 15  1  0  0  0  0
  7 10  1  0  0  0  0
  7 12  1  0  0  0  0
  7 13  2  0  0  0  0
  8  9  1  0  0  0  0
  8 14  1  0  0  0  0
  9 11  1  0  0  0  0
  9 15  1  0  0  0  0
 10 16  1  0  0  0  0
 11 12  1  0  0  0  0
  1 17  1  0  0  0  0
  2 18  1  0  0  0  0
  3 19  1  0  0  0  0
  4 20  1  0  0  0  0
  8 21  1  0  0  0  0
  8 22  1  0  0  0  0
  9 23  1  0  0  0  0
 10 24  1  0  0  0  0
 10 25  1  0  0  0  0
 11 26  1  0  0  0  0
 11 27  1  0  0  0  0
 12 28  1  0  0  0  0
M  END
> <Catalog ID>
Z57989068

> <MW>
241.051

> <MW (desalted)>
241.671

> <ClogP>
1.661

> <logS>
-2.88

> <HBD>
1

> <HBA>
3

> <TPSA>
47.56

> <RotBonds>
3

> <ROCS_ShapeQuery>
A71EV2A-x0451_0A_A71EV2A-x0310_0A_A71EV2A-x0416_0A_peptide

> <ROCS_TanimotoCombo>
0.479 

> <ROCS_ShapeTanimoto>
0.311 

> <ROCS_ColorTanimoto>
0.168 

> <ROCS_RefTversky>
0.273 

> <ROCS_RefColorTversky>
0.178 

> <ROCS_RefTverskyCombo>
0.451 

> <ROCS_FitTversky>
1.830 

> <ROCS_FitColorTversky>
0.744 

> <ROCS_FitTverskyCombo>
2.574 

> <ROCS_ColorScore>
-5.425

> <ROCS_Overlap>
1889.282

> <ROCS_Rank>
29                  

$$$$
untitled-dbase-782_31
  -OEChem-11112315393D

 23 23  0     0  0  0  0  0  0999 V2000
    7.4849   11.3523   25.1855 C   0  0  0  0  0  0  0  0  0  0  0  0
    7.4882    9.9656   25.0354 C   0  0  0  0  0  0  0  0  0  0  0  0
    8.3598   12.1373   24.4344 C   0  0  0  0  0  0  0  0  0  0  0  0
    8.3664    9.3638   24.1341 C   0  0  0  0  0  0  0  0  0  0  0  0
    9.2380   11.5355   23.5332 C   0  0  0  0  0  0  0  0  0  0  0  0
    9.2414   10.1487   23.3831 C   0  0  0  0  0  0  0  0  0  0  0  0
   12.2394   15.2244   22.1081 C   0  0  0  0  0  0  0  0  0  0  0  0
   10.6903   13.5627   23.1283 C   0  0  0  0  0  0  0  0  0  0  0  0
   13.0541   15.4350   20.8571 C   0  0  0  0  0  0  0  0  0  0  0  0
   10.1238   12.3341   22.7728 N   0  0  0  0  0  0  0  0  0  0  0  0
   11.5194   14.0308   22.0889 N   0  0  0  0  0  0  0  0  0  0  0  0
   12.2520   16.0345   23.0327 O   0  0  0  0  0  0  0  0  0  0  0  0
   10.5156   14.1743   24.1791 O   0  0  0  0  0  0  0  0  0  0  0  0
   10.0810    9.5592   22.5198 F   0  0  0  0  0  0  0  0  0  0  0  0
   12.2318   14.6045   19.5272 Cl  0  0  0  0  0  0  0  0  0  0  0  0
    6.8015   11.8203   25.8879 H   0  0  0  0  0  0  0  0  0  0  0  0
    6.8074    9.3543   25.6205 H   0  0  0  0  0  0  0  0  0  0  0  0
    8.3483   13.2170   24.5602 H   0  0  0  0  0  0  0  0  0  0  0  0
    8.3691    8.2844   24.0174 H   0  0  0  0  0  0  0  0  0  0  0  0
   14.0472   14.9980   20.9929 H   0  0  0  0  0  0  0  0  0  0  0  0
   13.1628   16.4910   20.5978 H   0  0  0  0  0  0  0  0  0  0  0  0
   10.3795   11.9716   21.8578 H   0  0  0  0  0  0  0  0  0  0  0  0
   11.5987   13.4511   21.2581 H   0  0  0  0  0  0  0  0  0  0  0  0
  1  2  1  0  0  0  0
  1  3  2  0  0  0  0
  2  4  2  0  0  0  0
  3  5  1  0  0  0  0
  4  6  1  0  0  0  0
  5  6  2  0  0  0  0
  5 10  1  0  0  0  0
  6 14  1  0  0  0  0
  7  9  1  0  0  0  0
  7 11  1  0  0  0  0
  7 12  2  0  0  0  0
  8 10  1  0  0  0  0
  8 11  1  0  0  0  0
  8 13  2  0  0  0  0
  9 15  1  0  0  0  0
  1 16  1  0  0  0  0
  2 17  1  0  0  0  0
  3 18  1  0  0  0  0
  4 19  1  0  0  0  0
  9 20  1  0  0  0  0
  9 21  1  0  0  0  0
 10 22  1  0  0  0  0
 11 23  1  0  0  0  0
M  END
> <Catalog ID>
Z57033905

> <MW>
230.026

> <MW (desalted)>
230.623

> <ClogP>
2.209

> <logS>
-2.81

> <HBD>
2

> <HBA>
2

> <TPSA>
58.2

> <RotBonds>
2

> <ROCS_ShapeQuery>
A71EV2A-x0451_0A_A71EV2A-x0310_0A_A71EV2A-x0416_0A_peptide

> <ROCS_TanimotoCombo>
0.478 

> <ROCS_ShapeTanimoto>
0.294 

> <ROCS_ColorTanimoto>
0.185 

> <ROCS_RefTversky>
0.259 

> <ROCS_RefColorTversky>
0.188 

> <ROCS_RefTverskyCombo>
0.447 

> <ROCS_FitTversky>
1.829 

> <ROCS_FitColorTversky>
0.902 

> <ROCS_FitTverskyCombo>
2.731 

> <ROCS_ColorScore>
-5.722

> <ROCS_Overlap>
1795.185

> <ROCS_Rank>
30                  

$$$$
untitled-dbase-276_88
  -OEChem-11112315393D

 36 38  0     1  0  0  0  0  0999 V2000
   10.7369   14.6995   22.4412 C   0  0  0  0  0  0  0  0  0  0  0  0
    8.0005    9.5306   23.6105 C   0  0  0  0  0  0  0  0  0  0  0  0
    9.0380   11.4973   22.4492 C   0  0  0  0  0  0  0  0  0  0  0  0
   10.1986   10.4366   24.4107 C   0  0  0  0  0  0  0  0  0  0  0  0
    6.9724   11.8077   23.8397 C   0  0  0  0  0  0  0  0  0  0  0  0
    8.1327   10.7474   25.8007 C   0  0  0  0  0  0  0  0  0  0  0  0
    9.1725   12.7208   24.6420 C   0  0  0  0  0  0  0  0  0  0  0  0
    7.7088   10.8539   22.8827 C   0  0  2  0  0  0  0  0  0  0  0  0
    8.8731    9.7899   24.8504 C   0  0  1  0  0  0  0  0  0  0  0  0
    9.9331   11.7750   23.6806 C   0  0  0  0  0  0  0  0  0  0  0  0
    7.8475   12.0717   25.0751 C   0  0  0  0  0  0  0  0  0  0  0  0
   10.5335   15.5092   21.1861 C   0  0  0  0  0  0  0  0  0  0  0  0
   11.2547   12.4125   23.2435 C   0  0  0  0  0  0  0  0  0  0  0  0
   11.0115   13.3515   22.2026 N   0  0  0  0  0  0  0  0  0  0  0  0
   10.6772   15.2091   23.5588 O   0  0  0  0  0  0  0  0  0  0  0  0
   12.0184   15.4091   20.2269 Cl  0  0  0  0  0  0  0  0  0  0  0  0
    6.9043   13.2792   26.2863 Br  0  0  0  0  0  0  0  0  0  0  0  0
    7.0594    9.0524   23.9088 H   0  0  0  0  0  0  0  0  0  0  0  0
    8.5105    8.8351   22.9327 H   0  0  0  0  0  0  0  0  0  0  0  0
    9.5563   10.8325   21.7461 H   0  0  0  0  0  0  0  0  0  0  0  0
    8.8359   12.4310   21.9086 H   0  0  0  0  0  0  0  0  0  0  0  0
   10.8359   10.6034   25.2888 H   0  0  0  0  0  0  0  0  0  0  0  0
   10.7436    9.7475   23.7527 H   0  0  0  0  0  0  0  0  0  0  0  0
    6.7401   12.7463   23.3195 H   0  0  0  0  0  0  0  0  0  0  0  0
    6.0101   11.3671   24.1316 H   0  0  0  0  0  0  0  0  0  0  0  0
    7.1987   10.2809   26.1404 H   0  0  0  0  0  0  0  0  0  0  0  0
    8.7399   10.9188   26.6992 H   0  0  0  0  0  0  0  0  0  0  0  0
    9.7955   12.9423   25.5194 H   0  0  0  0  0  0  0  0  0  0  0  0
    8.9839   13.6838   24.1479 H   0  0  0  0  0  0  0  0  0  0  0  0
    7.0866   10.6619   22.0016 H   0  0  0  0  0  0  0  0  0  0  0  0
    9.0761    8.8438   25.3640 H   0  0  0  0  0  0  0  0  0  0  0  0
    9.7003   15.1437   20.5809 H   0  0  0  0  0  0  0  0  0  0  0  0
   10.3496   16.5535   21.4534 H   0  0  0  0  0  0  0  0  0  0  0  0
   11.6755   12.9048   24.1172 H   0  0  0  0  0  0  0  0  0  0  0  0
   11.8972   11.6073   22.8949 H   0  0  0  0  0  0  0  0  0  0  0  0
   11.0393   13.0228   21.2314 H   0  0  0  0  0  0  0  0  0  0  0  0
  1 12  1  0  0  0  0
  1 14  1  0  0  0  0
  1 15  2  0  0  0  0
  2  8  1  0  0  0  0
  2  9  1  0  0  0  0
  3  8  1  0  0  0  0
  3 10  1  0  0  0  0
  4  9  1  0  0  0  0
  4 10  1  0  0  0  0
  5  8  1  0  0  0  0
  5 11  1  0  0  0  0
  6  9  1  0  0  0  0
  6 11  1  0  0  0  0
  7 10  1  0  0  0  0
  7 11  1  0  0  0  0
 10 13  1  0  0  0  0
 11 17  1  0  0  0  0
 12 16  1  0  0  0  0
 13 14  1  0  0  0  0
  2 18  1  0  0  0  0
  2 19  1  0  0  0  0
  3 20  1  0  0  0  0
  3 21  1  0  0  0  0
  4 22  1  0  0  0  0
  4 23  1  0  0  0  0
  5 24  1  0  0  0  0
  5 25  1  0  0  0  0
  6 26  1  0  0  0  0
  6 27  1  0  0  0  0
  7 28  1  0  0  0  0
  7 29  1  0  0  0  0
  8 30  1  0  0  0  0
  9 31  1  0  0  0  0
 12 32  1  0  0  0  0
 12 33  1  0  0  0  0
 13 34  1  0  0  0  0
 13 35  1  0  0  0  0
 14 36  1  0  0  0  0
M  END
> <Catalog ID>
Z1478218440

> <MW>
319.034

> <MW (desalted)>
320.653

> <ClogP>
3.826

> <logS>
-3.649

> <HBD>
1

> <HBA>
1

> <TPSA>
29.1

> <RotBonds>
3

> <ROCS_ShapeQuery>
A71EV2A-x0451_0A_A71EV2A-x0310_0A_A71EV2A-x0416_0A_peptide

> <ROCS_TanimotoCombo>
0.478 

> <ROCS_ShapeTanimoto>
0.291 

> <ROCS_ColorTanimoto>
0.187 

> <ROCS_RefTversky>
0.260 

> <ROCS_RefColorTversky>
0.212 

> <ROCS_RefTverskyCombo>
0.472 

> <ROCS_FitTversky>
1.705 

> <ROCS_FitColorTversky>
0.613 

> <ROCS_FitTverskyCombo>
2.318 

> <ROCS_ColorScore>
-6.489

> <ROCS_Overlap>
1800.802

> <ROCS_Rank>
31                  

$$$$
untitled-dbase-321_85
  -OEChem-11112315393D

 30 31  0     1  0  0  0  0  0999 V2000
    6.7263   12.8984   26.0363 C   0  0  0  0  0  0  0  0  0  0  0  0
    6.2742   11.6210   26.3479 C   0  0  0  0  0  0  0  0  0  0  0  0
    7.7680   13.0783   25.1176 C   0  0  0  0  0  0  0  0  0  0  0  0
    6.8369   10.5224   25.7109 C   0  0  0  0  0  0  0  0  0  0  0  0
    8.3934   11.9855   24.5052 C   0  0  0  0  0  0  0  0  0  0  0  0
    7.8588   10.7104   24.7746 C   0  0  0  0  0  0  0  0  0  0  0  0
    9.1542    8.5827   22.2266 C   0  0  0  0  0  0  0  0  0  0  0  0
   10.3846   13.1751   23.4392 C   0  0  0  0  0  0  0  0  0  0  0  0
    9.8142   10.8975   22.8142 C   0  0  0  0  0  0  0  0  0  0  0  0
    8.6929    9.8799   22.8112 C   0  0  2  0  0  0  0  0  0  0  0  0
   10.7822    6.8868   22.4660 C   0  0  0  0  0  0  0  0  0  0  0  0
   11.0299   13.4220   22.0992 C   0  0  0  0  0  0  0  0  0  0  0  0
    9.5015   12.0986   23.5986 N   0  0  0  0  0  0  0  0  0  0  0  0
    8.6232    8.0349   21.2700 O   0  0  0  0  0  0  0  0  0  0  0  0
   10.6095   13.9934   24.3408 O   0  0  0  0  0  0  0  0  0  0  0  0
    8.3050    9.5734   24.1442 O   0  0  0  0  0  0  0  0  0  0  0  0
   10.2355    8.1283   22.9218 O   0  0  0  0  0  0  0  0  0  0  0  0
   12.0266   14.8592   22.2828 Cl  0  0  0  0  0  0  0  0  0  0  0  0
    6.2787   13.7627   26.5191 H   0  0  0  0  0  0  0  0  0  0  0  0
    5.4924   11.4836   27.0882 H   0  0  0  0  0  0  0  0  0  0  0  0
    8.0759   14.1033   24.9434 H   0  0  0  0  0  0  0  0  0  0  0  0
    6.4735    9.5261   25.9393 H   0  0  0  0  0  0  0  0  0  0  0  0
   10.7434   10.4735   23.2478 H   0  0  0  0  0  0  0  0  0  0  0  0
   10.0588   11.1625   21.7687 H   0  0  0  0  0  0  0  0  0  0  0  0
    7.8225   10.2251   22.2357 H   0  0  0  0  0  0  0  0  0  0  0  0
   11.6390    6.6150   23.0874 H   0  0  0  0  0  0  0  0  0  0  0  0
   11.0919    6.9852   21.4225 H   0  0  0  0  0  0  0  0  0  0  0  0
   10.0169    6.1110   22.5452 H   0  0  0  0  0  0  0  0  0  0  0  0
   10.2520   13.5963   21.3669 H   0  0  0  0  0  0  0  0  0  0  0  0
   11.6457   12.5679   21.8486 H   0  0  0  0  0  0  0  0  0  0  0  0
  1  2  1  0  0  0  0
  1  3  2  0  0  0  0
  2  4  2  0  0  0  0
  3  5  1  0  0  0  0
  4  6  1  0  0  0  0
  5  6  2  0  0  0  0
  5 13  1  0  0  0  0
  6 16  1  0  0  0  0
  7 10  1  0  0  0  0
  7 14  2  0  0  0  0
  7 17  1  0  0  0  0
  8 12  1  0  0  0  0
  8 13  1  0  0  0  0
  8 15  2  0  0  0  0
  9 10  1  0  0  0  0
  9 13  1  0  0  0  0
 10 16  1  0  0  0  0
 11 17  1  0  0  0  0
 12 18  1  0  0  0  0
  1 19  1  0  0  0  0
  2 20  1  0  0  0  0
  3 21  1  0  0  0  0
  4 22  1  0  0  0  0
  9 23  1  0  0  0  0
  9 24  1  0  0  0  0
 10 25  1  0  0  0  0
 11 26  1  0  0  0  0
 11 27  1  0  0  0  0
 11 28  1  0  0  0  0
 12 29  1  0  0  0  0
 12 30  1  0  0  0  0
M  END
> <Catalog ID>
Z199424096

> <MW>
269.045

> <MW (desalted)>
269.681

> <ClogP>
1.446

> <logS>
-3.16

> <HBD>
0

> <HBA>
3

> <TPSA>
55.84

> <RotBonds>
3

> <ROCS_ShapeQuery>
A71EV2A-x0451_0A_A71EV2A-x0310_0A_A71EV2A-x0416_0A_peptide

> <ROCS_TanimotoCombo>
0.477 

> <ROCS_ShapeTanimoto>
0.318 

> <ROCS_ColorTanimoto>
0.160 

> <ROCS_RefTversky>
0.280 

> <ROCS_RefColorTversky>
0.166 

> <ROCS_RefTverskyCombo>
0.447 

> <ROCS_FitTversky>
1.725 

> <ROCS_FitColorTversky>
0.796 

> <ROCS_FitTverskyCombo>
2.522 

> <ROCS_ColorScore>
-5.051

> <ROCS_Overlap>
1943.443

> <ROCS_Rank>
32                  

$$$$
untitled-dbase-907_639
  -OEChem-11112315393D

 27 27  0     0  0  0  0  0  0999 V2000
    7.5177   11.1807   24.8836 C   0  0  0  0  0  0  0  0  0  0  0  0
    7.7577    9.9411   24.2910 C   0  0  0  0  0  0  0  0  0  0  0  0
    9.7243   10.8379   23.2114 C   0  0  0  0  0  0  0  0  0  0  0  0
    9.4843   12.0776   23.8041 C   0  0  0  0  0  0  0  0  0  0  0  0
    8.3810   12.2490   24.6401 C   0  0  0  0  0  0  0  0  0  0  0  0
    8.8610    9.7696   23.4549 C   0  0  0  0  0  0  0  0  0  0  0  0
   10.4149   13.2031   23.5296 C   0  0  0  0  0  0  0  0  0  0  0  0
   13.0072   14.4132   22.7541 C   0  0  0  0  0  0  0  0  0  0  0  0
    6.9783   13.5358   26.0658 C   0  0  0  0  0  0  0  0  0  0  0  0
   13.8394   15.5778   22.2839 C   0  0  0  0  0  0  0  0  0  0  0  0
   11.0323   13.1817   22.2936 N   0  0  0  0  0  0  0  0  0  0  0  0
   11.8924   14.2021   21.9673 N   0  0  0  0  0  0  0  0  0  0  0  0
   10.5724   14.0754   24.3801 O   0  0  0  0  0  0  0  0  0  0  0  0
   13.3122   13.7558   23.7477 O   0  0  0  0  0  0  0  0  0  0  0  0
    8.1283   13.4530   25.2268 O   0  0  0  0  0  0  0  0  0  0  0  0
    9.1582    8.2395   22.7253 Cl  0  0  0  0  0  0  0  0  0  0  0  0
   13.6169   15.7352   20.5346 Cl  0  0  0  0  0  0  0  0  0  0  0  0
    6.6563   11.3084   25.5336 H   0  0  0  0  0  0  0  0  0  0  0  0
    7.0773    9.1174   24.4908 H   0  0  0  0  0  0  0  0  0  0  0  0
   10.5849   10.7067   22.5589 H   0  0  0  0  0  0  0  0  0  0  0  0
    6.8928   14.5477   26.4693 H   0  0  0  0  0  0  0  0  0  0  0  0
    7.0680   12.8134   26.8809 H   0  0  0  0  0  0  0  0  0  0  0  0
    6.0892   13.3058   25.4739 H   0  0  0  0  0  0  0  0  0  0  0  0
   13.4948   16.4927   22.7736 H   0  0  0  0  0  0  0  0  0  0  0  0
   14.9040   15.4408   22.4902 H   0  0  0  0  0  0  0  0  0  0  0  0
   10.8541   12.4272   21.6399 H   0  0  0  0  0  0  0  0  0  0  0  0
   11.7113   14.7910   21.1612 H   0  0  0  0  0  0  0  0  0  0  0  0
  1  2  2  0  0  0  0
  1  5  1  0  0  0  0
  2  6  1  0  0  0  0
  3  4  1  0  0  0  0
  3  6  2  0  0  0  0
  4  5  2  0  0  0  0
  4  7  1  0  0  0  0
  5 15  1  0  0  0  0
  6 16  1  0  0  0  0
  7 11  1  0  0  0  0
  7 13  2  0  0  0  0
  8 10  1  0  0  0  0
  8 12  1  0  0  0  0
  8 14  2  0  0  0  0
  9 15  1  0  0  0  0
 10 17  1  0  0  0  0
 11 12  1  0  0  0  0
  1 18  1  0  0  0  0
  2 19  1  0  0  0  0
  3 20  1  0  0  0  0
  9 21  1  0  0  0  0
  9 22  1  0  0  0  0
  9 23  1  0  0  0  0
 10 24  1  0  0  0  0
 10 25  1  0  0  0  0
 11 26  1  0  0  0  0
 12 27  1  0  0  0  0
M  END
> <Catalog ID>
Z56968802

> <MW>
276.007

> <MW (desalted)>
277.104

> <ClogP>
1.905

> <logS>
-3.39

> <HBD>
2

> <HBA>
3

> <TPSA>
67.43

> <RotBonds>
4

> <ROCS_ShapeQuery>
A71EV2A-x0451_0A_A71EV2A-x0310_0A_A71EV2A-x0416_0A_peptide

> <ROCS_TanimotoCombo>
0.477 

> <ROCS_ShapeTanimoto>
0.305 

> <ROCS_ColorTanimoto>
0.172 

> <ROCS_RefTversky>
0.269 

> <ROCS_RefColorTversky>
0.183 

> <ROCS_RefTverskyCombo>
0.453 

> <ROCS_FitTversky>
1.770 

> <ROCS_FitColorTversky>
0.737 

> <ROCS_FitTverskyCombo>
2.507 

> <ROCS_ColorScore>
-5.581

> <ROCS_Overlap>
1866.370

> <ROCS_Rank>
33                  

$$$$
untitled-dbase-422_107
  -OEChem-11112315393D

 34 35  0     1  0  0  0  0  0999 V2000
    6.0806   11.1149   25.6876 C   0  0  0  0  0  0  0  0  0  0  0  0
    6.5042   12.4509   25.7036 C   0  0  0  0  0  0  0  0  0  0  0  0
    6.8477   10.1389   25.0523 C   0  0  0  0  0  0  0  0  0  0  0  0
    7.6996   12.8305   25.0849 C   0  0  0  0  0  0  0  0  0  0  0  0
    8.0317   10.5237   24.4414 C   0  0  0  0  0  0  0  0  0  0  0  0
    8.4567   11.8537   24.4548 C   0  0  0  0  0  0  0  0  0  0  0  0
   13.9498   16.5295   21.8574 C   0  0  0  0  0  0  0  0  0  0  0  0
   13.6721   15.9531   23.0308 C   0  0  0  0  0  0  0  0  0  0  0  0
   13.1394   14.5654   23.0804 C   0  0  0  0  0  0  0  0  0  0  0  0
   10.3981   13.1506   23.5823 C   0  0  0  0  0  0  0  0  0  0  0  0
    8.9935    9.6439   23.7124 C   0  0  0  0  0  0  0  0  0  0  0  0
   10.0765   10.6376   23.2787 C   0  0  0  0  0  0  0  0  0  0  0  0
   10.3223   13.1318   21.0998 C   0  0  0  0  0  0  0  0  0  0  0  0
   11.2170   13.2006   22.3140 C   0  0  1  0  0  0  0  0  0  0  0  0
    9.6826   11.9755   23.7680 N   0  0  0  0  0  0  0  0  0  0  0  0
   11.9294   14.4387   22.4046 N   0  0  0  0  0  0  0  0  0  0  0  0
   13.7213   13.6552   23.6619 O   0  0  0  0  0  0  0  0  0  0  0  0
   10.4122   14.1155   24.3469 O   0  0  0  0  0  0  0  0  0  0  0  0
    5.1489   10.8393   26.1737 H   0  0  0  0  0  0  0  0  0  0  0  0
    5.8953   13.2003   26.2027 H   0  0  0  0  0  0  0  0  0  0  0  0
    6.5214    9.1044   25.0393 H   0  0  0  0  0  0  0  0  0  0  0  0
    7.9959   13.8717   25.1168 H   0  0  0  0  0  0  0  0  0  0  0  0
   14.3371   17.5426   21.8292 H   0  0  0  0  0  0  0  0  0  0  0  0
   13.8050   16.0238   20.9091 H   0  0  0  0  0  0  0  0  0  0  0  0
   13.8319   16.4941   23.9572 H   0  0  0  0  0  0  0  0  0  0  0  0
    9.4032    8.8771   24.3769 H   0  0  0  0  0  0  0  0  0  0  0  0
    8.5159    9.1766   22.8459 H   0  0  0  0  0  0  0  0  0  0  0  0
   11.0524   10.3750   23.7019 H   0  0  0  0  0  0  0  0  0  0  0  0
   10.1761   10.6700   22.1882 H   0  0  0  0  0  0  0  0  0  0  0  0
    9.6000   13.9560   21.0771 H   0  0  0  0  0  0  0  0  0  0  0  0
   10.9210   13.1912   20.1846 H   0  0  0  0  0  0  0  0  0  0  0  0
    9.7554   12.1951   21.0803 H   0  0  0  0  0  0  0  0  0  0  0  0
   11.9345   12.3830   22.3379 H   0  0  0  0  0  0  0  0  0  0  0  0
   11.5116   15.2687   21.9783 H   0  0  0  0  0  0  0  0  0  0  0  0
  1  2  1  0  0  0  0
  1  3  2  0  0  0  0
  2  4  2  0  0  0  0
  3  5  1  0  0  0  0
  4  6  1  0  0  0  0
  5  6  2  0  0  0  0
  5 11  1  0  0  0  0
  6 15  1  0  0  0  0
  7  8  2  0  0  0  0
  8  9  1  0  0  0  0
  9 16  1  0  0  0  0
  9 17  2  0  0  0  0
 10 14  1  0  0  0  0
 10 15  1  0  0  0  0
 10 18  2  0  0  0  0
 11 12  1  0  0  0  0
 12 15  1  0  0  0  0
 13 14  1  0  0  0  0
 14 16  1  0  0  0  0
  1 19  1  0  0  0  0
  2 20  1  0  0  0  0
  3 21  1  0  0  0  0
  4 22  1  0  0  0  0
  7 23  1  0  0  0  0
  7 24  1  0  0  0  0
  8 25  1  0  0  0  0
 11 26  1  0  0  0  0
 11 27  1  0  0  0  0
 12 28  1  0  0  0  0
 12 29  1  0  0  0  0
 13 30  1  0  0  0  0
 13 31  1  0  0  0  0
 13 32  1  0  0  0  0
 14 33  1  0  0  0  0
 16 34  1  0  0  0  0
M  END
> <Catalog ID>
Z2737383182

> <MW>
244.289

> <MW (desalted)>
244.289

> <ClogP>
1.331

> <logS>
-3.272

> <HBD>
1

> <HBA>
2

> <TPSA>
49.41

> <RotBonds>
3

> <ROCS_ShapeQuery>
A71EV2A-x0451_0A_A71EV2A-x0310_0A_A71EV2A-x0416_0A_peptide

> <ROCS_TanimotoCombo>
0.477 

> <ROCS_ShapeTanimoto>
0.314 

> <ROCS_ColorTanimoto>
0.162 

> <ROCS_RefTversky>
0.278 

> <ROCS_RefColorTversky>
0.173 

> <ROCS_RefTverskyCombo>
0.451 

> <ROCS_FitTversky>
1.713 

> <ROCS_FitColorTversky>
0.722 

> <ROCS_FitTverskyCombo>
2.435 

> <ROCS_ColorScore>
-5.271

> <ROCS_Overlap>
1928.426

> <ROCS_Rank>
34                  

$$$$
untitled-dbase-240_10
  -OEChem-11112315393D

 30 32  0     0  0  0  0  0  0999 V2000
    9.6048    7.5386   22.6502 C   0  0  0  0  0  0  0  0  0  0  0  0
    5.9515   11.2837   25.5560 C   0  0  0  0  0  0  0  0  0  0  0  0
   10.7910    8.2239   22.3375 C   0  0  0  0  0  0  0  0  0  0  0  0
    6.5918   12.5285   25.6775 C   0  0  0  0  0  0  0  0  0  0  0  0
    8.5645    8.1771   23.3317 C   0  0  0  0  0  0  0  0  0  0  0  0
    6.5783   10.2131   24.9113 C   0  0  0  0  0  0  0  0  0  0  0  0
   10.9601    9.5617   22.6988 C   0  0  0  0  0  0  0  0  0  0  0  0
    7.8712   12.7281   25.1558 C   0  0  0  0  0  0  0  0  0  0  0  0
    8.7313    9.5047   23.6901 C   0  0  0  0  0  0  0  0  0  0  0  0
    7.8476   10.4105   24.3930 C   0  0  0  0  0  0  0  0  0  0  0  0
    9.9246   10.1915   23.3695 C   0  0  0  0  0  0  0  0  0  0  0  0
    8.4862   11.6658   24.5139 C   0  0  0  0  0  0  0  0  0  0  0  0
   10.4780   13.8662   23.0230 C   0  0  0  0  0  0  0  0  0  0  0  0
    9.8621   11.6215   23.8742 C   0  0  0  0  0  0  0  0  0  0  0  0
   10.5606   14.6853   21.7603 C   0  0  0  0  0  0  0  0  0  0  0  0
   10.0036   12.5784   22.8116 N   0  0  0  0  0  0  0  0  0  0  0  0
   10.8208   14.3191   24.1137 O   0  0  0  0  0  0  0  0  0  0  0  0
   10.8691   13.5789   20.4128 Cl  0  0  0  0  0  0  0  0  0  0  0  0
    9.4966    6.4971   22.3589 H   0  0  0  0  0  0  0  0  0  0  0  0
    4.9555   11.1522   25.9708 H   0  0  0  0  0  0  0  0  0  0  0  0
   11.5858    7.7042   21.8090 H   0  0  0  0  0  0  0  0  0  0  0  0
    6.0839   13.3443   26.1851 H   0  0  0  0  0  0  0  0  0  0  0  0
    7.6556    7.6338   23.5681 H   0  0  0  0  0  0  0  0  0  0  0  0
    6.0718    9.2573   24.8275 H   0  0  0  0  0  0  0  0  0  0  0  0
   11.8779   10.0868   22.4586 H   0  0  0  0  0  0  0  0  0  0  0  0
    8.3638   13.6892   25.2537 H   0  0  0  0  0  0  0  0  0  0  0  0
   10.6370   11.7948   24.6285 H   0  0  0  0  0  0  0  0  0  0  0  0
    9.6395   15.2369   21.5566 H   0  0  0  0  0  0  0  0  0  0  0  0
   11.3905   15.3928   21.8399 H   0  0  0  0  0  0  0  0  0  0  0  0
    9.7456   12.3011   21.8657 H   0  0  0  0  0  0  0  0  0  0  0  0
  1  3  1  0  0  0  0
  1  5  2  0  0  0  0
  2  4  1  0  0  0  0
  2  6  2  0  0  0  0
  3  7  2  0  0  0  0
  4  8  2  0  0  0  0
  5  9  1  0  0  0  0
  6 10  1  0  0  0  0
  7 11  1  0  0  0  0
  8 12  1  0  0  0  0
  9 10  1  0  0  0  0
  9 11  2  0  0  0  0
 10 12  2  0  0  0  0
 11 14  1  0  0  0  0
 12 14  1  0  0  0  0
 13 15  1  0  0  0  0
 13 16  1  0  0  0  0
 13 17  2  0  0  0  0
 14 16  1  0  0  0  0
 15 18  1  0  0  0  0
  1 19  1  0  0  0  0
  2 20  1  0  0  0  0
  3 21  1  0  0  0  0
  4 22  1  0  0  0  0
  5 23  1  0  0  0  0
  6 24  1  0  0  0  0
  7 25  1  0  0  0  0
  8 26  1  0  0  0  0
 14 27  1  0  0  0  0
 15 28  1  0  0  0  0
 15 29  1  0  0  0  0
 16 30  1  0  0  0  0
M  END
> <Catalog ID>
Z199423626

> <MW>
257.061

> <MW (desalted)>
257.715

> <ClogP>
2.897

> <logS>
-4.69

> <HBD>
1

> <HBA>
1

> <TPSA>
29.1

> <RotBonds>
2

> <ROCS_ShapeQuery>
A71EV2A-x0451_0A_A71EV2A-x0310_0A_A71EV2A-x0416_0A_peptide

> <ROCS_TanimotoCombo>
0.474 

> <ROCS_ShapeTanimoto>
0.327 

> <ROCS_ColorTanimoto>
0.148 

> <ROCS_RefTversky>
0.287 

> <ROCS_RefColorTversky>
0.156 

> <ROCS_RefTverskyCombo>
0.442 

> <ROCS_FitTversky>
1.749 

> <ROCS_FitColorTversky>
0.742 

> <ROCS_FitTverskyCombo>
2.491 

> <ROCS_ColorScore>
-4.724

> <ROCS_Overlap>
1988.770

> <ROCS_Rank>
35                  

$$$$
untitled-dbase-829_12
  -OEChem-11112315393D

 27 28  0     1  0  0  0  0  0999 V2000
    6.9428   12.9340   25.9009 C   0  0  0  0  0  0  0  0  0  0  0  0
    6.0663   11.8571   25.7928 C   0  0  0  0  0  0  0  0  0  0  0  0
    8.2198   12.8529   25.3448 C   0  0  0  0  0  0  0  0  0  0  0  0
    6.4638   10.7002   25.1247 C   0  0  0  0  0  0  0  0  0  0  0  0
    8.6335   11.6937   24.6707 C   0  0  0  0  0  0  0  0  0  0  0  0
    7.7380   10.6210   24.5551 C   0  0  0  0  0  0  0  0  0  0  0  0
   10.4405   13.7946   22.9809 C   0  0  0  0  0  0  0  0  0  0  0  0
   10.3740   10.1711   23.7388 C   0  0  0  0  0  0  0  0  0  0  0  0
    9.1872    9.4859   23.0749 C   0  0  0  0  0  0  0  0  0  0  0  0
   10.0211   11.6156   24.0907 C   0  0  1  0  0  0  0  0  0  0  0  0
   10.4934   14.4580   21.6283 C   0  0  0  0  0  0  0  0  0  0  0  0
   10.1104   12.4525   22.9114 N   0  0  0  0  0  0  0  0  0  0  0  0
   10.6877   14.4110   24.0159 O   0  0  0  0  0  0  0  0  0  0  0  0
    8.0438    9.4382   23.9327 O   0  0  0  0  0  0  0  0  0  0  0  0
   11.6861   15.7640   21.7088 Cl  0  0  0  0  0  0  0  0  0  0  0  0
    6.6342   13.8356   26.4219 H   0  0  0  0  0  0  0  0  0  0  0  0
    5.0740   11.9180   26.2300 H   0  0  0  0  0  0  0  0  0  0  0  0
    8.8950   13.6994   25.4451 H   0  0  0  0  0  0  0  0  0  0  0  0
    5.7737    9.8640   25.0474 H   0  0  0  0  0  0  0  0  0  0  0  0
   10.6133    9.6340   24.6665 H   0  0  0  0  0  0  0  0  0  0  0  0
   11.2639   10.1238   23.1010 H   0  0  0  0  0  0  0  0  0  0  0  0
    8.9073    9.9726   22.1330 H   0  0  0  0  0  0  0  0  0  0  0  0
    9.4527    8.4507   22.8351 H   0  0  0  0  0  0  0  0  0  0  0  0
   10.7502   11.9961   24.8013 H   0  0  0  0  0  0  0  0  0  0  0  0
   10.7837   13.7672   20.8329 H   0  0  0  0  0  0  0  0  0  0  0  0
    9.5134   14.8820   21.3931 H   0  0  0  0  0  0  0  0  0  0  0  0
    9.9245   12.0402   22.0030 H   0  0  0  0  0  0  0  0  0  0  0  0
  1  2  1  0  0  0  0
  1  3  2  0  0  0  0
  2  4  2  0  0  0  0
  3  5  1  0  0  0  0
  4  6  1  0  0  0  0
  5  6  2  0  0  0  0
  5 10  1  0  0  0  0
  6 14  1  0  0  0  0
  7 11  1  0  0  0  0
  7 12  1  0  0  0  0
  7 13  2  0  0  0  0
  8  9  1  0  0  0  0
  8 10  1  0  0  0  0
  9 14  1  0  0  0  0
 10 12  1  0  0  0  0
 11 15  1  0  0  0  0
  1 16  1  0  0  0  0
  2 17  1  0  0  0  0
  3 18  1  0  0  0  0
  4 19  1  0  0  0  0
  8 20  1  0  0  0  0
  8 21  1  0  0  0  0
  9 22  1  0  0  0  0
  9 23  1  0  0  0  0
 10 24  1  0  0  0  0
 11 25  1  0  0  0  0
 11 26  1  0  0  0  0
 12 27  1  0  0  0  0
M  END
> <Catalog ID>
Z89284917

> <MW>
225.056

> <MW (desalted)>
225.671

> <ClogP>
1.427

> <logS>
-2.66

> <HBD>
1

> <HBA>
2

> <TPSA>
38.33

> <RotBonds>
2

> <ROCS_ShapeQuery>
A71EV2A-x0451_0A_A71EV2A-x0310_0A_A71EV2A-x0416_0A_peptide

> <ROCS_TanimotoCombo>
0.474 

> <ROCS_ShapeTanimoto>
0.300 

> <ROCS_ColorTanimoto>
0.174 

> <ROCS_RefTversky>
0.264 

> <ROCS_RefColorTversky>
0.179 

> <ROCS_RefTverskyCombo>
0.443 

> <ROCS_FitTversky>
1.853 

> <ROCS_FitColorTversky>
0.858 

> <ROCS_FitTverskyCombo>
2.711 

> <ROCS_ColorScore>
-5.441

> <ROCS_Overlap>
1827.270

> <ROCS_Rank>
36                  

$$$$
untitled-dbase-341_26
  -OEChem-11112315393D

 33 34  0     0  0  0  0  0  0999 V2000
    7.1827   10.4355   25.0244 C   0  0  0  0  0  0  0  0  0  0  0  0
    8.0232    9.6556   24.2303 C   0  0  0  0  0  0  0  0  0  0  0  0
    6.2685   12.5799   27.2630 C   0  0  0  0  0  0  0  0  0  0  0  0
    8.3892   12.4184   24.3541 C   0  0  0  0  0  0  0  0  0  0  0  0
    5.3271   13.6009   27.4935 C   0  0  0  0  0  0  0  0  0  0  0  0
    7.3656   11.8170   25.0863 C   0  0  0  0  0  0  0  0  0  0  0  0
    9.0468   10.2570   23.4981 C   0  0  0  0  0  0  0  0  0  0  0  0
    9.2299   11.6385   23.5600 C   0  0  0  0  0  0  0  0  0  0  0  0
    6.4968   12.6228   25.9092 C   0  0  0  0  0  0  0  0  0  0  0  0
   11.6516   14.5426   21.0857 C   0  0  0  0  0  0  0  0  0  0  0  0
   11.9703   13.7609   22.1222 C   0  0  0  0  0  0  0  0  0  0  0  0
   10.9530   13.4251   23.1603 C   0  0  0  0  0  0  0  0  0  0  0  0
    9.9305    9.3970   22.6539 C   0  0  0  0  0  0  0  0  0  0  0  0
    5.5921   14.0685   24.0584 C   0  0  0  0  0  0  0  0  0  0  0  0
    4.9812   14.2453   26.3759 N   0  0  0  0  0  0  0  0  0  0  0  0
    5.7092   13.6278   25.4300 N   0  0  0  0  0  0  0  0  0  0  0  0
   10.2504   12.2584   22.8343 N   0  0  0  0  0  0  0  0  0  0  0  0
   10.8023   14.1276   24.1529 O   0  0  0  0  0  0  0  0  0  0  0  0
    6.3890    9.9517   25.5888 H   0  0  0  0  0  0  0  0  0  0  0  0
    7.8719    8.5802   24.1868 H   0  0  0  0  0  0  0  0  0  0  0  0
    6.7154   11.9095   27.9831 H   0  0  0  0  0  0  0  0  0  0  0  0
    8.5355   13.4961   24.4003 H   0  0  0  0  0  0  0  0  0  0  0  0
    4.8788   13.9020   28.4294 H   0  0  0  0  0  0  0  0  0  0  0  0
   12.3639   14.8079   20.3124 H   0  0  0  0  0  0  0  0  0  0  0  0
   10.6458   14.9390   20.9945 H   0  0  0  0  0  0  0  0  0  0  0  0
   12.9755   13.3640   22.2139 H   0  0  0  0  0  0  0  0  0  0  0  0
    9.5141    9.3011   21.6448 H   0  0  0  0  0  0  0  0  0  0  0  0
   10.9392    9.8207   22.5779 H   0  0  0  0  0  0  0  0  0  0  0  0
   10.0364    8.3945   23.0861 H   0  0  0  0  0  0  0  0  0  0  0  0
    4.7915   13.4930   23.5864 H   0  0  0  0  0  0  0  0  0  0  0  0
    5.3584   15.1366   24.0378 H   0  0  0  0  0  0  0  0  0  0  0  0
    6.5413   13.8997   23.5423 H   0  0  0  0  0  0  0  0  0  0  0  0
   10.5178   11.8028   21.9544 H   0  0  0  0  0  0  0  0  0  0  0  0
  1  2  2  0  0  0  0
  1  6  1  0  0  0  0
  2  7  1  0  0  0  0
  3  5  1  0  0  0  0
  3  9  2  0  0  0  0
  4  6  2  0  0  0  0
  4  8  1  0  0  0  0
  5 15  2  0  0  0  0
  6  9  1  0  0  0  0
  7  8  2  0  0  0  0
  7 13  1  0  0  0  0
  8 17  1  0  0  0  0
  9 16  1  0  0  0  0
 10 11  2  0  0  0  0
 11 12  1  0  0  0  0
 12 17  1  0  0  0  0
 12 18  2  0  0  0  0
 14 16  1  0  0  0  0
 15 16  1  0  0  0  0
  1 19  1  0  0  0  0
  2 20  1  0  0  0  0
  3 21  1  0  0  0  0
  4 22  1  0  0  0  0
  5 23  1  0  0  0  0
 10 24  1  0  0  0  0
 10 25  1  0  0  0  0
 11 26  1  0  0  0  0
 13 27  1  0  0  0  0
 13 28  1  0  0  0  0
 13 29  1  0  0  0  0
 14 30  1  0  0  0  0
 14 31  1  0  0  0  0
 14 32  1  0  0  0  0
 17 33  1  0  0  0  0
M  END
> <Catalog ID>
Z2867490836

> <MW>
241.288

> <MW (desalted)>
241.288

> <ClogP>
1.559

> <logS>
-2.954

> <HBD>
1

> <HBA>
2

> <TPSA>
46.92

> <RotBonds>
3

> <ROCS_ShapeQuery>
A71EV2A-x0451_0A_A71EV2A-x0310_0A_A71EV2A-x0416_0A_peptide

> <ROCS_TanimotoCombo>
0.474 

> <ROCS_ShapeTanimoto>
0.316 

> <ROCS_ColorTanimoto>
0.158 

> <ROCS_RefTversky>
0.280 

> <ROCS_RefColorTversky>
0.169 

> <ROCS_RefTverskyCombo>
0.448 

> <ROCS_FitTversky>
1.708 

> <ROCS_FitColorTversky>
0.705 

> <ROCS_FitTverskyCombo>
2.413 

> <ROCS_ColorScore>
-5.136

> <ROCS_Overlap>
1939.298

> <ROCS_Rank>
37                  

$$$$
untitled-dbase-473_98
  -OEChem-11112315393D

 35 35  0     1  0  0  0  0  0999 V2000
   12.0931   15.2689   22.0479 C   0  0  0  0  0  0  0  0  0  0  0  0
   10.7412   13.5138   23.1678 C   0  0  0  0  0  0  0  0  0  0  0  0
    8.2569    9.2821   24.2021 C   0  0  0  0  0  0  0  0  0  0  0  0
    7.0349   10.0255   24.7362 C   0  0  0  0  0  0  0  0  0  0  0  0
    9.0604   10.1257   23.2172 C   0  0  0  0  0  0  0  0  0  0  0  0
    7.3722   11.4088   25.3187 C   0  0  2  0  0  0  0  0  0  0  0  0
    8.2009   12.2652   24.3267 C   0  0  1  0  0  0  0  0  0  0  0  0
    9.4344   11.4883   23.8088 C   0  0  2  0  0  0  0  0  0  0  0  0
    8.0798   11.2771   26.6734 C   0  0  0  0  0  0  0  0  0  0  0  0
    7.3048   12.7763   23.1853 C   0  0  0  0  0  0  0  0  0  0  0  0
   12.7336   15.5667   20.7160 C   0  0  0  0  0  0  0  0  0  0  0  0
   11.4404   14.0377   22.0698 N   0  0  0  0  0  0  0  0  0  0  0  0
   10.2057   12.2646   22.8651 N   0  0  0  0  0  0  0  0  0  0  0  0
   12.1467   16.0640   22.9841 O   0  0  0  0  0  0  0  0  0  0  0  0
   10.6184   14.0813   24.2521 O   0  0  0  0  0  0  0  0  0  0  0  0
   11.7491   14.8037   19.4577 Cl  0  0  0  0  0  0  0  0  0  0  0  0
    8.9011    8.9898   25.0427 H   0  0  0  0  0  0  0  0  0  0  0  0
    7.9354    8.3482   23.7195 H   0  0  0  0  0  0  0  0  0  0  0  0
    6.3012   10.1321   23.9228 H   0  0  0  0  0  0  0  0  0  0  0  0
    6.5493    9.4072   25.5078 H   0  0  0  0  0  0  0  0  0  0  0  0
    9.9782    9.5890   22.9537 H   0  0  0  0  0  0  0  0  0  0  0  0
    8.4954   10.2538   22.2887 H   0  0  0  0  0  0  0  0  0  0  0  0
    6.4156   11.9386   25.5140 H   0  0  0  0  0  0  0  0  0  0  0  0
    8.5608   13.1414   24.8669 H   0  0  0  0  0  0  0  0  0  0  0  0
   10.1182   11.3165   24.6584 H   0  0  0  0  0  0  0  0  0  0  0  0
    9.0282   10.7624   26.5406 H   0  0  0  0  0  0  0  0  0  0  0  0
    7.4543   10.7090   27.3574 H   0  0  0  0  0  0  0  0  0  0  0  0
    8.2611   12.2659   27.0874 H   0  0  0  0  0  0  0  0  0  0  0  0
    6.9228   11.9316   22.6185 H   0  0  0  0  0  0  0  0  0  0  0  0
    7.8850   13.4195   22.5295 H   0  0  0  0  0  0  0  0  0  0  0  0
    6.4735   13.3387   23.6014 H   0  0  0  0  0  0  0  0  0  0  0  0
   12.7473   16.6479   20.5534 H   0  0  0  0  0  0  0  0  0  0  0  0
   13.7543   15.1827   20.6441 H   0  0  0  0  0  0  0  0  0  0  0  0
   11.4735   13.4752   21.2242 H   0  0  0  0  0  0  0  0  0  0  0  0
   10.3252   11.8934   21.9289 H   0  0  0  0  0  0  0  0  0  0  0  0
  1 11  1  0  0  0  0
  1 12  1  0  0  0  0
  1 14  2  0  0  0  0
  2 12  1  0  0  0  0
  2 13  1  0  0  0  0
  2 15  2  0  0  0  0
  3  4  1  0  0  0  0
  3  5  1  0  0  0  0
  4  6  1  0  0  0  0
  5  8  1  0  0  0  0
  6  7  1  0  0  0  0
  6  9  1  0  0  0  0
  7  8  1  0  0  0  0
  7 10  1  0  0  0  0
  8 13  1  0  0  0  0
 11 16  1  0  0  0  0
  3 17  1  0  0  0  0
  3 18  1  0  0  0  0
  4 19  1  0  0  0  0
  4 20  1  0  0  0  0
  5 21  1  0  0  0  0
  5 22  1  0  0  0  0
  6 23  1  0  0  0  0
  7 24  1  0  0  0  0
  8 25  1  0  0  0  0
  9 26  1  0  0  0  0
  9 27  1  0  0  0  0
  9 28  1  0  0  0  0
 10 29  1  0  0  0  0
 10 30  1  0  0  0  0
 10 31  1  0  0  0  0
 11 32  1  0  0  0  0
 11 33  1  0  0  0  0
 12 34  1  0  0  0  0
 13 35  1  0  0  0  0
M  END
> <Catalog ID>
Z56995290

> <MW>
246.114

> <MW (desalted)>
246.734

> <ClogP>
3.054

> <logS>
-3.25

> <HBD>
2

> <HBA>
2

> <TPSA>
58.2

> <RotBonds>
2

> <ROCS_ShapeQuery>
A71EV2A-x0451_0A_A71EV2A-x0310_0A_A71EV2A-x0416_0A_peptide

> <ROCS_TanimotoCombo>
0.474 

> <ROCS_ShapeTanimoto>
0.287 

> <ROCS_ColorTanimoto>
0.187 

> <ROCS_RefTversky>
0.255 

> <ROCS_RefColorTversky>
0.191 

> <ROCS_RefTverskyCombo>
0.445 

> <ROCS_FitTversky>
1.784 

> <ROCS_FitColorTversky>
0.912 

> <ROCS_FitTverskyCombo>
2.696 

> <ROCS_ColorScore>
-5.789

> <ROCS_Overlap>
1764.051

> <ROCS_Rank>
38                  

$$$$
untitled-dbase-834_414
  -OEChem-11112315393D

 31 32  0     1  0  0  0  0  0999 V2000
    6.3243   11.3779   26.5249 C   0  0  0  0  0  0  0  0  0  0  0  0
    6.4954   12.6974   26.1057 C   0  0  0  0  0  0  0  0  0  0  0  0
    6.9969   10.3444   25.8728 C   0  0  0  0  0  0  0  0  0  0  0  0
    7.3475   12.9879   25.0399 C   0  0  0  0  0  0  0  0  0  0  0  0
    7.8363   10.6335   24.7967 C   0  0  0  0  0  0  0  0  0  0  0  0
    8.0282   11.9560   24.3927 C   0  0  0  0  0  0  0  0  0  0  0  0
   11.4709   13.5887   23.4759 C   0  0  0  0  0  0  0  0  0  0  0  0
    8.9358    9.9278   22.8892 C   0  0  0  0  0  0  0  0  0  0  0  0
    9.7074   11.2418   22.9143 C   0  0  2  0  0  0  0  0  0  0  0  0
   13.1935   11.8220   22.8646 C   0  0  0  0  0  0  0  0  0  0  0  0
   12.0772   14.5592   22.4821 C   0  0  0  0  0  0  0  0  0  0  0  0
   10.9847   11.1820   23.7501 C   0  0  0  0  0  0  0  0  0  0  0  0
   11.8685   12.2331   23.3659 N   0  0  0  0  0  0  0  0  0  0  0  0
   10.6713   13.9662   24.3360 O   0  0  0  0  0  0  0  0  0  0  0  0
    8.4624    9.5768   24.1905 O   0  0  0  0  0  0  0  0  0  0  0  0
    8.8734   12.3129   23.3759 O   0  0  0  0  0  0  0  0  0  0  0  0
   11.6386   14.1158   20.8204 Cl  0  0  0  0  0  0  0  0  0  0  0  0
    5.6697   11.1555   27.3625 H   0  0  0  0  0  0  0  0  0  0  0  0
    5.9608   13.4993   26.6066 H   0  0  0  0  0  0  0  0  0  0  0  0
    6.8697    9.3212   26.2153 H   0  0  0  0  0  0  0  0  0  0  0  0
    7.4664   14.0179   24.7135 H   0  0  0  0  0  0  0  0  0  0  0  0
    8.0580   10.0081   22.2314 H   0  0  0  0  0  0  0  0  0  0  0  0
    9.5549    9.0976   22.5103 H   0  0  0  0  0  0  0  0  0  0  0  0
   10.0046   11.5100   21.8553 H   0  0  0  0  0  0  0  0  0  0  0  0
   13.8986   11.7513   23.7060 H   0  0  0  0  0  0  0  0  0  0  0  0
   13.1111   10.8419   22.3721 H   0  0  0  0  0  0  0  0  0  0  0  0
   13.5590   12.5661   22.1417 H   0  0  0  0  0  0  0  0  0  0  0  0
   11.6993   15.5686   22.6625 H   0  0  0  0  0  0  0  0  0  0  0  0
   13.1676   14.5367   22.5514 H   0  0  0  0  0  0  0  0  0  0  0  0
   10.6977   11.2902   24.7964 H   0  0  0  0  0  0  0  0  0  0  0  0
   11.4484   10.2114   23.5720 H   0  0  0  0  0  0  0  0  0  0  0  0
  1  2  1  0  0  0  0
  1  3  2  0  0  0  0
  2  4  2  0  0  0  0
  3  5  1  0  0  0  0
  4  6  1  0  0  0  0
  5  6  2  0  0  0  0
  5 15  1  0  0  0  0
  6 16  1  0  0  0  0
  7 11  1  0  0  0  0
  7 13  1  0  0  0  0
  7 14  2  0  0  0  0
  8  9  1  0  0  0  0
  8 15  1  0  0  0  0
  9 12  1  0  0  0  0
  9 16  1  0  0  0  0
 10 13  1  0  0  0  0
 11 17  1  0  0  0  0
 12 13  1  0  0  0  0
  1 18  1  0  0  0  0
  2 19  1  0  0  0  0
  3 20  1  0  0  0  0
  4 21  1  0  0  0  0
  8 22  1  0  0  0  0
  8 23  1  0  0  0  0
  9 24  1  0  0  0  0
 10 25  1  0  0  0  0
 10 26  1  0  0  0  0
 10 27  1  0  0  0  0
 11 28  1  0  0  0  0
 11 29  1  0  0  0  0
 12 30  1  0  0  0  0
 12 31  1  0  0  0  0
M  END
> <Catalog ID>
Z107741796

> <MW>
255.066

> <MW (desalted)>
255.697

> <ClogP>
2.047

> <logS>
-2.9

> <HBD>
0

> <HBA>
3

> <TPSA>
38.77

> <RotBonds>
3

> <ROCS_ShapeQuery>
A71EV2A-x0451_0A_A71EV2A-x0310_0A_A71EV2A-x0416_0A_peptide

> <ROCS_TanimotoCombo>
0.473 

> <ROCS_ShapeTanimoto>
0.317 

> <ROCS_ColorTanimoto>
0.157 

> <ROCS_RefTversky>
0.278 

> <ROCS_RefColorTversky>
0.164 

> <ROCS_RefTverskyCombo>
0.441 

> <ROCS_FitTversky>
1.793 

> <ROCS_FitColorTversky>
0.784 

> <ROCS_FitTverskyCombo>
2.577 

> <ROCS_ColorScore>
-4.972

> <ROCS_Overlap>
1925.641

> <ROCS_Rank>
39                  

$$$$
untitled-dbase-544_23
  -OEChem-11112315393D

 30 30  0     0  0  0  0  0  0999 V2000
    7.7002    9.8826   24.4704 C   0  0  0  0  0  0  0  0  0  0  0  0
    8.5628   12.0967   24.0335 C   0  0  0  0  0  0  0  0  0  0  0  0
    8.7441    9.3295   23.7289 C   0  0  0  0  0  0  0  0  0  0  0  0
    9.6975   10.1600   23.1397 C   0  0  0  0  0  0  0  0  0  0  0  0
    9.6068   11.5436   23.2920 C   0  0  0  0  0  0  0  0  0  0  0  0
    7.6094   11.2662   24.6226 C   0  0  0  0  0  0  0  0  0  0  0  0
   10.9486   13.6303   23.2022 C   0  0  0  0  0  0  0  0  0  0  0  0
    8.8186    7.8448   23.5821 C   0  0  0  0  0  0  0  0  0  0  0  0
   10.8160    9.5619   22.3449 C   0  0  0  0  0  0  0  0  0  0  0  0
   11.9891   14.2760   22.3169 C   0  0  0  0  0  0  0  0  0  0  0  0
    6.6577   13.6245   25.4209 N   0  0  0  0  0  0  0  0  0  0  0  0
   10.5510   12.3938   22.7103 N   0  0  0  0  0  0  0  0  0  0  0  0
   10.5455   14.2115   24.2062 O   0  0  0  0  0  0  0  0  0  0  0  0
    5.0520   11.6885   24.8559 O   0  0  0  0  0  0  0  0  0  0  0  0
    6.4590   11.5546   26.9416 O   0  0  0  0  0  0  0  0  0  0  0  0
    6.3027   11.9582   25.5512 S   0  0  0  0  0  0  0  0  0  0  0  0
   11.1396   15.2573   21.1124 Cl  0  0  0  0  0  0  0  0  0  0  0  0
    6.9570    9.2346   24.9295 H   0  0  0  0  0  0  0  0  0  0  0  0
    8.4908   13.1756   24.1531 H   0  0  0  0  0  0  0  0  0  0  0  0
    8.2626    7.5228   22.6942 H   0  0  0  0  0  0  0  0  0  0  0  0
    9.8580    7.5080   23.4853 H   0  0  0  0  0  0  0  0  0  0  0  0
    8.3992    7.3386   24.4603 H   0  0  0  0  0  0  0  0  0  0  0  0
   10.5227    9.4676   21.2941 H   0  0  0  0  0  0  0  0  0  0  0  0
   11.7167   10.1830   22.4049 H   0  0  0  0  0  0  0  0  0  0  0  0
   11.0828    8.5700   22.7267 H   0  0  0  0  0  0  0  0  0  0  0  0
   12.6161   13.5460   21.7987 H   0  0  0  0  0  0  0  0  0  0  0  0
   12.6287   14.9258   22.9210 H   0  0  0  0  0  0  0  0  0  0  0  0
    6.0464   14.2028   24.8314 H   0  0  0  0  0  0  0  0  0  0  0  0
    7.0089   14.1092   26.2557 H   0  0  0  0  0  0  0  0  0  0  0  0
   10.9873   12.0780   21.8472 H   0  0  0  0  0  0  0  0  0  0  0  0
  1  3  1  0  0  0  0
  1  6  2  0  0  0  0
  2  5  2  0  0  0  0
  2  6  1  0  0  0  0
  3  4  2  0  0  0  0
  3  8  1  0  0  0  0
  4  5  1  0  0  0  0
  4  9  1  0  0  0  0
  5 12  1  0  0  0  0
  6 16  1  0  0  0  0
  7 10  1  0  0  0  0
  7 12  1  0  0  0  0
  7 13  2  0  0  0  0
 10 17  1  0  0  0  0
 11 16  1  0  0  0  0
 14 16  2  0  0  0  0
 15 16  2  0  0  0  0
  1 18  1  0  0  0  0
  2 19  1  0  0  0  0
  8 20  1  0  0  0  0
  8 21  1  0  0  0  0
  8 22  1  0  0  0  0
  9 23  1  0  0  0  0
  9 24  1  0  0  0  0
  9 25  1  0  0  0  0
 10 26  1  0  0  0  0
 10 27  1  0  0  0  0
 11 28  1  0  0  0  0
 11 29  1  0  0  0  0
 12 30  1  0  0  0  0
M  END
> <Catalog ID>
Z119989848

> <MW>
276.034

> <MW (desalted)>
276.74

> <ClogP>
0.557

> <logS>
-2.89

> <HBD>
2

> <HBA>
3

> <TPSA>
89.26

> <RotBonds>
3

> <ROCS_ShapeQuery>
A71EV2A-x0451_0A_A71EV2A-x0310_0A_A71EV2A-x0416_0A_peptide

> <ROCS_TanimotoCombo>
0.472 

> <ROCS_ShapeTanimoto>
0.320 

> <ROCS_ColorTanimoto>
0.152 

> <ROCS_RefTversky>
0.279 

> <ROCS_RefColorTversky>
0.164 

> <ROCS_RefTverskyCombo>
0.443 

> <ROCS_FitTversky>
1.865 

> <ROCS_FitColorTversky>
0.684 

> <ROCS_FitTverskyCombo>
2.549 

> <ROCS_ColorScore>
-4.986

> <ROCS_Overlap>
1932.040

> <ROCS_Rank>
40                  

$$$$
untitled-dbase-73_110
  -OEChem-11112315393D

 26 27  0     0  0  0  0  0  0999 V2000
    9.3267    9.9747   23.3529 C   0  0  0  0  0  0  0  0  0  0  0  0
    9.7447   11.2514   23.7575 C   0  0  0  0  0  0  0  0  0  0  0  0
    8.7280   11.7045   24.5615 C   0  0  0  0  0  0  0  0  0  0  0  0
    8.4879   12.8988   25.2975 C   0  0  0  0  0  0  0  0  0  0  0  0
    7.3503   13.0254   26.0056 C   0  0  0  0  0  0  0  0  0  0  0  0
    6.3570   11.9669   26.0370 C   0  0  0  0  0  0  0  0  0  0  0  0
    6.5794   10.8390   25.3442 C   0  0  0  0  0  0  0  0  0  0  0  0
   11.3881   15.2825   20.6678 C   0  0  0  0  0  0  0  0  0  0  0  0
   10.4173   15.1805   21.5807 C   0  0  0  0  0  0  0  0  0  0  0  0
   10.5925   14.3068   22.7715 C   0  0  0  0  0  0  0  0  0  0  0  0
   10.9939   11.9415   23.3955 C   0  0  0  0  0  0  0  0  0  0  0  0
    8.1393    9.6284   23.8519 N   0  0  0  0  0  0  0  0  0  0  0  0
    7.7588   10.6964   24.6042 N   0  0  0  0  0  0  0  0  0  0  0  0
   10.7994   12.9876   22.4131 N   0  0  0  0  0  0  0  0  0  0  0  0
   10.5496   14.7386   23.9191 O   0  0  0  0  0  0  0  0  0  0  0  0
    9.8393    9.2735   22.7098 H   0  0  0  0  0  0  0  0  0  0  0  0
    9.2216   13.6975   25.2834 H   0  0  0  0  0  0  0  0  0  0  0  0
    7.1476   13.9263   26.5745 H   0  0  0  0  0  0  0  0  0  0  0  0
    5.4557   12.1101   26.6209 H   0  0  0  0  0  0  0  0  0  0  0  0
    5.8786   10.0132   25.3272 H   0  0  0  0  0  0  0  0  0  0  0  0
   11.2525   15.9210   19.8011 H   0  0  0  0  0  0  0  0  0  0  0  0
   12.3275   14.7472   20.7514 H   0  0  0  0  0  0  0  0  0  0  0  0
    9.4923   15.7337   21.4593 H   0  0  0  0  0  0  0  0  0  0  0  0
   11.4746   12.4163   24.2712 H   0  0  0  0  0  0  0  0  0  0  0  0
   11.7496   11.2529   22.9740 H   0  0  0  0  0  0  0  0  0  0  0  0
   10.7884   12.7137   21.4365 H   0  0  0  0  0  0  0  0  0  0  0  0
  1  2  1  0  0  0  0
  1 12  2  0  0  0  0
  2  3  2  0  0  0  0
  2 11  1  0  0  0  0
  3  4  1  0  0  0  0
  3 13  1  0  0  0  0
  4  5  2  0  0  0  0
  5  6  1  0  0  0  0
  6  7  2  0  0  0  0
  7 13  1  0  0  0  0
  8  9  2  0  0  0  0
  9 10  1  0  0  0  0
 10 14  1  0  0  0  0
 10 15  2  0  0  0  0
 11 14  1  0  0  0  0
 12 13  1  0  0  0  0
  1 16  1  0  0  0  0
  4 17  1  0  0  0  0
  5 18  1  0  0  0  0
  6 19  1  0  0  0  0
  7 20  1  0  0  0  0
  8 21  1  0  0  0  0
  8 22  1  0  0  0  0
  9 23  1  0  0  0  0
 11 24  1  0  0  0  0
 11 25  1  0  0  0  0
 14 26  1  0  0  0  0
M  END
> <Catalog ID>
Z2737383519

> <MW>
201.225

> <MW (desalted)>
201.225

> <ClogP>
0.525

> <logS>
-1.57

> <HBD>
1

> <HBA>
2

> <TPSA>
46.4

> <RotBonds>
3

> <ROCS_ShapeQuery>
A71EV2A-x0451_0A_A71EV2A-x0310_0A_A71EV2A-x0416_0A_peptide

> <ROCS_TanimotoCombo>
0.472 

> <ROCS_ShapeTanimoto>
0.300 

> <ROCS_ColorTanimoto>
0.172 

> <ROCS_RefTversky>
0.264 

> <ROCS_RefColorTversky>
0.182 

> <ROCS_RefTverskyCombo>
0.447 

> <ROCS_FitTversky>
1.820 

> <ROCS_FitColorTversky>
0.759 

> <ROCS_FitTverskyCombo>
2.579 

> <ROCS_ColorScore>
-5.545

> <ROCS_Overlap>
1831.554

> <ROCS_Rank>
41                  

$$$$
untitled-dbase-444_32
  -OEChem-11112315393D

 24 25  0     0  0  0  0  0  0999 V2000
    9.7922    9.2799   23.6601 C   0  0  0  0  0  0  0  0  0  0  0  0
    6.7625   13.0820   24.9105 C   0  0  0  0  0  0  0  0  0  0  0  0
    7.9035   12.9908   24.1265 C   0  0  0  0  0  0  0  0  0  0  0  0
    8.6417    9.4050   24.4427 C   0  0  0  0  0  0  0  0  0  0  0  0
   10.3247   10.3944   23.0241 C   0  0  0  0  0  0  0  0  0  0  0  0
    6.3028   11.9246   25.5053 C   0  0  0  0  0  0  0  0  0  0  0  0
    8.5477   11.7574   23.9599 C   0  0  0  0  0  0  0  0  0  0  0  0
    8.0015   10.6301   24.6087 C   0  0  0  0  0  0  0  0  0  0  0  0
    9.7048   11.6318   23.1727 C   0  0  0  0  0  0  0  0  0  0  0  0
   10.7526   13.8817   23.1209 C   0  0  0  0  0  0  0  0  0  0  0  0
   11.2987   14.8588   22.1057 C   0  0  0  0  0  0  0  0  0  0  0  0
    6.8943   10.7156   25.3701 N   0  0  0  0  0  0  0  0  0  0  0  0
   10.2738   12.7291   22.5151 N   0  0  0  0  0  0  0  0  0  0  0  0
   10.7542   14.1670   24.3153 O   0  0  0  0  0  0  0  0  0  0  0  0
   10.3956   14.6336   20.5993 Cl  0  0  0  0  0  0  0  0  0  0  0  0
   10.2693    8.3103   23.5501 H   0  0  0  0  0  0  0  0  0  0  0  0
    6.2517   14.0275   25.0494 H   0  0  0  0  0  0  0  0  0  0  0  0
    8.2740   13.8971   23.6538 H   0  0  0  0  0  0  0  0  0  0  0  0
    8.2442    8.5166   24.9306 H   0  0  0  0  0  0  0  0  0  0  0  0
   11.2202   10.2868   22.4177 H   0  0  0  0  0  0  0  0  0  0  0  0
    5.4153   11.9349   26.1297 H   0  0  0  0  0  0  0  0  0  0  0  0
   12.3627   14.7102   21.9049 H   0  0  0  0  0  0  0  0  0  0  0  0
   11.1460   15.8805   22.4649 H   0  0  0  0  0  0  0  0  0  0  0  0
   10.3423   12.6765   21.5026 H   0  0  0  0  0  0  0  0  0  0  0  0
  1  4  1  0  0  0  0
  1  5  2  0  0  0  0
  2  3  2  0  0  0  0
  2  6  1  0  0  0  0
  3  7  1  0  0  0  0
  4  8  2  0  0  0  0
  5  9  1  0  0  0  0
  6 12  2  0  0  0  0
  7  8  1  0  0  0  0
  7  9  2  0  0  0  0
  8 12  1  0  0  0  0
  9 13  1  0  0  0  0
 10 11  1  0  0  0  0
 10 13  1  0  0  0  0
 10 14  2  0  0  0  0
 11 15  1  0  0  0  0
  1 16  1  0  0  0  0
  2 17  1  0  0  0  0
  3 18  1  0  0  0  0
  4 19  1  0  0  0  0
  5 20  1  0  0  0  0
  6 21  1  0  0  0  0
 11 22  1  0  0  0  0
 11 23  1  0  0  0  0
 13 24  1  0  0  0  0
M  END
> <Catalog ID>
Z212044048

> <MW>
220.04

> <MW (desalted)>
220.655

> <ClogP>
2.282

> <logS>
-2.83

> <HBD>
1

> <HBA>
2

> <TPSA>
41.99

> <RotBonds>
2

> <ROCS_ShapeQuery>
A71EV2A-x0451_0A_A71EV2A-x0310_0A_A71EV2A-x0416_0A_peptide

> <ROCS_TanimotoCombo>
0.472 

> <ROCS_ShapeTanimoto>
0.308 

> <ROCS_ColorTanimoto>
0.164 

> <ROCS_RefTversky>
0.269 

> <ROCS_RefColorTversky>
0.171 

> <ROCS_RefTverskyCombo>
0.440 

> <ROCS_FitTversky>
1.865 

> <ROCS_FitColorTversky>
0.817 

> <ROCS_FitTverskyCombo>
2.682 

> <ROCS_ColorScore>
-5.183

> <ROCS_Overlap>
1867.089

> <ROCS_Rank>
42                  

$$$$
untitled-dbase-23_34
  -OEChem-11112315393D

 38 39  0     0  0  0  0  0  0999 V2000
   11.4560    7.5166   21.2300 C   0  0  0  0  0  0  0  0  0  0  0  0
   12.0242    8.6957   21.7120 C   0  0  0  0  0  0  0  0  0  0  0  0
   10.1151    7.2320   21.4885 C   0  0  0  0  0  0  0  0  0  0  0  0
   11.2516    9.5903   22.4526 C   0  0  0  0  0  0  0  0  0  0  0  0
    9.3425    8.1266   22.2291 C   0  0  0  0  0  0  0  0  0  0  0  0
    8.3148   12.0110   24.3576 C   0  0  0  0  0  0  0  0  0  0  0  0
    9.9107    9.3058   22.7111 C   0  0  0  0  0  0  0  0  0  0  0  0
    7.6251   10.8497   24.7546 C   0  0  0  0  0  0  0  0  0  0  0  0
    9.2946   11.5554   23.5097 C   0  0  0  0  0  0  0  0  0  0  0  0
   10.8816   13.4412   23.2137 C   0  0  0  0  0  0  0  0  0  0  0  0
    6.0404   12.1659   26.2045 C   0  0  0  0  0  0  0  0  0  0  0  0
    6.7880    9.8713   26.9199 C   0  0  0  0  0  0  0  0  0  0  0  0
    5.1592   10.1416   25.0610 C   0  0  0  0  0  0  0  0  0  0  0  0
   11.9090   13.9165   22.2127 C   0  0  0  0  0  0  0  0  0  0  0  0
    6.4221   10.7547   25.7075 C   0  0  0  0  0  0  0  0  0  0  0  0
    8.1242    9.7399   24.2040 N   0  0  0  0  0  0  0  0  0  0  0  0
    9.1380   10.2017   23.4523 N   0  0  0  0  0  0  0  0  0  0  0  0
   10.2629   12.2413   22.8245 N   0  0  0  0  0  0  0  0  0  0  0  0
   10.6541   14.0998   24.2249 O   0  0  0  0  0  0  0  0  0  0  0  0
   11.0844   14.9668   21.0498 Cl  0  0  0  0  0  0  0  0  0  0  0  0
   12.0566    6.8206   20.6519 H   0  0  0  0  0  0  0  0  0  0  0  0
   13.0678    8.9181   21.5097 H   0  0  0  0  0  0  0  0  0  0  0  0
    9.6730    6.3142   21.1116 H   0  0  0  0  0  0  0  0  0  0  0  0
   11.7066   10.5063   22.8217 H   0  0  0  0  0  0  0  0  0  0  0  0
    8.2984    7.8928   22.4226 H   0  0  0  0  0  0  0  0  0  0  0  0
    8.1270   13.0353   24.6464 H   0  0  0  0  0  0  0  0  0  0  0  0
    5.1835   12.1263   26.8871 H   0  0  0  0  0  0  0  0  0  0  0  0
    6.8596   12.6501   26.7473 H   0  0  0  0  0  0  0  0  0  0  0  0
    5.7696   12.8193   25.3665 H   0  0  0  0  0  0  0  0  0  0  0  0
    5.9579    9.7749   27.6282 H   0  0  0  0  0  0  0  0  0  0  0  0
    7.0577    8.8570   26.6029 H   0  0  0  0  0  0  0  0  0  0  0  0
    7.6415   10.2876   27.4680 H   0  0  0  0  0  0  0  0  0  0  0  0
    4.3310   10.0953   25.7784 H   0  0  0  0  0  0  0  0  0  0  0  0
    4.8129   10.7368   24.2080 H   0  0  0  0  0  0  0  0  0  0  0  0
    5.3407    9.1182   24.7125 H   0  0  0  0  0  0  0  0  0  0  0  0
   12.3840   13.0947   21.6709 H   0  0  0  0  0  0  0  0  0  0  0  0
   12.6817   14.4926   22.7295 H   0  0  0  0  0  0  0  0  0  0  0  0
   10.5695   11.8344   21.9300 H   0  0  0  0  0  0  0  0  0  0  0  0
  1  2  1  0  0  0  0
  1  3  2  0  0  0  0
  2  4  2  0  0  0  0
  3  5  1  0  0  0  0
  4  7  1  0  0  0  0
  5  7  2  0  0  0  0
  6  8  1  0  0  0  0
  6  9  2  0  0  0  0
  7 17  1  0  0  0  0
  8 15  1  0  0  0  0
  8 16  2  0  0  0  0
  9 17  1  0  0  0  0
  9 18  1  0  0  0  0
 10 14  1  0  0  0  0
 10 18  1  0  0  0  0
 10 19  2  0  0  0  0
 11 15  1  0  0  0  0
 12 15  1  0  0  0  0
 13 15  1  0  0  0  0
 14 20  1  0  0  0  0
 16 17  1  0  0  0  0
  1 21  1  0  0  0  0
  2 22  1  0  0  0  0
  3 23  1  0  0  0  0
  4 24  1  0  0  0  0
  5 25  1  0  0  0  0
  6 26  1  0  0  0  0
 11 27  1  0  0  0  0
 11 28  1  0  0  0  0
 11 29  1  0  0  0  0
 12 30  1  0  0  0  0
 12 31  1  0  0  0  0
 12 32  1  0  0  0  0
 13 33  1  0  0  0  0
 13 34  1  0  0  0  0
 13 35  1  0  0  0  0
 14 36  1  0  0  0  0
 14 37  1  0  0  0  0
 18 38  1  0  0  0  0
M  END
> <Catalog ID>
Z56914798

> <MW>
291.114

> <MW (desalted)>
291.776

> <ClogP>
3.831

> <logS>
-3.74

> <HBD>
1

> <HBA>
2

> <TPSA>
46.92

> <RotBonds>
4

> <ROCS_ShapeQuery>
A71EV2A-x0451_0A_A71EV2A-x0310_0A_A71EV2A-x0416_0A_peptide

> <ROCS_TanimotoCombo>
0.472 

> <ROCS_ShapeTanimoto>
0.308 

> <ROCS_ColorTanimoto>
0.165 

> <ROCS_RefTversky>
0.276 

> <ROCS_RefColorTversky>
0.175 

> <ROCS_RefTverskyCombo>
0.451 

> <ROCS_FitTversky>
1.592 

> <ROCS_FitColorTversky>
0.731 

> <ROCS_FitTverskyCombo>
2.324 

> <ROCS_ColorScore>
-5.327

> <ROCS_Overlap>
1915.545

> <ROCS_Rank>
43                  

$$$$
untitled-dbase-403_212
  -OEChem-11112315393D

 28 29  0     1  0  0  0  0  0999 V2000
    6.1766   10.2114   25.6061 C   0  0  0  0  0  0  0  0  0  0  0  0
    6.2765   11.5494   25.9960 C   0  0  0  0  0  0  0  0  0  0  0  0
    7.1040    9.6451   24.7207 C   0  0  0  0  0  0  0  0  0  0  0  0
    7.3031   12.3693   25.5179 C   0  0  0  0  0  0  0  0  0  0  0  0
    9.2435   10.2663   23.3476 C   0  0  0  0  0  0  0  0  0  0  0  0
    8.1448   10.4513   24.2276 C   0  0  0  0  0  0  0  0  0  0  0  0
    8.2097   11.7784   24.6397 C   0  0  0  0  0  0  0  0  0  0  0  0
    9.8962   11.4756   23.2827 C   0  0  0  0  0  0  0  0  0  0  0  0
   10.8287   14.3507   23.0376 C   0  0  0  0  0  0  0  0  0  0  0  0
   12.4103   11.7381   23.3320 C   0  0  0  0  0  0  0  0  0  0  0  0
   10.7794   15.7036   22.3747 C   0  0  0  0  0  0  0  0  0  0  0  0
   11.0887   11.9334   22.5565 C   0  0  2  0  0  0  0  0  0  0  0  0
   10.9950   13.3289   22.1320 N   0  0  0  0  0  0  0  0  0  0  0  0
   10.7425   14.2225   24.2576 O   0  0  0  0  0  0  0  0  0  0  0  0
    9.2769   12.3994   24.0628 O   0  0  0  0  0  0  0  0  0  0  0  0
   11.7677   15.6274   20.9076 Cl  0  0  0  0  0  0  0  0  0  0  0  0
    5.3672    9.5988   25.9950 H   0  0  0  0  0  0  0  0  0  0  0  0
    5.5426   11.9613   26.6843 H   0  0  0  0  0  0  0  0  0  0  0  0
    7.0133    8.6038   24.4264 H   0  0  0  0  0  0  0  0  0  0  0  0
    7.3870   13.4077   25.8157 H   0  0  0  0  0  0  0  0  0  0  0  0
    9.5227    9.3610   22.8266 H   0  0  0  0  0  0  0  0  0  0  0  0
   12.3651   12.2578   24.2954 H   0  0  0  0  0  0  0  0  0  0  0  0
   12.6199   10.6802   23.5267 H   0  0  0  0  0  0  0  0  0  0  0  0
   13.2636   12.1374   22.7724 H   0  0  0  0  0  0  0  0  0  0  0  0
    9.7643   15.9989   22.0981 H   0  0  0  0  0  0  0  0  0  0  0  0
   11.1983   16.4545   23.0501 H   0  0  0  0  0  0  0  0  0  0  0  0
   11.2162   11.3802   21.6002 H   0  0  0  0  0  0  0  0  0  0  0  0
   11.0537   13.5480   21.1504 H   0  0  0  0  0  0  0  0  0  0  0  0
  1  2  1  0  0  0  0
  1  3  2  0  0  0  0
  2  4  2  0  0  0  0
  3  6  1  0  0  0  0
  4  7  1  0  0  0  0
  5  6  1  0  0  0  0
  5  8  2  0  0  0  0
  6  7  2  0  0  0  0
  7 15  1  0  0  0  0
  8 12  1  0  0  0  0
  8 15  1  0  0  0  0
  9 11  1  0  0  0  0
  9 13  1  0  0  0  0
  9 14  2  0  0  0  0
 10 12  1  0  0  0  0
 11 16  1  0  0  0  0
 12 13  1  0  0  0  0
  1 17  1  0  0  0  0
  2 18  1  0  0  0  0
  3 19  1  0  0  0  0
  4 20  1  0  0  0  0
  5 21  1  0  0  0  0
 10 22  1  0  0  0  0
 10 23  1  0  0  0  0
 10 24  1  0  0  0  0
 11 25  1  0  0  0  0
 11 26  1  0  0  0  0
 12 27  1  0  0  0  0
 13 28  1  0  0  0  0
M  END
> <Catalog ID>
Z147651802

> <MW>
237.056

> <MW (desalted)>
237.682

> <ClogP>
2.432

> <logS>
-3.43

> <HBD>
1

> <HBA>
1

> <TPSA>
42.24

> <RotBonds>
3

> <ROCS_ShapeQuery>
A71EV2A-x0451_0A_A71EV2A-x0310_0A_A71EV2A-x0416_0A_peptide

> <ROCS_TanimotoCombo>
0.472 

> <ROCS_ShapeTanimoto>
0.310 

> <ROCS_ColorTanimoto>
0.162 

> <ROCS_RefTversky>
0.272 

> <ROCS_RefColorTversky>
0.168 

> <ROCS_RefTverskyCombo>
0.440 

> <ROCS_FitTversky>
1.821 

> <ROCS_FitColorTversky>
0.805 

> <ROCS_FitTverskyCombo>
2.625 

> <ROCS_ColorScore>
-5.113

> <ROCS_Overlap>
1885.945

> <ROCS_Rank>
44                  

$$$$
untitled-dbase-351_27
  -OEChem-11112315393D

 36 38  0     0  0  0  0  0  0999 V2000
   10.7358   14.6989   22.4440 C   0  0  0  0  0  0  0  0  0  0  0  0
    6.9753   11.8135   23.8518 C   0  0  0  0  0  0  0  0  0  0  0  0
    8.1384   10.7480   25.8011 C   0  0  0  0  0  0  0  0  0  0  0  0
    7.9930    9.5344   23.6117 C   0  0  0  0  0  0  0  0  0  0  0  0
    9.1769   12.7162   24.6445 C   0  0  0  0  0  0  0  0  0  0  0  0
    9.0311   11.4999   22.4500 C   0  0  0  0  0  0  0  0  0  0  0  0
   10.1968   10.4318   24.4035 C   0  0  0  0  0  0  0  0  0  0  0  0
    7.8484   12.0799   25.0893 C   0  0  0  0  0  0  0  0  0  0  0  0
    7.7022   10.8602   22.8889 C   0  0  0  0  0  0  0  0  0  0  0  0
    8.8711    9.7893   24.8479 C   0  0  0  0  0  0  0  0  0  0  0  0
    9.9314   11.7724   23.6783 C   0  0  0  0  0  0  0  0  0  0  0  0
   10.5290   15.5126   21.1920 C   0  0  0  0  0  0  0  0  0  0  0  0
   11.2524   12.4087   23.2378 C   0  0  0  0  0  0  0  0  0  0  0  0
   11.0069   13.3511   22.2004 N   0  0  0  0  0  0  0  0  0  0  0  0
   10.6815   15.2054   23.5633 O   0  0  0  0  0  0  0  0  0  0  0  0
   12.0098   15.4124   20.2267 Cl  0  0  0  0  0  0  0  0  0  0  0  0
    6.0161   11.3775   24.1572 H   0  0  0  0  0  0  0  0  0  0  0  0
    6.7477   12.7584   23.3431 H   0  0  0  0  0  0  0  0  0  0  0  0
    8.7481   10.9261   26.6954 H   0  0  0  0  0  0  0  0  0  0  0  0
    7.1999   10.2932   26.1411 H   0  0  0  0  0  0  0  0  0  0  0  0
    7.0518    9.0581   23.9127 H   0  0  0  0  0  0  0  0  0  0  0  0
    8.4980    8.8388   22.9302 H   0  0  0  0  0  0  0  0  0  0  0  0
    8.9787   13.6793   24.1566 H   0  0  0  0  0  0  0  0  0  0  0  0
    9.7955   12.9309   25.5254 H   0  0  0  0  0  0  0  0  0  0  0  0
    9.5443   10.8348   21.7434 H   0  0  0  0  0  0  0  0  0  0  0  0
    8.8296   12.4353   21.9122 H   0  0  0  0  0  0  0  0  0  0  0  0
   10.8389   10.5945   25.2789 H   0  0  0  0  0  0  0  0  0  0  0  0
   10.7362    9.7425   23.7413 H   0  0  0  0  0  0  0  0  0  0  0  0
    7.3245   12.7579   25.7723 H   0  0  0  0  0  0  0  0  0  0  0  0
    7.0748   10.6725   22.0104 H   0  0  0  0  0  0  0  0  0  0  0  0
    9.0732    8.8418   25.3598 H   0  0  0  0  0  0  0  0  0  0  0  0
    9.6927   15.1503   20.5891 H   0  0  0  0  0  0  0  0  0  0  0  0
   10.3481   16.5564   21.4630 H   0  0  0  0  0  0  0  0  0  0  0  0
   11.6777   12.8978   24.1111 H   0  0  0  0  0  0  0  0  0  0  0  0
   11.8921   11.6033   22.8843 H   0  0  0  0  0  0  0  0  0  0  0  0
   11.0302   13.0251   21.2283 H   0  0  0  0  0  0  0  0  0  0  0  0
  1 12  1  0  0  0  0
  1 14  1  0  0  0  0
  1 15  2  0  0  0  0
  2  8  1  0  0  0  0
  2  9  1  0  0  0  0
  3  8  1  0  0  0  0
  3 10  1  0  0  0  0
  4  9  1  0  0  0  0
  4 10  1  0  0  0  0
  5  8  1  0  0  0  0
  5 11  1  0  0  0  0
  6  9  1  0  0  0  0
  6 11  1  0  0  0  0
  7 10  1  0  0  0  0
  7 11  1  0  0  0  0
 11 13  1  0  0  0  0
 12 16  1  0  0  0  0
 13 14  1  0  0  0  0
  2 17  1  0  0  0  0
  2 18  1  0  0  0  0
  3 19  1  0  0  0  0
  3 20  1  0  0  0  0
  4 21  1  0  0  0  0
  4 22  1  0  0  0  0
  5 23  1  0  0  0  0
  5 24  1  0  0  0  0
  6 25  1  0  0  0  0
  6 26  1  0  0  0  0
  7 27  1  0  0  0  0
  7 28  1  0  0  0  0
  8 29  1  0  0  0  0
  9 30  1  0  0  0  0
 10 31  1  0  0  0  0
 12 32  1  0  0  0  0
 12 33  1  0  0  0  0
 13 34  1  0  0  0  0
 13 35  1  0  0  0  0
 14 36  1  0  0  0  0
M  END
> <Catalog ID>
Z56943541

> <MW>
241.123

> <MW (desalted)>
241.757

> <ClogP>
3.853

> <logS>
-3.77

> <HBD>
1

> <HBA>
1

> <TPSA>
29.1

> <RotBonds>
3

> <ROCS_ShapeQuery>
A71EV2A-x0451_0A_A71EV2A-x0310_0A_A71EV2A-x0416_0A_peptide

> <ROCS_TanimotoCombo>
0.471 

> <ROCS_ShapeTanimoto>
0.278 

> <ROCS_ColorTanimoto>
0.193 

> <ROCS_RefTversky>
0.250 

> <ROCS_RefColorTversky>
0.212 

> <ROCS_RefTverskyCombo>
0.463 

> <ROCS_FitTversky>
1.690 

> <ROCS_FitColorTversky>
0.674 

> <ROCS_FitTverskyCombo>
2.364 

> <ROCS_ColorScore>
-6.490

> <ROCS_Overlap>
1733.027

> <ROCS_Rank>
45                  

$$$$
untitled-dbase-30_1
  -OEChem-11112315393D

 33 35  0     0  0  0  0  0  0999 V2000
   11.0151   13.7288   23.1044 C   0  0  0  0  0  0  0  0  0  0  0  0
    6.7472   10.6614   23.5916 C   0  0  0  0  0  0  0  0  0  0  0  0
    7.6623   11.5799   25.7383 C   0  0  0  0  0  0  0  0  0  0  0  0
    8.5275    9.4065   24.8348 C   0  0  0  0  0  0  0  0  0  0  0  0
    8.2044   12.7018   23.5624 C   0  0  0  0  0  0  0  0  0  0  0  0
    9.0704   10.5260   22.6580 C   0  0  0  0  0  0  0  0  0  0  0  0
    9.9873   11.4454   24.8080 C   0  0  0  0  0  0  0  0  0  0  0  0
    7.1172   11.9485   24.3480 C   0  0  0  0  0  0  0  0  0  0  0  0
    7.9868    9.7638   23.4399 C   0  0  0  0  0  0  0  0  0  0  0  0
    8.9068   10.6869   25.5981 C   0  0  0  0  0  0  0  0  0  0  0  0
    9.4631   11.8201   23.4049 C   0  0  0  0  0  0  0  0  0  0  0  0
   12.0745   14.2751   22.1818 C   0  0  0  0  0  0  0  0  0  0  0  0
   10.4815   12.5309   22.6635 N   0  0  0  0  0  0  0  0  0  0  0  0
   10.6966   14.3079   24.1415 O   0  0  0  0  0  0  0  0  0  0  0  0
   11.2765   15.3152   20.9917 Cl  0  0  0  0  0  0  0  0  0  0  0  0
    5.9591   10.1230   24.1320 H   0  0  0  0  0  0  0  0  0  0  0  0
    6.3418   10.9107   22.6033 H   0  0  0  0  0  0  0  0  0  0  0  0
    7.9152   12.4907   26.2951 H   0  0  0  0  0  0  0  0  0  0  0  0
    6.8904   11.0574   26.3166 H   0  0  0  0  0  0  0  0  0  0  0  0
    7.7706    8.8461   25.3974 H   0  0  0  0  0  0  0  0  0  0  0  0
    9.4031    8.7525   24.7410 H   0  0  0  0  0  0  0  0  0  0  0  0
    7.8119   12.9860   22.5772 H   0  0  0  0  0  0  0  0  0  0  0  0
    8.4557   13.6331   24.0867 H   0  0  0  0  0  0  0  0  0  0  0  0
    9.9489    9.8808   22.5265 H   0  0  0  0  0  0  0  0  0  0  0  0
    8.6971   10.7645   21.6535 H   0  0  0  0  0  0  0  0  0  0  0  0
   10.2775   12.3490   25.3597 H   0  0  0  0  0  0  0  0  0  0  0  0
   10.8856   10.8197   24.7253 H   0  0  0  0  0  0  0  0  0  0  0  0
    6.2301   12.5827   24.4543 H   0  0  0  0  0  0  0  0  0  0  0  0
    7.7173    8.8482   22.9017 H   0  0  0  0  0  0  0  0  0  0  0  0
    9.2890   10.4260   26.5912 H   0  0  0  0  0  0  0  0  0  0  0  0
   12.8292   14.8627   22.7103 H   0  0  0  0  0  0  0  0  0  0  0  0
   12.5655   13.4477   21.6622 H   0  0  0  0  0  0  0  0  0  0  0  0
   10.8159   12.1376   21.7903 H   0  0  0  0  0  0  0  0  0  0  0  0
  1 12  1  0  0  0  0
  1 13  1  0  0  0  0
  1 14  2  0  0  0  0
  2  8  1  0  0  0  0
  2  9  1  0  0  0  0
  3  8  1  0  0  0  0
  3 10  1  0  0  0  0
  4  9  1  0  0  0  0
  4 10  1  0  0  0  0
  5  8  1  0  0  0  0
  5 11  1  0  0  0  0
  6  9  1  0  0  0  0
  6 11  1  0  0  0  0
  7 10  1  0  0  0  0
  7 11  1  0  0  0  0
 11 13  1  0  0  0  0
 12 15  1  0  0  0  0
  2 16  1  0  0  0  0
  2 17  1  0  0  0  0
  3 18  1  0  0  0  0
  3 19  1  0  0  0  0
  4 20  1  0  0  0  0
  4 21  1  0  0  0  0
  5 22  1  0  0  0  0
  5 23  1  0  0  0  0
  6 24  1  0  0  0  0
  6 25  1  0  0  0  0
  7 26  1  0  0  0  0
  7 27  1  0  0  0  0
  8 28  1  0  0  0  0
  9 29  1  0  0  0  0
 10 30  1  0  0  0  0
 12 31  1  0  0  0  0
 12 32  1  0  0  0  0
 13 33  1  0  0  0  0
M  END
> <Catalog ID>
Z56862400

> <MW>
227.108

> <MW (desalted)>
227.73

> <ClogP>
2.194

> <logS>
-3.24

> <HBD>
1

> <HBA>
1

> <TPSA>
29.1

> <RotBonds>
2

> <ROCS_ShapeQuery>
A71EV2A-x0451_0A_A71EV2A-x0310_0A_A71EV2A-x0416_0A_peptide

> <ROCS_TanimotoCombo>
0.471 

> <ROCS_ShapeTanimoto>
0.271 

> <ROCS_ColorTanimoto>
0.200 

> <ROCS_RefTversky>
0.244 

> <ROCS_RefColorTversky>
0.219 

> <ROCS_RefTverskyCombo>
0.463 

> <ROCS_FitTversky>
1.706 

> <ROCS_FitColorTversky>
0.694 

> <ROCS_FitTverskyCombo>
2.400 

> <ROCS_ColorScore>
-6.686

> <ROCS_Overlap>
1690.525

> <ROCS_Rank>
46                  

$$$$
untitled-dbase-785_69
  -OEChem-11112315393D

 29 30  0     1  0  0  0  0  0999 V2000
    5.5795   10.8419   25.9446 C   0  0  0  0  0  0  0  0  0  0  0  0
    5.9285   12.1771   26.1498 C   0  0  0  0  0  0  0  0  0  0  0  0
    6.4107   10.0086   25.1956 C   0  0  0  0  0  0  0  0  0  0  0  0
    7.1043   12.6857   25.5975 C   0  0  0  0  0  0  0  0  0  0  0  0
    7.5934   10.5131   24.6544 C   0  0  0  0  0  0  0  0  0  0  0  0
    7.9289   11.8565   24.8369 C   0  0  0  0  0  0  0  0  0  0  0  0
   10.1639   15.2684   20.3306 C   0  0  0  0  0  0  0  0  0  0  0  0
   10.7088   15.5944   21.5066 C   0  0  0  0  0  0  0  0  0  0  0  0
   10.7990   14.5892   22.5990 C   0  0  0  0  0  0  0  0  0  0  0  0
    9.6985   10.1545   23.7429 C   0  0  0  0  0  0  0  0  0  0  0  0
    9.6340   11.6022   23.2744 C   0  0  2  0  0  0  0  0  0  0  0  0
   11.0215   12.1484   22.9710 C   0  0  0  0  0  0  0  0  0  0  0  0
   10.9216   13.2862   22.1172 N   0  0  0  0  0  0  0  0  0  0  0  0
   10.7638   14.8988   23.7856 O   0  0  0  0  0  0  0  0  0  0  0  0
    8.3781    9.6413   23.9464 O   0  0  0  0  0  0  0  0  0  0  0  0
    9.0589   12.4186   24.3039 O   0  0  0  0  0  0  0  0  0  0  0  0
    4.6612   10.4497   26.3719 H   0  0  0  0  0  0  0  0  0  0  0  0
    5.2814   12.8227   26.7365 H   0  0  0  0  0  0  0  0  0  0  0  0
    6.1350    8.9680   25.0480 H   0  0  0  0  0  0  0  0  0  0  0  0
    7.3637   13.7291   25.7550 H   0  0  0  0  0  0  0  0  0  0  0  0
   10.1006   16.0075   19.5388 H   0  0  0  0  0  0  0  0  0  0  0  0
    9.7729   14.2786   20.1220 H   0  0  0  0  0  0  0  0  0  0  0  0
   11.0888   16.5964   21.6741 H   0  0  0  0  0  0  0  0  0  0  0  0
   10.1823    9.5248   22.9890 H   0  0  0  0  0  0  0  0  0  0  0  0
   10.2585   10.0517   24.6813 H   0  0  0  0  0  0  0  0  0  0  0  0
    9.0050   11.6924   22.3788 H   0  0  0  0  0  0  0  0  0  0  0  0
   11.4803   12.4249   23.9206 H   0  0  0  0  0  0  0  0  0  0  0  0
   11.5869   11.3547   22.4819 H   0  0  0  0  0  0  0  0  0  0  0  0
   10.9092   13.1365   21.1035 H   0  0  0  0  0  0  0  0  0  0  0  0
  1  2  1  0  0  0  0
  1  3  2  0  0  0  0
  2  4  2  0  0  0  0
  3  5  1  0  0  0  0
  4  6  1  0  0  0  0
  5  6  2  0  0  0  0
  5 15  1  0  0  0  0
  6 16  1  0  0  0  0
  7  8  2  0  0  0  0
  8  9  1  0  0  0  0
  9 13  1  0  0  0  0
  9 14  2  0  0  0  0
 10 11  1  0  0  0  0
 10 15  1  0  0  0  0
 11 12  1  0  0  0  0
 11 16  1  0  0  0  0
 12 13  1  0  0  0  0
  1 17  1  0  0  0  0
  2 18  1  0  0  0  0
  3 19  1  0  0  0  0
  4 20  1  0  0  0  0
  7 21  1  0  0  0  0
  7 22  1  0  0  0  0
  8 23  1  0  0  0  0
 10 24  1  0  0  0  0
 10 25  1  0  0  0  0
 11 26  1  0  0  0  0
 12 27  1  0  0  0  0
 12 28  1  0  0  0  0
 13 29  1  0  0  0  0
M  END
> <Catalog ID>
Z799941450

> <MW>
219.09

> <MW (desalted)>
219.237

> <ClogP>
1.439

> <logS>
-2.946

> <HBD>
1

> <HBA>
3

> <TPSA>
47.56

> <RotBonds>
3

> <ROCS_ShapeQuery>
A71EV2A-x0451_0A_A71EV2A-x0310_0A_A71EV2A-x0416_0A_peptide

> <ROCS_TanimotoCombo>
0.471 

> <ROCS_ShapeTanimoto>
0.308 

> <ROCS_ColorTanimoto>
0.163 

> <ROCS_RefTversky>
0.271 

> <ROCS_RefColorTversky>
0.178 

> <ROCS_RefTverskyCombo>
0.449 

> <ROCS_FitTversky>
1.799 

> <ROCS_FitColorTversky>
0.658 

> <ROCS_FitTverskyCombo>
2.457 

> <ROCS_ColorScore>
-5.422

> <ROCS_Overlap>
1876.184

> <ROCS_Rank>
47                  

$$$$
untitled-dbase-954_13
  -OEChem-11112315393D

 25 26  0     0  0  0  0  0  0999 V2000
    9.9793   10.9608   23.1762 C   0  0  0  0  0  0  0  0  0  0  0  0
    9.0515   10.2355   23.9247 C   0  0  0  0  0  0  0  0  0  0  0  0
    8.8396   13.0164   23.7429 C   0  0  0  0  0  0  0  0  0  0  0  0
    7.9060   12.2869   24.4815 C   0  0  0  0  0  0  0  0  0  0  0  0
    9.8731   12.3491   23.0851 C   0  0  0  0  0  0  0  0  0  0  0  0
    8.0080   10.8995   24.5700 C   0  0  0  0  0  0  0  0  0  0  0  0
    5.9030   12.2698   25.8423 C   0  0  0  0  0  0  0  0  0  0  0  0
   11.2154   14.3769   22.5860 C   0  0  0  0  0  0  0  0  0  0  0  0
    5.9190   10.7696   25.6049 C   0  0  0  0  0  0  0  0  0  0  0  0
   12.2401   14.8427   21.5778 C   0  0  0  0  0  0  0  0  0  0  0  0
    6.8893   12.9552   25.1713 N   0  0  0  0  0  0  0  0  0  0  0  0
   10.8060   13.0714   22.3401 N   0  0  0  0  0  0  0  0  0  0  0  0
    5.0298   12.8118   26.5166 O   0  0  0  0  0  0  0  0  0  0  0  0
   10.8317   15.1358   23.4720 O   0  0  0  0  0  0  0  0  0  0  0  0
    7.1570   10.1441   25.3267 O   0  0  0  0  0  0  0  0  0  0  0  0
   11.9178   14.0027   20.0527 Cl  0  0  0  0  0  0  0  0  0  0  0  0
   10.7856   10.4333   22.6726 H   0  0  0  0  0  0  0  0  0  0  0  0
    9.1485    9.1558   23.9996 H   0  0  0  0  0  0  0  0  0  0  0  0
    8.7631   14.0997   23.6803 H   0  0  0  0  0  0  0  0  0  0  0  0
    5.5144   10.2913   26.5038 H   0  0  0  0  0  0  0  0  0  0  0  0
    5.2277   10.5541   24.7809 H   0  0  0  0  0  0  0  0  0  0  0  0
   13.2663   14.6298   21.8879 H   0  0  0  0  0  0  0  0  0  0  0  0
   12.1341   15.9200   21.4220 H   0  0  0  0  0  0  0  0  0  0  0  0
    6.8930   13.9708   25.1878 H   0  0  0  0  0  0  0  0  0  0  0  0
   11.2259   12.5983   21.5421 H   0  0  0  0  0  0  0  0  0  0  0  0
  1  2  2  0  0  0  0
  1  5  1  0  0  0  0
  2  6  1  0  0  0  0
  3  4  1  0  0  0  0
  3  5  2  0  0  0  0
  4  6  2  0  0  0  0
  4 11  1  0  0  0  0
  5 12  1  0  0  0  0
  6 15  1  0  0  0  0
  7  9  1  0  0  0  0
  7 11  1  0  0  0  0
  7 13  2  0  0  0  0
  8 10  1  0  0  0  0
  8 12  1  0  0  0  0
  8 14  2  0  0  0  0
  9 15  1  0  0  0  0
 10 16  1  0  0  0  0
  1 17  1  0  0  0  0
  2 18  1  0  0  0  0
  3 19  1  0  0  0  0
  9 20  1  0  0  0  0
  9 21  1  0  0  0  0
 10 22  1  0  0  0  0
 10 23  1  0  0  0  0
 11 24  1  0  0  0  0
 12 25  1  0  0  0  0
M  END
> <Catalog ID>
Z799941048

> <MW>
240.03

> <MW (desalted)>
240.643

> <ClogP>
0.551

> <logS>
-2.382

> <HBD>
2

> <HBA>
3

> <TPSA>
67.43

> <RotBonds>
2

> <ROCS_ShapeQuery>
A71EV2A-x0451_0A_A71EV2A-x0310_0A_A71EV2A-x0416_0A_peptide

> <ROCS_TanimotoCombo>
0.469 

> <ROCS_ShapeTanimoto>
0.297 

> <ROCS_ColorTanimoto>
0.173 

> <ROCS_RefTversky>
0.263 

> <ROCS_RefColorTversky>
0.187 

> <ROCS_RefTverskyCombo>
0.450 

> <ROCS_FitTversky>
1.751 

> <ROCS_FitColorTversky>
0.691 

> <ROCS_FitTverskyCombo>
2.442 

> <ROCS_ColorScore>
-5.698

> <ROCS_Overlap>
1825.696

> <ROCS_Rank>
48                  

$$$$
untitled-dbase-802_20
  -OEChem-11112315393D

 20 21  0     0  0  0  0  0  0999 V2000
    9.2039    9.1318   23.0384 C   0  0  0  0  0  0  0  0  0  0  0  0
    8.1703    9.2535   23.9827 C   0  0  0  0  0  0  0  0  0  0  0  0
    9.9701   10.2291   22.5794 C   0  0  0  0  0  0  0  0  0  0  0  0
    7.9254   10.5613   24.4660 C   0  0  0  0  0  0  0  0  0  0  0  0
    8.7428   11.7315   23.9766 C   0  0  0  0  0  0  0  0  0  0  0  0
    9.7727   11.5477   23.0229 C   0  0  0  0  0  0  0  0  0  0  0  0
   10.8924   13.7531   23.2361 C   0  0  0  0  0  0  0  0  0  0  0  0
   11.7538   14.6761   22.4058 C   0  0  0  0  0  0  0  0  0  0  0  0
    6.9931   10.9118   25.3665 N   0  0  0  0  0  0  0  0  0  0  0  0
    8.3796   12.8966   24.5366 N   0  0  0  0  0  0  0  0  0  0  0  0
   10.5538   12.5958   22.5415 N   0  0  0  0  0  0  0  0  0  0  0  0
   10.5603   14.0755   24.3735 O   0  0  0  0  0  0  0  0  0  0  0  0
    7.1318   12.5532   25.5771 S   0  0  0  0  0  0  0  0  0  0  0  0
   11.3176   14.4383   20.7061 Cl  0  0  0  0  0  0  0  0  0  0  0  0
    9.4266    8.1433   22.6396 H   0  0  0  0  0  0  0  0  0  0  0  0
    7.6008    8.3932   24.3144 H   0  0  0  0  0  0  0  0  0  0  0  0
   10.7512   10.0297   21.8457 H   0  0  0  0  0  0  0  0  0  0  0  0
   12.8223   14.4805   22.5265 H   0  0  0  0  0  0  0  0  0  0  0  0
   11.5505   15.7136   22.6854 H   0  0  0  0  0  0  0  0  0  0  0  0
   10.9109   12.5067   21.5910 H   0  0  0  0  0  0  0  0  0  0  0  0
  1  2  2  0  0  0  0
  1  3  1  0  0  0  0
  2  4  1  0  0  0  0
  3  6  2  0  0  0  0
  4  5  1  0  0  0  0
  4  9  2  0  0  0  0
  5  6  1  0  0  0  0
  5 10  2  0  0  0  0
  6 11  1  0  0  0  0
  7  8  1  0  0  0  0
  7 11  1  0  0  0  0
  7 12  2  0  0  0  0
  8 14  1  0  0  0  0
  9 13  1  0  0  0  0
 10 13  1  0  0  0  0
  1 15  1  0  0  0  0
  2 16  1  0  0  0  0
  3 17  1  0  0  0  0
  8 18  1  0  0  0  0
  8 19  1  0  0  0  0
 11 20  1  0  0  0  0
M  END
> <Catalog ID>
Z1269127395

> <MW>
226.992

> <MW (desalted)>
227.671

> <ClogP>
2.448

> <logS>
-2.587

> <HBD>
1

> <HBA>
3

> <TPSA>
54.88

> <RotBonds>
2

> <ROCS_ShapeQuery>
A71EV2A-x0451_0A_A71EV2A-x0310_0A_A71EV2A-x0416_0A_peptide

> <ROCS_TanimotoCombo>
0.469 

> <ROCS_ShapeTanimoto>
0.301 

> <ROCS_ColorTanimoto>
0.168 

> <ROCS_RefTversky>
0.262 

> <ROCS_RefColorTversky>
0.179 

> <ROCS_RefTverskyCombo>
0.441 

> <ROCS_FitTversky>
1.936 

> <ROCS_FitColorTversky>
0.744 

> <ROCS_FitTverskyCombo>
2.680 

> <ROCS_ColorScore>
-5.433

> <ROCS_Overlap>
1817.750

> <ROCS_Rank>
49                  

$$$$
untitled-dbase-696_29
  -OEChem-11112315393D

 28 29  0     0  0  0  0  0  0999 V2000
    9.1131   12.7341   23.5984 C   0  0  0  0  0  0  0  0  0  0  0  0
    9.7186   10.0351   23.2775 C   0  0  0  0  0  0  0  0  0  0  0  0
   10.2058   12.3535   22.8200 C   0  0  0  0  0  0  0  0  0  0  0  0
    8.3248   11.7680   24.2343 C   0  0  0  0  0  0  0  0  0  0  0  0
    8.6049   10.4085   24.0387 C   0  0  0  0  0  0  0  0  0  0  0  0
   10.5148   11.0045   22.6682 C   0  0  0  0  0  0  0  0  0  0  0  0
   11.1564   14.6419   22.6702 C   0  0  0  0  0  0  0  0  0  0  0  0
    6.0915   10.3485   25.8777 C   0  0  0  0  0  0  0  0  0  0  0  0
    7.0390   11.4991   26.1806 C   0  0  0  0  0  0  0  0  0  0  0  0
    6.4694    9.6118   24.6019 C   0  0  0  0  0  0  0  0  0  0  0  0
   12.0324   15.4509   21.7419 C   0  0  0  0  0  0  0  0  0  0  0  0
   10.9633   13.3505   22.1980 N   0  0  0  0  0  0  0  0  0  0  0  0
   10.6971   15.1535   23.6877 O   0  0  0  0  0  0  0  0  0  0  0  0
    7.3076   12.2673   25.0078 O   0  0  0  0  0  0  0  0  0  0  0  0
    7.8743    9.3646   24.5479 O   0  0  0  0  0  0  0  0  0  0  0  0
   11.8807   10.4881   21.7450 Cl  0  0  0  0  0  0  0  0  0  0  0  0
   11.7769   14.8485   20.0965 Cl  0  0  0  0  0  0  0  0  0  0  0  0
    8.8562   13.7873   23.6972 H   0  0  0  0  0  0  0  0  0  0  0  0
    9.9709    8.9807   23.1819 H   0  0  0  0  0  0  0  0  0  0  0  0
    6.0910    9.6302   26.7056 H   0  0  0  0  0  0  0  0  0  0  0  0
    5.0744   10.7490   25.7972 H   0  0  0  0  0  0  0  0  0  0  0  0
    6.6607   12.1356   26.9922 H   0  0  0  0  0  0  0  0  0  0  0  0
    7.9944   11.0946   26.5338 H   0  0  0  0  0  0  0  0  0  0  0  0
    5.8992    8.6802   24.4848 H   0  0  0  0  0  0  0  0  0  0  0  0
    6.2125   10.2345   23.7375 H   0  0  0  0  0  0  0  0  0  0  0  0
   13.0948   15.3711   21.9858 H   0  0  0  0  0  0  0  0  0  0  0  0
   11.7372   16.5030   21.7874 H   0  0  0  0  0  0  0  0  0  0  0  0
   11.4142   13.1076   21.3193 H   0  0  0  0  0  0  0  0  0  0  0  0
  1  3  1  0  0  0  0
  1  4  2  0  0  0  0
  2  5  2  0  0  0  0
  2  6  1  0  0  0  0
  3  6  2  0  0  0  0
  3 12  1  0  0  0  0
  4  5  1  0  0  0  0
  4 14  1  0  0  0  0
  5 15  1  0  0  0  0
  6 16  1  0  0  0  0
  7 11  1  0  0  0  0
  7 12  1  0  0  0  0
  7 13  2  0  0  0  0
  8  9  1  0  0  0  0
  8 10  1  0  0  0  0
  9 14  1  0  0  0  0
 10 15  1  0  0  0  0
 11 17  1  0  0  0  0
  1 18  1  0  0  0  0
  2 19  1  0  0  0  0
  8 20  1  0  0  0  0
  8 21  1  0  0  0  0
  9 22  1  0  0  0  0
  9 23  1  0  0  0  0
 10 24  1  0  0  0  0
 10 25  1  0  0  0  0
 11 26  1  0  0  0  0
 11 27  1  0  0  0  0
 12 28  1  0  0  0  0
M  END
> <Catalog ID>
Z199423776

> <MW>
275.012

> <MW (desalted)>
276.116

> <ClogP>
1.954

> <logS>
-3.59

> <HBD>
1

> <HBA>
3

> <TPSA>
47.56

> <RotBonds>
2

> <ROCS_ShapeQuery>
A71EV2A-x0451_0A_A71EV2A-x0310_0A_A71EV2A-x0416_0A_peptide

> <ROCS_TanimotoCombo>
0.469 

> <ROCS_ShapeTanimoto>
0.313 

> <ROCS_ColorTanimoto>
0.156 

> <ROCS_RefTversky>
0.275 

> <ROCS_RefColorTversky>
0.167 

> <ROCS_RefTverskyCombo>
0.442 

> <ROCS_FitTversky>
1.781 

> <ROCS_FitColorTversky>
0.699 

> <ROCS_FitTverskyCombo>
2.480 

> <ROCS_ColorScore>
-5.094

> <ROCS_Overlap>
1905.856

> <ROCS_Rank>
50                  

$$$$
untitled-dbase-593_7
  -OEChem-11112315393D

 22 23  0     0  0  0  0  0  0999 V2000
    9.0944   12.5768   23.6116 C   0  0  0  0  0  0  0  0  0  0  0  0
    9.7968    9.8937   23.0580 C   0  0  0  0  0  0  0  0  0  0  0  0
   10.1821   12.2824   22.7860 C   0  0  0  0  0  0  0  0  0  0  0  0
    8.3858   11.5171   24.1394 C   0  0  0  0  0  0  0  0  0  0  0  0
    8.7275   10.2115   23.8699 C   0  0  0  0  0  0  0  0  0  0  0  0
   10.5313   10.9485   22.5107 C   0  0  0  0  0  0  0  0  0  0  0  0
   11.0837   14.5951   22.8241 C   0  0  0  0  0  0  0  0  0  0  0  0
    7.0019   10.2158   25.1754 C   0  0  0  0  0  0  0  0  0  0  0  0
   11.9275   15.5011   21.9578 C   0  0  0  0  0  0  0  0  0  0  0  0
   10.9092   13.3466   22.2428 N   0  0  0  0  0  0  0  0  0  0  0  0
   10.6312   15.0054   23.8894 O   0  0  0  0  0  0  0  0  0  0  0  0
    7.3031   11.6095   24.9586 O   0  0  0  0  0  0  0  0  0  0  0  0
    7.9017    9.3231   24.4869 O   0  0  0  0  0  0  0  0  0  0  0  0
   11.8721   10.5662   21.4881 Cl  0  0  0  0  0  0  0  0  0  0  0  0
   11.6568   15.0399   20.2697 Cl  0  0  0  0  0  0  0  0  0  0  0  0
    8.8112   13.6005   23.8340 H   0  0  0  0  0  0  0  0  0  0  0  0
   10.0490    8.8578   22.8568 H   0  0  0  0  0  0  0  0  0  0  0  0
    7.0562   10.0082   26.2503 H   0  0  0  0  0  0  0  0  0  0  0  0
    5.9803   10.0195   24.8304 H   0  0  0  0  0  0  0  0  0  0  0  0
   12.9953   15.4232   22.1779 H   0  0  0  0  0  0  0  0  0  0  0  0
   11.6120   16.5385   22.1001 H   0  0  0  0  0  0  0  0  0  0  0  0
   11.3501   13.1916   21.3398 H   0  0  0  0  0  0  0  0  0  0  0  0
  1  3  1  0  0  0  0
  1  4  2  0  0  0  0
  2  5  2  0  0  0  0
  2  6  1  0  0  0  0
  3  6  2  0  0  0  0
  3 10  1  0  0  0  0
  4  5  1  0  0  0  0
  4 12  1  0  0  0  0
  5 13  1  0  0  0  0
  6 14  1  0  0  0  0
  7  9  1  0  0  0  0
  7 10  1  0  0  0  0
  7 11  2  0  0  0  0
  8 12  1  0  0  0  0
  8 13  1  0  0  0  0
  9 15  1  0  0  0  0
  1 16  1  0  0  0  0
  2 17  1  0  0  0  0
  8 18  1  0  0  0  0
  8 19  1  0  0  0  0
  9 20  1  0  0  0  0
  9 21  1  0  0  0  0
 10 22  1  0  0  0  0
M  END
> <Catalog ID>
Z199423738

> <MW>
246.98

> <MW (desalted)>
248.063

> <ClogP>
1.836

> <logS>
-3.52

> <HBD>
1

> <HBA>
3

> <TPSA>
47.56

> <RotBonds>
2

> <ROCS_ShapeQuery>
A71EV2A-x0451_0A_A71EV2A-x0310_0A_A71EV2A-x0416_0A_peptide

> <ROCS_TanimotoCombo>
0.469 

> <ROCS_ShapeTanimoto>
0.291 

> <ROCS_ColorTanimoto>
0.178 

> <ROCS_RefTversky>
0.258 

> <ROCS_RefColorTversky>
0.187 

> <ROCS_RefTverskyCombo>
0.445 

> <ROCS_FitTversky>
1.794 

> <ROCS_FitColorTversky>
0.779 

> <ROCS_FitTverskyCombo>
2.573 

> <ROCS_ColorScore>
-5.697

> <ROCS_Overlap>
1785.493

> <ROCS_Rank>
51                  

$$$$
untitled-dbase-537_15
  -OEChem-11112315393D

 23 24  0     0  0  0  0  0  0999 V2000
    7.6049   11.0788   24.7384 C   0  0  0  0  0  0  0  0  0  0  0  0
    8.5314   11.9453   24.1499 C   0  0  0  0  0  0  0  0  0  0  0  0
    9.5237   10.1249   22.8492 C   0  0  0  0  0  0  0  0  0  0  0  0
    7.6674    9.7564   24.3620 C   0  0  0  0  0  0  0  0  0  0  0  0
    8.6022    9.2916   23.4417 C   0  0  0  0  0  0  0  0  0  0  0  0
    9.4800   11.4737   23.2158 C   0  0  0  0  0  0  0  0  0  0  0  0
    7.3307    7.5064   24.1041 C   0  0  0  0  0  0  0  0  0  0  0  0
   10.8893   13.5170   23.2541 C   0  0  0  0  0  0  0  0  0  0  0  0
   11.8536   14.2504   22.3510 C   0  0  0  0  0  0  0  0  0  0  0  0
    6.8836    8.6792   24.7759 N   0  0  0  0  0  0  0  0  0  0  0  0
    8.4102    7.9203   23.2732 N   0  0  0  0  0  0  0  0  0  0  0  0
   10.3892   12.3696   22.6503 N   0  0  0  0  0  0  0  0  0  0  0  0
    6.8787    6.3760   24.2166 O   0  0  0  0  0  0  0  0  0  0  0  0
   10.6218   13.9653   24.3657 O   0  0  0  0  0  0  0  0  0  0  0  0
   11.3623   13.9477   20.6769 Cl  0  0  0  0  0  0  0  0  0  0  0  0
    6.8768   11.4395   25.4549 H   0  0  0  0  0  0  0  0  0  0  0  0
    8.5138   12.9985   24.4219 H   0  0  0  0  0  0  0  0  0  0  0  0
   10.2469    9.7513   22.1327 H   0  0  0  0  0  0  0  0  0  0  0  0
   12.8879   13.9217   22.4801 H   0  0  0  0  0  0  0  0  0  0  0  0
   11.7961   15.3239   22.5521 H   0  0  0  0  0  0  0  0  0  0  0  0
    6.1234    8.7241   25.4432 H   0  0  0  0  0  0  0  0  0  0  0  0
    8.9556    7.3294   22.6579 H   0  0  0  0  0  0  0  0  0  0  0  0
   10.7158   12.1634   21.7086 H   0  0  0  0  0  0  0  0  0  0  0  0
  1  2  2  0  0  0  0
  1  4  1  0  0  0  0
  2  6  1  0  0  0  0
  3  5  1  0  0  0  0
  3  6  2  0  0  0  0
  4  5  2  0  0  0  0
  4 10  1  0  0  0  0
  5 11  1  0  0  0  0
  6 12  1  0  0  0  0
  7 10  1  0  0  0  0
  7 11  1  0  0  0  0
  7 13  2  0  0  0  0
  8  9  1  0  0  0  0
  8 12  1  0  0  0  0
  8 14  2  0  0  0  0
  9 15  1  0  0  0  0
  1 16  1  0  0  0  0
  2 17  1  0  0  0  0
  3 18  1  0  0  0  0
  9 19  1  0  0  0  0
  9 20  1  0  0  0  0
 10 21  1  0  0  0  0
 11 22  1  0  0  0  0
 12 23  1  0  0  0  0
M  END
> <Catalog ID>
Z56968574

> <MW>
225.031

> <MW (desalted)>
225.632

> <ClogP>
0.76

> <logS>
-2.96

> <HBD>
3

> <HBA>
2

> <TPSA>
70.23

> <RotBonds>
2

> <ROCS_ShapeQuery>
A71EV2A-x0451_0A_A71EV2A-x0310_0A_A71EV2A-x0416_0A_peptide

> <ROCS_TanimotoCombo>
0.469 

> <ROCS_ShapeTanimoto>
0.271 

> <ROCS_ColorTanimoto>
0.198 

> <ROCS_RefTversky>
0.244 

> <ROCS_RefColorTversky>
0.215 

> <ROCS_RefTverskyCombo>
0.459 

> <ROCS_FitTversky>
1.683 

> <ROCS_FitColorTversky>
0.712 

> <ROCS_FitTverskyCombo>
2.395 

> <ROCS_ColorScore>
-6.562

> <ROCS_Overlap>
1690.741

> <ROCS_Rank>
52                  

$$$$
untitled-dbase-102_13
  -OEChem-11112315393D

 34 36  0     1  0  0  0  0  0999 V2000
   13.5362    8.9864   23.9544 C   0  0  0  0  0  0  0  0  0  0  0  0
   12.7082    9.5460   24.9275 C   0  0  0  0  0  0  0  0  0  0  0  0
   13.1680    9.0407   22.6101 C   0  0  0  0  0  0  0  0  0  0  0  0
    6.7489   12.8947   26.0519 C   0  0  0  0  0  0  0  0  0  0  0  0
    6.2751   11.6216   26.3463 C   0  0  0  0  0  0  0  0  0  0  0  0
   11.5120   10.1599   24.5563 C   0  0  0  0  0  0  0  0  0  0  0  0
   11.9718    9.6546   22.2389 C   0  0  0  0  0  0  0  0  0  0  0  0
    7.7985   13.0679   25.1409 C   0  0  0  0  0  0  0  0  0  0  0  0
    6.8234   10.5221   25.6987 C   0  0  0  0  0  0  0  0  0  0  0  0
   11.1438   10.2142   23.2119 C   0  0  0  0  0  0  0  0  0  0  0  0
    8.4118   11.9727   24.5199 C   0  0  0  0  0  0  0  0  0  0  0  0
    7.8534   10.7043   24.7697 C   0  0  0  0  0  0  0  0  0  0  0  0
   10.3697   13.1940   23.4360 C   0  0  0  0  0  0  0  0  0  0  0  0
    8.6861    9.8807   22.7961 C   0  0  0  0  0  0  0  0  0  0  0  0
    9.8344   10.8858   22.8049 C   0  0  1  0  0  0  0  0  0  0  0  0
   10.9183   13.4829   22.0609 C   0  0  0  0  0  0  0  0  0  0  0  0
    9.5298   12.0845   23.6201 N   0  0  0  0  0  0  0  0  0  0  0  0
   10.6116   14.0097   24.3347 O   0  0  0  0  0  0  0  0  0  0  0  0
    8.2799    9.5674   24.1273 O   0  0  0  0  0  0  0  0  0  0  0  0
   11.0976   15.2289   21.9526 Cl  0  0  0  0  0  0  0  0  0  0  0  0
   14.4683    8.5096   24.2435 H   0  0  0  0  0  0  0  0  0  0  0  0
   12.9953    9.5047   25.9742 H   0  0  0  0  0  0  0  0  0  0  0  0
   13.8130    8.6061   21.8521 H   0  0  0  0  0  0  0  0  0  0  0  0
    6.3133   13.7599   26.5432 H   0  0  0  0  0  0  0  0  0  0  0  0
    5.4892   11.4884   27.0831 H   0  0  0  0  0  0  0  0  0  0  0  0
   10.8730   10.5930   25.3213 H   0  0  0  0  0  0  0  0  0  0  0  0
   11.6930    9.6922   21.1891 H   0  0  0  0  0  0  0  0  0  0  0  0
    8.1208   14.0902   24.9833 H   0  0  0  0  0  0  0  0  0  0  0  0
    6.4423    9.5295   25.9139 H   0  0  0  0  0  0  0  0  0  0  0  0
    7.8265   10.2568   22.2306 H   0  0  0  0  0  0  0  0  0  0  0  0
    8.9992    8.9444   22.3252 H   0  0  0  0  0  0  0  0  0  0  0  0
    9.9873   11.1962   21.7421 H   0  0  0  0  0  0  0  0  0  0  0  0
   10.2073   13.1324   21.3240 H   0  0  0  0  0  0  0  0  0  0  0  0
   11.8820   12.9999   21.9644 H   0  0  0  0  0  0  0  0  0  0  0  0
  1  2  1  0  0  0  0
  1  3  2  0  0  0  0
  2  6  2  0  0  0  0
  3  7  1  0  0  0  0
  4  5  1  0  0  0  0
  4  8  2  0  0  0  0
  5  9  2  0  0  0  0
  6 10  1  0  0  0  0
  7 10  2  0  0  0  0
  8 11  1  0  0  0  0
  9 12  1  0  0  0  0
 10 15  1  0  0  0  0
 11 12  2  0  0  0  0
 11 17  1  0  0  0  0
 12 19  1  0  0  0  0
 13 16  1  0  0  0  0
 13 17  1  0  0  0  0
 13 18  2  0  0  0  0
 14 15  1  0  0  0  0
 14 19  1  0  0  0  0
 15 17  1  0  0  0  0
 16 20  1  0  0  0  0
  1 21  1  0  0  0  0
  2 22  1  0  0  0  0
  3 23  1  0  0  0  0
  4 24  1  0  0  0  0
  5 25  1  0  0  0  0
  6 26  1  0  0  0  0
  7 27  1  0  0  0  0
  8 28  1  0  0  0  0
  9 29  1  0  0  0  0
 14 30  1  0  0  0  0
 14 31  1  0  0  0  0
 15 32  1  0  0  0  0
 16 33  1  0  0  0  0
 16 34  1  0  0  0  0
M  END
> <Catalog ID>
Z85921962

> <MW>
287.071

> <MW (desalted)>
287.741

> <ClogP>
3.442

> <logS>
-4.51

> <HBD>
0

> <HBA>
2

> <TPSA>
29.54

> <RotBonds>
2

> <ROCS_ShapeQuery>
A71EV2A-x0451_0A_A71EV2A-x0310_0A_A71EV2A-x0416_0A_peptide

> <ROCS_TanimotoCombo>
0.469 

> <ROCS_ShapeTanimoto>
0.309 

> <ROCS_ColorTanimoto>
0.160 

> <ROCS_RefTversky>
0.278 

> <ROCS_RefColorTversky>
0.166 

> <ROCS_RefTverskyCombo>
0.444 

> <ROCS_FitTversky>
1.577 

> <ROCS_FitColorTversky>
0.797 

> <ROCS_FitTverskyCombo>
2.374 

> <ROCS_ColorScore>
-5.056

> <ROCS_Overlap>
1926.451

> <ROCS_Rank>
53                  

$$$$
untitled-dbase-281_475
  -OEChem-11112315393D

 40 41  0     1  0  0  0  0  0999 V2000
   12.6041   15.2173   22.3523 C   0  0  0  0  0  0  0  0  0  0  0  0
   11.4023   13.9378   20.6922 C   0  0  0  0  0  0  0  0  0  0  0  0
   13.3447   15.8317   21.3426 C   0  0  0  0  0  0  0  0  0  0  0  0
   12.1430   14.5523   19.6825 C   0  0  0  0  0  0  0  0  0  0  0  0
   11.6329   14.2703   22.0271 C   0  0  0  0  0  0  0  0  0  0  0  0
   13.1142   15.4992   20.0077 C   0  0  0  0  0  0  0  0  0  0  0  0
    5.9099   12.4504   28.3387 C   0  0  0  0  0  0  0  0  0  0  0  0
    6.5904   11.7721   27.4123 C   0  0  0  0  0  0  0  0  0  0  0  0
   10.8431   13.6156   23.1017 C   0  0  0  0  0  0  0  0  0  0  0  0
    6.7753   12.3771   26.0770 C   0  0  0  0  0  0  0  0  0  0  0  0
    7.8927    9.6391   23.6983 C   0  0  0  0  0  0  0  0  0  0  0  0
    9.2057   10.2119   23.1646 C   0  0  0  0  0  0  0  0  0  0  0  0
    7.5243   10.1688   25.0789 C   0  0  0  0  0  0  0  0  0  0  0  0
    8.2785   12.3599   24.1267 C   0  0  0  0  0  0  0  0  0  0  0  0
    9.5423   11.5867   23.7538 C   0  0  2  0  0  0  0  0  0  0  0  0
   13.9057   16.1573   18.9283 C   0  0  0  0  0  0  0  0  0  0  0  0
    7.4917   11.6386   25.1352 N   0  0  0  0  0  0  0  0  0  0  0  0
   10.3568   12.3500   22.8107 N   0  0  0  0  0  0  0  0  0  0  0  0
   10.6481   14.2173   24.1545 O   0  0  0  0  0  0  0  0  0  0  0  0
    6.2987   13.4953   25.8775 O   0  0  0  0  0  0  0  0  0  0  0  0
   14.8181   17.0618   19.3924 F   0  0  0  0  0  0  0  0  0  0  0  0
   14.6274   15.2816   18.1683 F   0  0  0  0  0  0  0  0  0  0  0  0
   13.1222   16.8464   18.0485 F   0  0  0  0  0  0  0  0  0  0  0  0
   12.7914   15.4835   23.3893 H   0  0  0  0  0  0  0  0  0  0  0  0
   10.6483   13.2013   20.4271 H   0  0  0  0  0  0  0  0  0  0  0  0
   14.0991   16.5686   21.6050 H   0  0  0  0  0  0  0  0  0  0  0  0
   11.9564   14.2875   18.6450 H   0  0  0  0  0  0  0  0  0  0  0  0
    5.7413   12.0588   29.3363 H   0  0  0  0  0  0  0  0  0  0  0  0
    5.5028   13.4290   28.1072 H   0  0  0  0  0  0  0  0  0  0  0  0
    7.0116   10.7942   27.6054 H   0  0  0  0  0  0  0  0  0  0  0  0
    7.0818    9.8655   22.9879 H   0  0  0  0  0  0  0  0  0  0  0  0
    7.9669    8.5395   23.7376 H   0  0  0  0  0  0  0  0  0  0  0  0
   10.0235    9.4977   23.3777 H   0  0  0  0  0  0  0  0  0  0  0  0
    9.1444   10.2806   22.0610 H   0  0  0  0  0  0  0  0  0  0  0  0
    6.5215    9.8169   25.3692 H   0  0  0  0  0  0  0  0  0  0  0  0
    8.2311    9.7494   25.8048 H   0  0  0  0  0  0  0  0  0  0  0  0
    8.5396   13.3597   24.4874 H   0  0  0  0  0  0  0  0  0  0  0  0
    7.6276   12.4881   23.2532 H   0  0  0  0  0  0  0  0  0  0  0  0
   10.1712   11.4580   24.6447 H   0  0  0  0  0  0  0  0  0  0  0  0
   10.5069   11.9425   21.8927 H   0  0  0  0  0  0  0  0  0  0  0  0
  1  3  2  0  0  0  0
  1  5  1  0  0  0  0
  2  4  1  0  0  0  0
  2  5  2  0  0  0  0
  3  6  1  0  0  0  0
  4  6  2  0  0  0  0
  5  9  1  0  0  0  0
  6 16  1  0  0  0  0
  7  8  2  0  0  0  0
  8 10  1  0  0  0  0
  9 18  1  0  0  0  0
  9 19  2  0  0  0  0
 10 17  1  0  0  0  0
 10 20  2  0  0  0  0
 11 12  1  0  0  0  0
 11 13  1  0  0  0  0
 12 15  1  0  0  0  0
 13 17  1  0  0  0  0
 14 15  1  0  0  0  0
 14 17  1  0  0  0  0
 15 18  1  0  0  0  0
 16 21  1  0  0  0  0
 16 22  1  0  0  0  0
 16 23  1  0  0  0  0
  1 24  1  0  0  0  0
  2 25  1  0  0  0  0
  3 26  1  0  0  0  0
  4 27  1  0  0  0  0
  7 28  1  0  0  0  0
  7 29  1  0  0  0  0
  8 30  1  0  0  0  0
 11 31  1  0  0  0  0
 11 32  1  0  0  0  0
 12 33  1  0  0  0  0
 12 34  1  0  0  0  0
 13 35  1  0  0  0  0
 13 36  1  0  0  0  0
 14 37  1  0  0  0  0
 14 38  1  0  0  0  0
 15 39  1  0  0  0  0
 18 40  1  0  0  0  0
M  END
> <Catalog ID>
Z2285378042

> <MW>
326.314

> <MW (desalted)>
326.314

> <ClogP>
2.814

> <logS>
-4.31

> <HBD>
1

> <HBA>
2

> <TPSA>
49.41

> <RotBonds>
4

> <ROCS_ShapeQuery>
A71EV2A-x0451_0A_A71EV2A-x0310_0A_A71EV2A-x0416_0A_peptide

> <ROCS_TanimotoCombo>
0.468 

> <ROCS_ShapeTanimoto>
0.339 

> <ROCS_ColorTanimoto>
0.129 

> <ROCS_RefTversky>
0.302 

> <ROCS_RefColorTversky>
0.142 

> <ROCS_RefTverskyCombo>
0.444 

> <ROCS_FitTversky>
1.571 

> <ROCS_FitColorTversky>
0.592 

> <ROCS_FitTverskyCombo>
2.163 

> <ROCS_ColorScore>
-4.315

> <ROCS_Overlap>
2097.338

> <ROCS_Rank>
54                  

$$$$
untitled-dbase-450_7298
  -OEChem-11112315393D

 43 45  0     1  0  0  0  0  0999 V2000
    4.2721   12.4268   28.9461 C   0  0  0  0  0  0  0  0  0  0  0  0
    3.8314   12.7123   27.6539 C   0  0  0  0  0  0  0  0  0  0  0  0
    5.5441   11.8906   29.1466 C   0  0  0  0  0  0  0  0  0  0  0  0
    4.6626   12.4616   26.5621 C   0  0  0  0  0  0  0  0  0  0  0  0
    6.3753   11.6398   28.0549 C   0  0  0  0  0  0  0  0  0  0  0  0
    7.1922   12.6759   24.7810 C   0  0  0  0  0  0  0  0  0  0  0  0
    8.0178   12.3408   23.7222 C   0  0  0  0  0  0  0  0  0  0  0  0
    5.9346   11.9253   26.7626 C   0  0  0  0  0  0  0  0  0  0  0  0
    6.7936   11.6665   25.6340 C   0  0  0  0  0  0  0  0  0  0  0  0
    8.3903   11.0185   23.5867 C   0  0  0  0  0  0  0  0  0  0  0  0
   13.9378   13.8251   23.5807 C   0  0  0  0  0  0  0  0  0  0  0  0
   12.9349   13.4360   24.3708 C   0  0  0  0  0  0  0  0  0  0  0  0
   11.5762   13.3309   23.7998 C   0  0  0  0  0  0  0  0  0  0  0  0
   11.5089   10.0003   23.2094 C   0  0  0  0  0  0  0  0  0  0  0  0
   10.1762    9.5666   22.5927 C   0  0  0  0  0  0  0  0  0  0  0  0
   12.1502   11.2090   22.5182 C   0  0  0  0  0  0  0  0  0  0  0  0
    9.4233   11.5912   21.3825 C   0  0  0  0  0  0  0  0  0  0  0  0
   10.3444   12.7627   21.7422 C   0  0  0  0  0  0  0  0  0  0  0  0
    7.1735   10.3807   25.4772 N   0  0  0  0  0  0  0  0  0  0  0  0
    7.9852   10.0515   24.4368 N   0  0  0  0  0  0  0  0  0  0  0  0
    9.2222   10.6809   22.5181 N   0  0  3  0  0  0  0  0  0  0  0  0
   11.3814   12.4460   22.7358 N   0  0  0  0  0  0  0  0  0  0  0  0
   10.6935   14.0283   24.3030 O   0  0  0  0  0  0  0  0  0  0  0  0
    3.6253   12.6237   29.7960 H   0  0  0  0  0  0  0  0  0  0  0  0
    2.8417   13.1314   27.4977 H   0  0  0  0  0  0  0  0  0  0  0  0
    5.8884   11.6693   30.1526 H   0  0  0  0  0  0  0  0  0  0  0  0
    4.3046   12.6899   25.5609 H   0  0  0  0  0  0  0  0  0  0  0  0
    7.3645   11.2222   28.2268 H   0  0  0  0  0  0  0  0  0  0  0  0
    6.8762   13.7044   24.9233 H   0  0  0  0  0  0  0  0  0  0  0  0
    8.3538   13.1040   23.0279 H   0  0  0  0  0  0  0  0  0  0  0  0
   14.9563   13.9210   23.9420 H   0  0  0  0  0  0  0  0  0  0  0  0
   13.7502   14.0583   22.5380 H   0  0  0  0  0  0  0  0  0  0  0  0
   13.0825   13.1945   25.4153 H   0  0  0  0  0  0  0  0  0  0  0  0
   11.3296   10.2581   24.2604 H   0  0  0  0  0  0  0  0  0  0  0  0
   12.2070    9.1548   23.2192 H   0  0  0  0  0  0  0  0  0  0  0  0
   10.3521    9.1604   21.5888 H   0  0  0  0  0  0  0  0  0  0  0  0
    9.7484    8.7448   23.1802 H   0  0  0  0  0  0  0  0  0  0  0  0
   13.1745   11.3655   22.8769 H   0  0  0  0  0  0  0  0  0  0  0  0
   12.2338   11.0156   21.4446 H   0  0  0  0  0  0  0  0  0  0  0  0
    8.4584   11.9787   21.0322 H   0  0  0  0  0  0  0  0  0  0  0  0
    9.8473   11.0370   20.5357 H   0  0  0  0  0  0  0  0  0  0  0  0
   10.8170   13.1335   20.8258 H   0  0  0  0  0  0  0  0  0  0  0  0
    9.7502   13.5903   22.1468 H   0  0  0  0  0  0  0  0  0  0  0  0
  1  2  1  0  0  0  0
  1  3  2  0  0  0  0
  2  4  2  0  0  0  0
  3  5  1  0  0  0  0
  4  8  1  0  0  0  0
  5  8  2  0  0  0  0
  6  7  2  0  0  0  0
  6  9  1  0  0  0  0
  7 10  1  0  0  0  0
  8  9  1  0  0  0  0
  9 19  2  0  0  0  0
 10 20  2  0  0  0  0
 10 21  1  0  0  0  0
 11 12  2  0  0  0  0
 12 13  1  0  0  0  0
 13 22  1  0  0  0  0
 13 23  2  0  0  0  0
 14 15  1  0  0  0  0
 14 16  1  0  0  0  0
 15 21  1  0  0  0  0
 16 22  1  0  0  0  0
 17 18  1  0  0  0  0
 17 21  1  0  0  0  0
 18 22  1  0  0  0  0
 19 20  1  0  0  0  0
  1 24  1  0  0  0  0
  2 25  1  0  0  0  0
  3 26  1  0  0  0  0
  4 27  1  0  0  0  0
  5 28  1  0  0  0  0
  6 29  1  0  0  0  0
  7 30  1  0  0  0  0
 11 31  1  0  0  0  0
 11 32  1  0  0  0  0
 12 33  1  0  0  0  0
 14 34  1  0  0  0  0
 14 35  1  0  0  0  0
 15 36  1  0  0  0  0
 15 37  1  0  0  0  0
 16 38  1  0  0  0  0
 16 39  1  0  0  0  0
 17 40  1  0  0  0  0
 17 41  1  0  0  0  0
 18 42  1  0  0  0  0
 18 43  1  0  0  0  0
M  END
> <Catalog ID>
Z2285377544

> <MW>
308.378

> <MW (desalted)>
308.378

> <ClogP>
2.044

> <logS>
-4.37

> <HBD>
0

> <HBA>
4

> <TPSA>
49.33

> <RotBonds>
3

> <ROCS_ShapeQuery>
A71EV2A-x0451_0A_A71EV2A-x0310_0A_A71EV2A-x0416_0A_peptide

> <ROCS_TanimotoCombo>
0.468 

> <ROCS_ShapeTanimoto>
0.311 

> <ROCS_ColorTanimoto>
0.157 

> <ROCS_RefTversky>
0.283 

> <ROCS_RefColorTversky>
0.174 

> <ROCS_RefTverskyCombo>
0.457 

> <ROCS_FitTversky>
1.456 

> <ROCS_FitColorTversky>
0.621 

> <ROCS_FitTverskyCombo>
2.078 

> <ROCS_ColorScore>
-5.302

> <ROCS_Overlap>
1966.389

> <ROCS_Rank>
55                  

$$$$
untitled-dbase-568_35
  -OEChem-11112315393D

 37 38  0     0  0  0  0  0  0999 V2000
    7.8602   12.8912   25.0106 C   0  0  0  0  0  0  0  0  0  0  0  0
    6.7798   12.6512   25.8677 C   0  0  0  0  0  0  0  0  0  0  0  0
    6.9662   10.2997   25.4444 C   0  0  0  0  0  0  0  0  0  0  0  0
    8.0405   10.5321   24.5666 C   0  0  0  0  0  0  0  0  0  0  0  0
    8.5359   11.8414   24.3636 C   0  0  0  0  0  0  0  0  0  0  0  0
    6.3401   11.3554   26.0948 C   0  0  0  0  0  0  0  0  0  0  0  0
   10.4106   13.2767   23.5085 C   0  0  0  0  0  0  0  0  0  0  0  0
    8.6583    9.3452   23.8799 C   0  0  0  0  0  0  0  0  0  0  0  0
    9.1934    9.7810   22.5331 C   0  0  0  0  0  0  0  0  0  0  0  0
   10.1878   10.9110   22.7292 C   0  0  0  0  0  0  0  0  0  0  0  0
    6.8073    9.7216   28.8259 C   0  0  0  0  0  0  0  0  0  0  0  0
    6.2843   12.0476   29.4400 C   0  0  0  0  0  0  0  0  0  0  0  0
   11.2361   13.5629   22.2717 C   0  0  0  0  0  0  0  0  0  0  0  0
    9.6832   12.0639   23.5013 N   0  0  0  0  0  0  0  0  0  0  0  0
    5.8258   10.8311   28.7221 N   0  0  0  0  0  0  0  0  0  0  0  0
   10.4517   14.1025   24.4225 O   0  0  0  0  0  0  0  0  0  0  0  0
    4.2055   12.2569   27.2771 O   0  0  0  0  0  0  0  0  0  0  0  0
    4.3871    9.7985   26.8216 O   0  0  0  0  0  0  0  0  0  0  0  0
    5.0274   11.0533   27.2030 S   0  0  0  0  0  0  0  0  0  0  0  0
   11.9961   15.1276   22.5304 Cl  0  0  0  0  0  0  0  0  0  0  0  0
    8.1654   13.9275   24.9097 H   0  0  0  0  0  0  0  0  0  0  0  0
    6.3012   13.4921   26.3637 H   0  0  0  0  0  0  0  0  0  0  0  0
    6.6243    9.2818   25.6177 H   0  0  0  0  0  0  0  0  0  0  0  0
    9.4665    8.9643   24.5004 H   0  0  0  0  0  0  0  0  0  0  0  0
    7.9203    8.5604   23.7335 H   0  0  0  0  0  0  0  0  0  0  0  0
    9.6762    8.9342   22.0331 H   0  0  0  0  0  0  0  0  0  0  0  0
    8.3757   10.1152   21.8818 H   0  0  0  0  0  0  0  0  0  0  0  0
   11.1036   10.5517   23.2427 H   0  0  0  0  0  0  0  0  0  0  0  0
   10.5163   11.2389   21.7257 H   0  0  0  0  0  0  0  0  0  0  0  0
    6.4284    8.8439   28.2819 H   0  0  0  0  0  0  0  0  0  0  0  0
    7.7658   10.0381   28.3888 H   0  0  0  0  0  0  0  0  0  0  0  0
    6.9553    9.4610   29.8843 H   0  0  0  0  0  0  0  0  0  0  0  0
    5.5295   12.8411   29.3372 H   0  0  0  0  0  0  0  0  0  0  0  0
    6.4265   11.8128   30.5052 H   0  0  0  0  0  0  0  0  0  0  0  0
    7.2370   12.3899   29.0097 H   0  0  0  0  0  0  0  0  0  0  0  0
   10.5749   13.6042   21.4157 H   0  0  0  0  0  0  0  0  0  0  0  0
   11.9893   12.7920   22.1720 H   0  0  0  0  0  0  0  0  0  0  0  0
  1  2  2  0  0  0  0
  1  5  1  0  0  0  0
  2  6  1  0  0  0  0
  3  4  1  0  0  0  0
  3  6  2  0  0  0  0
  4  5  2  0  0  0  0
  4  8  1  0  0  0  0
  5 14  1  0  0  0  0
  6 19  1  0  0  0  0
  7 13  1  0  0  0  0
  7 14  1  0  0  0  0
  7 16  2  0  0  0  0
  8  9  1  0  0  0  0
  9 10  1  0  0  0  0
 10 14  1  0  0  0  0
 11 15  1  0  0  0  0
 12 15  1  0  0  0  0
 13 20  1  0  0  0  0
 15 19  1  0  0  0  0
 17 19  2  0  0  0  0
 18 19  2  0  0  0  0
  1 21  1  0  0  0  0
  2 22  1  0  0  0  0
  3 23  1  0  0  0  0
  8 24  1  0  0  0  0
  8 25  1  0  0  0  0
  9 26  1  0  0  0  0
  9 27  1  0  0  0  0
 10 28  1  0  0  0  0
 10 29  1  0  0  0  0
 11 30  1  0  0  0  0
 11 31  1  0  0  0  0
 11 32  1  0  0  0  0
 12 33  1  0  0  0  0
 12 34  1  0  0  0  0
 12 35  1  0  0  0  0
 13 36  1  0  0  0  0
 13 37  1  0  0  0  0
M  END
> <Catalog ID>
Z165156690

> <MW>
316.065

> <MW (desalted)>
316.804

> <ClogP>
1.579

> <logS>
-2.84

> <HBD>
0

> <HBA>
3

> <TPSA>
57.69

> <RotBonds>
2

> <ROCS_ShapeQuery>
A71EV2A-x0451_0A_A71EV2A-x0310_0A_A71EV2A-x0416_0A_peptide

> <ROCS_TanimotoCombo>
0.467 

> <ROCS_ShapeTanimoto>
0.314 

> <ROCS_ColorTanimoto>
0.153 

> <ROCS_RefTversky>
0.279 

> <ROCS_RefColorTversky>
0.161 

> <ROCS_RefTverskyCombo>
0.440 

> <ROCS_FitTversky>
1.657 

> <ROCS_FitColorTversky>
0.770 

> <ROCS_FitTverskyCombo>
2.426 

> <ROCS_ColorScore>
-4.882

> <ROCS_Overlap>
1937.984

> <ROCS_Rank>
56                  

$$$$
untitled-dbase-150_9
  -OEChem-11112315393D

 33 35  0     0  0  0  0  0  0999 V2000
   11.1283   13.6366   23.2078 C   0  0  0  0  0  0  0  0  0  0  0  0
    7.4917    9.7242   25.1190 C   0  0  0  0  0  0  0  0  0  0  0  0
    6.9601   10.9288   22.9853 C   0  0  0  0  0  0  0  0  0  0  0  0
    7.3717   12.2284   25.0970 C   0  0  0  0  0  0  0  0  0  0  0  0
    9.1727    9.7865   23.2601 C   0  0  0  0  0  0  0  0  0  0  0  0
    9.5835   11.0837   25.3675 C   0  0  0  0  0  0  0  0  0  0  0  0
    6.7672   10.9384   24.5129 C   0  0  0  0  0  0  0  0  0  0  0  0
    8.9927    9.7875   24.7875 C   0  0  0  0  0  0  0  0  0  0  0  0
    8.4601   11.0048   22.6397 C   0  0  0  0  0  0  0  0  0  0  0  0
    8.8735   12.3102   24.7604 C   0  0  0  0  0  0  0  0  0  0  0  0
    9.0312   12.3161   23.2236 C   0  0  0  0  0  0  0  0  0  0  0  0
   12.5482   13.6203   22.7020 C   0  0  0  0  0  0  0  0  0  0  0  0
   10.4076   12.5162   22.8319 N   0  0  0  0  0  0  0  0  0  0  0  0
   10.6951   14.5597   23.8953 O   0  0  0  0  0  0  0  0  0  0  0  0
   13.3467   12.1868   23.3670 Cl  0  0  0  0  0  0  0  0  0  0  0  0
    7.3482    9.7069   26.2065 H   0  0  0  0  0  0  0  0  0  0  0  0
    7.0597    8.7956   24.7263 H   0  0  0  0  0  0  0  0  0  0  0  0
    6.5229   10.0175   22.5585 H   0  0  0  0  0  0  0  0  0  0  0  0
    6.4287   11.7768   22.5360 H   0  0  0  0  0  0  0  0  0  0  0  0
    6.8486   13.1033   24.6916 H   0  0  0  0  0  0  0  0  0  0  0  0
    7.2298   12.2495   26.1847 H   0  0  0  0  0  0  0  0  0  0  0  0
   10.2397    9.7981   23.0078 H   0  0  0  0  0  0  0  0  0  0  0  0
    8.7613    8.8614   22.8374 H   0  0  0  0  0  0  0  0  0  0  0  0
    9.4674   11.0899   26.4584 H   0  0  0  0  0  0  0  0  0  0  0  0
   10.6609   11.1272   25.1680 H   0  0  0  0  0  0  0  0  0  0  0  0
    5.6990   10.8893   24.7513 H   0  0  0  0  0  0  0  0  0  0  0  0
    9.5034    8.9207   25.2214 H   0  0  0  0  0  0  0  0  0  0  0  0
    8.5789   10.9904   21.5498 H   0  0  0  0  0  0  0  0  0  0  0  0
    9.2884   13.2301   25.1889 H   0  0  0  0  0  0  0  0  0  0  0  0
    8.4845   13.1700   22.8048 H   0  0  0  0  0  0  0  0  0  0  0  0
   12.6050   13.5786   21.6115 H   0  0  0  0  0  0  0  0  0  0  0  0
   13.0691   14.5155   23.0527 H   0  0  0  0  0  0  0  0  0  0  0  0
   10.8620   11.8105   22.2610 H   0  0  0  0  0  0  0  0  0  0  0  0
  1 12  1  0  0  0  0
  1 13  1  0  0  0  0
  1 14  2  0  0  0  0
  2  7  1  0  0  0  0
  2  8  1  0  0  0  0
  3  7  1  0  0  0  0
  3  9  1  0  0  0  0
  4  7  1  0  0  0  0
  4 10  1  0  0  0  0
  5  8  1  0  0  0  0
  5  9  1  0  0  0  0
  6  8  1  0  0  0  0
  6 10  1  0  0  0  0
  9 11  1  0  0  0  0
 10 11  1  0  0  0  0
 11 13  1  0  0  0  0
 12 15  1  0  0  0  0
  2 16  1  0  0  0  0
  2 17  1  0  0  0  0
  3 18  1  0  0  0  0
  3 19  1  0  0  0  0
  4 20  1  0  0  0  0
  4 21  1  0  0  0  0
  5 22  1  0  0  0  0
  5 23  1  0  0  0  0
  6 24  1  0  0  0  0
  6 25  1  0  0  0  0
  7 26  1  0  0  0  0
  8 27  1  0  0  0  0
  9 28  1  0  0  0  0
 10 29  1  0  0  0  0
 11 30  1  0  0  0  0
 12 31  1  0  0  0  0
 12 32  1  0  0  0  0
 13 33  1  0  0  0  0
M  END
> <Catalog ID>
Z56886293

> <MW>
227.108

> <MW (desalted)>
227.73

> <ClogP>
3.234

> <logS>
-3.54

> <HBD>
1

> <HBA>
1

> <TPSA>
29.1

> <RotBonds>
2

> <ROCS_ShapeQuery>
A71EV2A-x0451_0A_A71EV2A-x0310_0A_A71EV2A-x0416_0A_peptide

> <ROCS_TanimotoCombo>
0.467 

> <ROCS_ShapeTanimoto>
0.269 

> <ROCS_ColorTanimoto>
0.198 

> <ROCS_RefTversky>
0.242 

> <ROCS_RefColorTversky>
0.217 

> <ROCS_RefTverskyCombo>
0.459 

> <ROCS_FitTversky>
1.701 

> <ROCS_FitColorTversky>
0.690 

> <ROCS_FitTverskyCombo>
2.391 

> <ROCS_ColorScore>
-6.640

> <ROCS_Overlap>
1677.481

> <ROCS_Rank>
57                  

$$$$
untitled-dbase-59_24
  -OEChem-11112315393D

 32 33  0     1  0  0  0  0  0999 V2000
   10.6477   14.4635   22.8110 C   0  0  0  0  0  0  0  0  0  0  0  0
    7.4829   10.6571   25.0554 C   0  0  0  0  0  0  0  0  0  0  0  0
    7.5222   12.0796   24.4768 C   0  0  0  0  0  0  0  0  0  0  0  0
    8.3214   10.5708   22.8294 C   0  0  0  0  0  0  0  0  0  0  0  0
    9.9267   10.3628   24.5729 C   0  0  0  0  0  0  0  0  0  0  0  0
    8.5078    9.9036   24.1906 C   0  0  1  0  0  0  0  0  0  0  0  0
    8.5937   11.9743   23.3752 C   0  0  2  0  0  0  0  0  0  0  0  0
    9.9748   11.8166   24.0554 C   0  0  2  0  0  0  0  0  0  0  0  0
   12.4392   12.2935   23.8432 C   0  0  0  0  0  0  0  0  0  0  0  0
   10.3769   15.5132   21.7636 C   0  0  0  0  0  0  0  0  0  0  0  0
   11.1369   12.0508   23.0966 C   0  0  2  0  0  0  0  0  0  0  0  0
   10.8366   13.2324   22.2534 N   0  0  0  0  0  0  0  0  0  0  0  0
   10.6979   14.7396   24.0083 O   0  0  0  0  0  0  0  0  0  0  0  0
   11.7746   15.5730   20.6784 Cl  0  0  0  0  0  0  0  0  0  0  0  0
    7.7374   10.6384   26.1198 H   0  0  0  0  0  0  0  0  0  0  0  0
    6.4810   10.2300   24.9350 H   0  0  0  0  0  0  0  0  0  0  0  0
    6.5477   12.3384   24.0472 H   0  0  0  0  0  0  0  0  0  0  0  0
    7.7678   12.8276   25.2371 H   0  0  0  0  0  0  0  0  0  0  0  0
    9.0487   10.2396   22.0820 H   0  0  0  0  0  0  0  0  0  0  0  0
    7.3093   10.4540   22.4273 H   0  0  0  0  0  0  0  0  0  0  0  0
   10.0982   10.3120   25.6532 H   0  0  0  0  0  0  0  0  0  0  0  0
   10.6774    9.7338   24.0807 H   0  0  0  0  0  0  0  0  0  0  0  0
    8.3809    8.8194   24.2063 H   0  0  0  0  0  0  0  0  0  0  0  0
    8.5413   12.7824   22.6423 H   0  0  0  0  0  0  0  0  0  0  0  0
   10.0780   12.5166   24.8935 H   0  0  0  0  0  0  0  0  0  0  0  0
   12.3482   13.1598   24.5075 H   0  0  0  0  0  0  0  0  0  0  0  0
   13.2600   12.4868   23.1446 H   0  0  0  0  0  0  0  0  0  0  0  0
   12.7137   11.4318   24.4620 H   0  0  0  0  0  0  0  0  0  0  0  0
    9.4837   15.2960   21.1725 H   0  0  0  0  0  0  0  0  0  0  0  0
   10.2571   16.4865   22.2472 H   0  0  0  0  0  0  0  0  0  0  0  0
   11.2473   11.1829   22.4391 H   0  0  0  0  0  0  0  0  0  0  0  0
   10.7716   13.1259   21.2630 H   0  0  0  0  0  0  0  0  0  0  0  0
  1 10  1  0  0  0  0
  1 12  1  0  0  0  0
  1 13  2  0  0  0  0
  2  3  1  0  0  0  0
  2  6  1  0  0  0  0
  3  7  1  0  0  0  0
  4  6  1  0  0  0  0
  4  7  1  0  0  0  0
  5  6  1  0  0  0  0
  5  8  1  0  0  0  0
  7  8  1  0  0  0  0
  8 11  1  0  0  0  0
  9 11  1  0  0  0  0
 10 14  1  0  0  0  0
 11 12  1  0  0  0  0
  2 15  1  0  0  0  0
  2 16  1  0  0  0  0
  3 17  1  0  0  0  0
  3 18  1  0  0  0  0
  4 19  1  0  0  0  0
  4 20  1  0  0  0  0
  5 21  1  0  0  0  0
  5 22  1  0  0  0  0
  6 23  1  0  0  0  0
  7 24  1  0  0  0  0
  8 25  1  0  0  0  0
  9 26  1  0  0  0  0
  9 27  1  0  0  0  0
  9 28  1  0  0  0  0
 10 29  1  0  0  0  0
 10 30  1  0  0  0  0
 11 31  1  0  0  0  0
 12 32  1  0  0  0  0
M  END
> <Catalog ID>
Z56896317

> <MW>
215.108

> <MW (desalted)>
215.72

> <ClogP>
2.769

> <logS>
-3.34

> <HBD>
1

> <HBA>
1

> <TPSA>
29.1

> <RotBonds>
3

> <ROCS_ShapeQuery>
A71EV2A-x0451_0A_A71EV2A-x0310_0A_A71EV2A-x0416_0A_peptide

> <ROCS_TanimotoCombo>
0.467 

> <ROCS_ShapeTanimoto>
0.262 

> <ROCS_ColorTanimoto>
0.205 

> <ROCS_RefTversky>
0.235 

> <ROCS_RefColorTversky>
0.223 

> <ROCS_RefTverskyCombo>
0.458 

> <ROCS_FitTversky>
1.760 

> <ROCS_FitColorTversky>
0.717 

> <ROCS_FitTverskyCombo>
2.477 

> <ROCS_ColorScore>
-6.799

> <ROCS_Overlap>
1630.628

> <ROCS_Rank>
58                  

$$$$
untitled-dbase-642_83
  -OEChem-11112315393D

 32 32  0     1  0  0  0  0  0999 V2000
   12.0929   15.2645   22.0512 C   0  0  0  0  0  0  0  0  0  0  0  0
   10.7425   13.5050   23.1656 C   0  0  0  0  0  0  0  0  0  0  0  0
    7.0144   10.0984   24.7803 C   0  0  0  0  0  0  0  0  0  0  0  0
    7.4189   11.4663   25.3209 C   0  0  0  0  0  0  0  0  0  0  0  0
    8.2194    9.3148   24.2613 C   0  0  0  0  0  0  0  0  0  0  0  0
    8.2307   12.2686   24.3074 C   0  0  0  0  0  0  0  0  0  0  0  0
    9.0427   10.0989   23.2253 C   0  0  2  0  0  0  0  0  0  0  0  0
    9.4404   11.4754   23.8011 C   0  0  1  0  0  0  0  0  0  0  0  0
    8.2939   10.1935   21.8887 C   0  0  0  0  0  0  0  0  0  0  0  0
   12.7382   15.5642   20.7220 C   0  0  0  0  0  0  0  0  0  0  0  0
   11.4445   14.0310   22.0706 N   0  0  0  0  0  0  0  0  0  0  0  0
   10.2125   12.2536   22.8612 N   0  0  0  0  0  0  0  0  0  0  0  0
   12.1396   16.0601   22.9873 O   0  0  0  0  0  0  0  0  0  0  0  0
   10.6129   14.0723   24.2492 O   0  0  0  0  0  0  0  0  0  0  0  0
   11.4603   15.6151   19.4976 Cl  0  0  0  0  0  0  0  0  0  0  0  0
    6.5237    9.5242   25.5747 H   0  0  0  0  0  0  0  0  0  0  0  0
    6.2819   10.2217   23.9758 H   0  0  0  0  0  0  0  0  0  0  0  0
    6.5182   12.0281   25.6042 H   0  0  0  0  0  0  0  0  0  0  0  0
    8.0058   11.3367   26.2400 H   0  0  0  0  0  0  0  0  0  0  0  0
    8.8612    9.0417   25.1146 H   0  0  0  0  0  0  0  0  0  0  0  0
    7.8731    8.3617   23.8288 H   0  0  0  0  0  0  0  0  0  0  0  0
    7.5930   12.5687   23.4723 H   0  0  0  0  0  0  0  0  0  0  0  0
    8.5839   13.1885   24.7826 H   0  0  0  0  0  0  0  0  0  0  0  0
    9.9648    9.5401   23.0478 H   0  0  0  0  0  0  0  0  0  0  0  0
   10.1257   11.3073   24.6552 H   0  0  0  0  0  0  0  0  0  0  0  0
    7.3668   10.7456   22.0265 H   0  0  0  0  0  0  0  0  0  0  0  0
    8.0657    9.1940   21.5252 H   0  0  0  0  0  0  0  0  0  0  0  0
    8.9132   10.7088   21.1576 H   0  0  0  0  0  0  0  0  0  0  0  0
   13.2286   16.5404   20.7684 H   0  0  0  0  0  0  0  0  0  0  0  0
   13.4733   14.8097   20.4309 H   0  0  0  0  0  0  0  0  0  0  0  0
   11.4833   13.4684   21.2253 H   0  0  0  0  0  0  0  0  0  0  0  0
   10.3375   11.8828   21.9255 H   0  0  0  0  0  0  0  0  0  0  0  0
  1 10  1  0  0  0  0
  1 11  1  0  0  0  0
  1 13  2  0  0  0  0
  2 11  1  0  0  0  0
  2 12  1  0  0  0  0
  2 14  2  0  0  0  0
  3  4  1  0  0  0  0
  3  5  1  0  0  0  0
  4  6  1  0  0  0  0
  5  7  1  0  0  0  0
  6  8  1  0  0  0  0
  7  8  1  0  0  0  0
  7  9  1  0  0  0  0
  8 12  1  0  0  0  0
 10 15  1  0  0  0  0
  3 16  1  0  0  0  0
  3 17  1  0  0  0  0
  4 18  1  0  0  0  0
  4 19  1  0  0  0  0
  5 20  1  0  0  0  0
  5 21  1  0  0  0  0
  6 22  1  0  0  0  0
  6 23  1  0  0  0  0
  7 24  1  0  0  0  0
  8 25  1  0  0  0  0
  9 26  1  0  0  0  0
  9 27  1  0  0  0  0
  9 28  1  0  0  0  0
 10 29  1  0  0  0  0
 10 30  1  0  0  0  0
 11 31  1  0  0  0  0
 12 32  1  0  0  0  0
M  END
> <Catalog ID>
Z56995158

> <MW>
232.098

> <MW (desalted)>
232.707

> <ClogP>
2.535

> <logS>
-2.82

> <HBD>
2

> <HBA>
2

> <TPSA>
58.2

> <RotBonds>
2

> <ROCS_ShapeQuery>
A71EV2A-x0451_0A_A71EV2A-x0310_0A_A71EV2A-x0416_0A_peptide

> <ROCS_TanimotoCombo>
0.467 

> <ROCS_ShapeTanimoto>
0.279 

> <ROCS_ColorTanimoto>
0.188 

> <ROCS_RefTversky>
0.248 

> <ROCS_RefColorTversky>
0.191 

> <ROCS_RefTverskyCombo>
0.439 

> <ROCS_FitTversky>
1.807 

> <ROCS_FitColorTversky>
0.916 

> <ROCS_FitTverskyCombo>
2.722 

> <ROCS_ColorScore>
-5.811

> <ROCS_Overlap>
1716.486

> <ROCS_Rank>
59                  

$$$$
untitled-dbase-352_89
  -OEChem-11112315393D

 31 32  0     0  0  0  0  0  0999 V2000
    8.4346   11.9508   23.9136 C   0  0  0  0  0  0  0  0  0  0  0  0
    9.9346   10.2752   23.4657 C   0  0  0  0  0  0  0  0  0  0  0  0
   10.8512   13.5900   23.1285 C   0  0  0  0  0  0  0  0  0  0  0  0
    5.5078   11.7902   25.8369 C   0  0  0  0  0  0  0  0  0  0  0  0
    6.8013   11.8738   26.6464 C   0  0  0  0  0  0  0  0  0  0  0  0
    5.3805   10.4767   25.0818 C   0  0  0  0  0  0  0  0  0  0  0  0
    7.9060   10.9278   26.1657 C   0  0  0  0  0  0  0  0  0  0  0  0
    6.5318   10.2757   24.0935 C   0  0  0  0  0  0  0  0  0  0  0  0
    7.8984   10.7042   24.6520 C   0  0  0  0  0  0  0  0  0  0  0  0
   11.6350   14.4517   22.1718 C   0  0  0  0  0  0  0  0  0  0  0  0
    8.9300    9.7397   24.2785 N   0  0  0  0  0  0  0  0  0  0  0  0
    9.5965   11.5922   23.2793 N   0  0  0  0  0  0  0  0  0  0  0  0
   10.3353   12.4522   22.5333 N   0  0  0  0  0  0  0  0  0  0  0  0
    7.8963   13.0495   23.9107 O   0  0  0  0  0  0  0  0  0  0  0  0
   10.9031    9.6718   23.0254 O   0  0  0  0  0  0  0  0  0  0  0  0
   10.6971   13.9032   24.3077 O   0  0  0  0  0  0  0  0  0  0  0  0
   10.5234   15.6314   21.4591 Cl  0  0  0  0  0  0  0  0  0  0  0  0
    4.6477   11.9120   26.5129 H   0  0  0  0  0  0  0  0  0  0  0  0
    5.4669   12.6299   25.1280 H   0  0  0  0  0  0  0  0  0  0  0  0
    7.1729   12.9155   26.6318 H   0  0  0  0  0  0  0  0  0  0  0  0
    6.5795   11.6602   27.7087 H   0  0  0  0  0  0  0  0  0  0  0  0
    5.3649    9.6429   25.7932 H   0  0  0  0  0  0  0  0  0  0  0  0
    4.4238   10.4493   24.5476 H   0  0  0  0  0  0  0  0  0  0  0  0
    8.8753   11.3255   26.4973 H   0  0  0  0  0  0  0  0  0  0  0  0
    7.7699    9.9634   26.6765 H   0  0  0  0  0  0  0  0  0  0  0  0
    6.5694    9.2096   23.8283 H   0  0  0  0  0  0  0  0  0  0  0  0
    6.3020   10.8232   23.1696 H   0  0  0  0  0  0  0  0  0  0  0  0
   12.4184   14.9824   22.7195 H   0  0  0  0  0  0  0  0  0  0  0  0
   12.0916   13.8722   21.3653 H   0  0  0  0  0  0  0  0  0  0  0  0
    8.9220    8.7692   24.5790 H   0  0  0  0  0  0  0  0  0  0  0  0
   10.4749   12.2151   21.5534 H   0  0  0  0  0  0  0  0  0  0  0  0
  1  9  1  0  0  0  0
  1 12  1  0  0  0  0
  1 14  2  0  0  0  0
  2 11  1  0  0  0  0
  2 12  1  0  0  0  0
  2 15  2  0  0  0  0
  3 10  1  0  0  0  0
  3 13  1  0  0  0  0
  3 16  2  0  0  0  0
  4  5  1  0  0  0  0
  4  6  1  0  0  0  0
  5  7  1  0  0  0  0
  6  8  1  0  0  0  0
  7  9  1  0  0  0  0
  8  9  1  0  0  0  0
  9 11  1  0  0  0  0
 10 17  1  0  0  0  0
 12 13  1  0  0  0  0
  4 18  1  0  0  0  0
  4 19  1  0  0  0  0
  5 20  1  0  0  0  0
  5 21  1  0  0  0  0
  6 22  1  0  0  0  0
  6 23  1  0  0  0  0
  7 24  1  0  0  0  0
  7 25  1  0  0  0  0
  8 26  1  0  0  0  0
  8 27  1  0  0  0  0
 10 28  1  0  0  0  0
 10 29  1  0  0  0  0
 11 30  1  0  0  0  0
 13 31  1  0  0  0  0
M  END
> <Catalog ID>
Z56926564

> <MW>
259.072

> <MW (desalted)>
259.689

> <ClogP>
-0.074

> <logS>
-2.32

> <HBD>
2

> <HBA>
3

> <TPSA>
78.51

> <RotBonds>
2

> <ROCS_ShapeQuery>
A71EV2A-x0451_0A_A71EV2A-x0310_0A_A71EV2A-x0416_0A_peptide

> <ROCS_TanimotoCombo>
0.466 

> <ROCS_ShapeTanimoto>
0.310 

> <ROCS_ColorTanimoto>
0.156 

> <ROCS_RefTversky>
0.273 

> <ROCS_RefColorTversky>
0.171 

> <ROCS_RefTverskyCombo>
0.445 

> <ROCS_FitTversky>
1.760 

> <ROCS_FitColorTversky>
0.634 

> <ROCS_FitTverskyCombo>
2.395 

> <ROCS_ColorScore>
-5.224

> <ROCS_Overlap>
1896.013

> <ROCS_Rank>
60                  

$$$$
untitled-dbase-909_13
  -OEChem-11112315393D

 25 26  0     0  0  0  0  0  0999 V2000
    9.1098    9.3925   23.1243 C   0  0  0  0  0  0  0  0  0  0  0  0
    9.9406   10.4089   22.6413 C   0  0  0  0  0  0  0  0  0  0  0  0
    8.7581   12.0937   23.9418 C   0  0  0  0  0  0  0  0  0  0  0  0
    7.9141   11.0853   24.4370 C   0  0  0  0  0  0  0  0  0  0  0  0
    8.1093    9.7717   24.0197 C   0  0  0  0  0  0  0  0  0  0  0  0
    9.7696   11.7362   23.0415 C   0  0  0  0  0  0  0  0  0  0  0  0
    6.4197    9.9351   25.4386 C   0  0  0  0  0  0  0  0  0  0  0  0
   10.9973   13.8884   23.1942 C   0  0  0  0  0  0  0  0  0  0  0  0
   11.9306   14.7275   22.3525 C   0  0  0  0  0  0  0  0  0  0  0  0
    5.2944    9.4785   26.2752 C   0  0  0  0  0  0  0  0  0  0  0  0
    6.8604   11.1673   25.3181 N   0  0  0  0  0  0  0  0  0  0  0  0
    7.1396    9.0579   24.6761 N   0  0  0  0  0  0  0  0  0  0  0  0
   10.6208   12.7221   22.5391 N   0  0  0  0  0  0  0  0  0  0  0  0
   10.6490   14.2786   24.3053 O   0  0  0  0  0  0  0  0  0  0  0  0
    4.6747   10.4788   26.9822 F   0  0  0  0  0  0  0  0  0  0  0  0
    4.2788    8.8773   25.5743 F   0  0  0  0  0  0  0  0  0  0  0  0
    5.6619    8.5561   27.2212 F   0  0  0  0  0  0  0  0  0  0  0  0
   11.5333   14.4359   20.6517 Cl  0  0  0  0  0  0  0  0  0  0  0  0
    9.2410    8.3616   22.8156 H   0  0  0  0  0  0  0  0  0  0  0  0
   10.7313   10.1474   21.9405 H   0  0  0  0  0  0  0  0  0  0  0  0
    8.6235   13.1251   24.2546 H   0  0  0  0  0  0  0  0  0  0  0  0
   12.9833   14.4829   22.5158 H   0  0  0  0  0  0  0  0  0  0  0  0
   11.7741   15.7857   22.5800 H   0  0  0  0  0  0  0  0  0  0  0  0
    6.9877    8.0603   24.6072 H   0  0  0  0  0  0  0  0  0  0  0  0
   11.0007   12.5728   21.6066 H   0  0  0  0  0  0  0  0  0  0  0  0
  1  2  2  0  0  0  0
  1  5  1  0  0  0  0
  2  6  1  0  0  0  0
  3  4  1  0  0  0  0
  3  6  2  0  0  0  0
  4  5  2  0  0  0  0
  4 11  1  0  0  0  0
  5 12  1  0  0  0  0
  6 13  1  0  0  0  0
  7 10  1  0  0  0  0
  7 11  2  0  0  0  0
  7 12  1  0  0  0  0
  8  9  1  0  0  0  0
  8 13  1  0  0  0  0
  8 14  2  0  0  0  0
  9 18  1  0  0  0  0
 10 15  1  0  0  0  0
 10 16  1  0  0  0  0
 10 17  1  0  0  0  0
  1 19  1  0  0  0  0
  2 20  1  0  0  0  0
  3 21  1  0  0  0  0
  9 22  1  0  0  0  0
  9 23  1  0  0  0  0
 12 24  1  0  0  0  0
 13 25  1  0  0  0  0
M  END
> <Catalog ID>
Z277111820

> <MW>
277.023

> <MW (desalted)>
277.63

> <ClogP>
2.887

> <logS>
-3.61

> <HBD>
2

> <HBA>
2

> <TPSA>
57.78

> <RotBonds>
3

> <ROCS_ShapeQuery>
A71EV2A-x0451_0A_A71EV2A-x0310_0A_A71EV2A-x0416_0A_peptide

> <ROCS_TanimotoCombo>
0.466 

> <ROCS_ShapeTanimoto>
0.291 

> <ROCS_ColorTanimoto>
0.175 

> <ROCS_RefTversky>
0.262 

> <ROCS_RefColorTversky>
0.189 

> <ROCS_RefTverskyCombo>
0.452 

> <ROCS_FitTversky>
1.592 

> <ROCS_FitColorTversky>
0.698 

> <ROCS_FitTverskyCombo>
2.290 

> <ROCS_ColorScore>
-5.765

> <ROCS_Overlap>
1820.957

> <ROCS_Rank>
61                  

$$$$
untitled-dbase-279_273
  -OEChem-11112315393D

 38 40  0     0  0  0  0  0  0999 V2000
   10.0222   10.2365   23.5218 C   0  0  0  0  0  0  0  0  0  0  0  0
    8.9698    9.7346   24.2878 C   0  0  0  0  0  0  0  0  0  0  0  0
    8.9909   12.4234   23.5250 C   0  0  0  0  0  0  0  0  0  0  0  0
   10.0354   11.5799   23.1454 C   0  0  0  0  0  0  0  0  0  0  0  0
    7.9315   10.5804   24.6791 C   0  0  0  0  0  0  0  0  0  0  0  0
    7.9312   11.9191   24.2795 C   0  0  0  0  0  0  0  0  0  0  0  0
   10.8465   14.4690   23.0808 C   0  0  0  0  0  0  0  0  0  0  0  0
   12.7316   10.7575   20.9557 C   0  0  0  0  0  0  0  0  0  0  0  0
   13.5417   11.6212   21.9045 C   0  0  0  0  0  0  0  0  0  0  0  0
   11.3546   11.4180   20.9357 C   0  0  0  0  0  0  0  0  0  0  0  0
   12.5534   11.9121   23.0255 C   0  0  0  0  0  0  0  0  0  0  0  0
    6.1303   11.0389   26.0689 C   0  0  0  0  0  0  0  0  0  0  0  0
    5.7544   12.1080   25.0615 C   0  0  0  0  0  0  0  0  0  0  0  0
   11.1992   12.1303   22.3081 C   0  0  0  0  0  0  0  0  0  0  0  0
   10.6952   15.8845   22.5851 C   0  0  0  0  0  0  0  0  0  0  0  0
   11.0152   13.5527   22.0570 N   0  0  0  0  0  0  0  0  0  0  0  0
   10.8332   14.1967   24.2799 O   0  0  0  0  0  0  0  0  0  0  0  0
    6.9367   10.0343   25.4474 O   0  0  0  0  0  0  0  0  0  0  0  0
    6.9247   12.7909   24.6038 O   0  0  0  0  0  0  0  0  0  0  0  0
   12.3101   16.6046   22.4924 Cl  0  0  0  0  0  0  0  0  0  0  0  0
   10.8310    9.5735   23.2257 H   0  0  0  0  0  0  0  0  0  0  0  0
    8.9718    8.6888   24.5830 H   0  0  0  0  0  0  0  0  0  0  0  0
    8.9971   13.4686   23.2253 H   0  0  0  0  0  0  0  0  0  0  0  0
   13.1751   10.7721   19.9611 H   0  0  0  0  0  0  0  0  0  0  0  0
   12.6704    9.7245   21.2893 H   0  0  0  0  0  0  0  0  0  0  0  0
   14.4227   11.1109   22.2732 H   0  0  0  0  0  0  0  0  0  0  0  0
   13.8450   12.5390   21.4122 H   0  0  0  0  0  0  0  0  0  0  0  0
   11.2361   12.1057   20.0891 H   0  0  0  0  0  0  0  0  0  0  0  0
   10.5829   10.6432   20.8202 H   0  0  0  0  0  0  0  0  0  0  0  0
   12.4967   11.0456   23.6935 H   0  0  0  0  0  0  0  0  0  0  0  0
   12.8527   12.7691   23.6332 H   0  0  0  0  0  0  0  0  0  0  0  0
    6.6856   11.4593   26.9166 H   0  0  0  0  0  0  0  0  0  0  0  0
    5.2318   10.5507   26.4588 H   0  0  0  0  0  0  0  0  0  0  0  0
    5.2354   11.6817   24.1940 H   0  0  0  0  0  0  0  0  0  0  0  0
    5.0950   12.8499   25.5226 H   0  0  0  0  0  0  0  0  0  0  0  0
   10.2316   15.9361   21.5968 H   0  0  0  0  0  0  0  0  0  0  0  0
   10.0890   16.4549   23.2941 H   0  0  0  0  0  0  0  0  0  0  0  0
   11.0103   13.8840   21.0974 H   0  0  0  0  0  0  0  0  0  0  0  0
  1  2  2  0  0  0  0
  1  4  1  0  0  0  0
  2  5  1  0  0  0  0
  3  4  2  0  0  0  0
  3  6  1  0  0  0  0
  4 14  1  0  0  0  0
  5  6  2  0  0  0  0
  5 18  1  0  0  0  0
  6 19  1  0  0  0  0
  7 15  1  0  0  0  0
  7 16  1  0  0  0  0
  7 17  2  0  0  0  0
  8  9  1  0  0  0  0
  8 10  1  0  0  0  0
  9 11  1  0  0  0  0
 10 14  1  0  0  0  0
 11 14  1  0  0  0  0
 12 13  1  0  0  0  0
 12 18  1  0  0  0  0
 13 19  1  0  0  0  0
 14 16  1  0  0  0  0
 15 20  1  0  0  0  0
  1 21  1  0  0  0  0
  2 22  1  0  0  0  0
  3 23  1  0  0  0  0
  8 24  1  0  0  0  0
  8 25  1  0  0  0  0
  9 26  1  0  0  0  0
  9 27  1  0  0  0  0
 10 28  1  0  0  0  0
 10 29  1  0  0  0  0
 11 30  1  0  0  0  0
 11 31  1  0  0  0  0
 12 32  1  0  0  0  0
 12 33  1  0  0  0  0
 13 34  1  0  0  0  0
 13 35  1  0  0  0  0
 15 36  1  0  0  0  0
 15 37  1  0  0  0  0
 16 38  1  0  0  0  0
M  END
> <Catalog ID>
Z168796170

> <MW>
295.098

> <MW (desalted)>
295.761

> <ClogP>
2.949

> <logS>
-3.77

> <HBD>
1

> <HBA>
3

> <TPSA>
47.56

> <RotBonds>
3

> <ROCS_ShapeQuery>
A71EV2A-x0451_0A_A71EV2A-x0310_0A_A71EV2A-x0416_0A_peptide

> <ROCS_TanimotoCombo>
0.466 

> <ROCS_ShapeTanimoto>
0.306 

> <ROCS_ColorTanimoto>
0.160 

> <ROCS_RefTversky>
0.275 

> <ROCS_RefColorTversky>
0.175 

> <ROCS_RefTverskyCombo>
0.450 

> <ROCS_FitTversky>
1.570 

> <ROCS_FitColorTversky>
0.648 

> <ROCS_FitTverskyCombo>
2.218 

> <ROCS_ColorScore>
-5.344

> <ROCS_Overlap>
1908.852

> <ROCS_Rank>
62                  

$$$$
untitled-dbase-775_878
  -OEChem-11112315393D

 43 45  0     1  0  0  0  0  0999 V2000
    9.5596    9.4243   23.0485 C   0  0  0  0  0  0  0  0  0  0  0  0
    8.3552    9.3700   23.7497 C   0  0  0  0  0  0  0  0  0  0  0  0
   10.2470   10.6305   22.9353 C   0  0  0  0  0  0  0  0  0  0  0  0
    7.9804   12.8943   24.8325 C   0  0  0  0  0  0  0  0  0  0  0  0
    6.7798   12.7765   25.5160 C   0  0  0  0  0  0  0  0  0  0  0  0
    6.6282   10.5311   25.0578 C   0  0  0  0  0  0  0  0  0  0  0  0
    7.8287   10.5284   24.3448 C   0  0  0  0  0  0  0  0  0  0  0  0
    8.5217   11.7515   24.2324 C   0  0  0  0  0  0  0  0  0  0  0  0
    9.7331   11.7878   23.5228 C   0  0  0  0  0  0  0  0  0  0  0  0
   15.3209   15.6974   27.2288 C   0  0  0  0  0  0  0  0  0  0  0  0
   15.3257   15.3429   25.9421 C   0  0  0  0  0  0  0  0  0  0  0  0
   15.5935   13.9322   25.5913 C   0  0  0  0  0  0  0  0  0  0  0  0
   14.0354   11.1283   24.2281 C   0  0  0  0  0  0  0  0  0  0  0  0
   15.2503   12.0461   24.0497 C   0  0  0  0  0  0  0  0  0  0  0  0
   12.6912   11.8271   24.4209 C   0  0  0  0  0  0  0  0  0  0  0  0
   14.1441   14.2406   23.5347 C   0  0  0  0  0  0  0  0  0  0  0  0
   13.2818   13.4486   22.5541 C   0  0  0  0  0  0  0  0  0  0  0  0
    6.0891   11.6236   25.6443 N   0  0  0  0  0  0  0  0  0  0  0  0
   14.9990   13.4373   24.4279 N   0  0  0  0  0  0  0  0  0  0  0  0
   12.2550   12.6037   23.2271 N   0  0  2  0  0  0  0  0  0  0  0  0
   16.3255   13.2827   26.3393 O   0  0  0  0  0  0  0  0  0  0  0  0
   10.3281   13.8442   22.0426 O   0  0  0  0  0  0  0  0  0  0  0  0
   10.5633   14.0357   24.5437 O   0  0  0  0  0  0  0  0  0  0  0  0
   10.6768   13.2664   23.3230 S   0  0  0  0  0  0  0  0  0  0  0  0
    9.9609    8.5252   22.5904 H   0  0  0  0  0  0  0  0  0  0  0  0
    7.8321    8.4199   23.8296 H   0  0  0  0  0  0  0  0  0  0  0  0
   11.1845   10.6551   22.3856 H   0  0  0  0  0  0  0  0  0  0  0  0
    8.4594   13.8666   24.7862 H   0  0  0  0  0  0  0  0  0  0  0  0
    6.3285   13.6398   25.9943 H   0  0  0  0  0  0  0  0  0  0  0  0
    6.0444    9.6231   25.1815 H   0  0  0  0  0  0  0  0  0  0  0  0
   15.1309   16.7166   27.5484 H   0  0  0  0  0  0  0  0  0  0  0  0
   15.5111   14.9565   27.9982 H   0  0  0  0  0  0  0  0  0  0  0  0
   15.1401   16.0526   25.1466 H   0  0  0  0  0  0  0  0  0  0  0  0
   13.9691   10.4823   23.3341 H   0  0  0  0  0  0  0  0  0  0  0  0
   14.2237   10.4421   25.0752 H   0  0  0  0  0  0  0  0  0  0  0  0
   16.0819   11.6428   24.6453 H   0  0  0  0  0  0  0  0  0  0  0  0
   15.5910   12.0289   23.0037 H   0  0  0  0  0  0  0  0  0  0  0  0
   11.8981   11.1090   24.7319 H   0  0  0  0  0  0  0  0  0  0  0  0
   12.7886   12.5193   25.2870 H   0  0  0  0  0  0  0  0  0  0  0  0
   14.8016   14.9339   22.9768 H   0  0  0  0  0  0  0  0  0  0  0  0
   13.5045   14.9092   24.1380 H   0  0  0  0  0  0  0  0  0  0  0  0
   12.7592   14.1483   21.8942 H   0  0  0  0  0  0  0  0  0  0  0  0
   13.9238   12.8152   21.9340 H   0  0  0  0  0  0  0  0  0  0  0  0
  1  2  1  0  0  0  0
  1  3  2  0  0  0  0
  2  7  2  0  0  0  0
  3  9  1  0  0  0  0
  4  5  2  0  0  0  0
  4  8  1  0  0  0  0
  5 18  1  0  0  0  0
  6  7  1  0  0  0  0
  6 18  2  0  0  0  0
  7  8  1  0  0  0  0
  8  9  2  0  0  0  0
  9 24  1  0  0  0  0
 10 11  2  0  0  0  0
 11 12  1  0  0  0  0
 12 19  1  0  0  0  0
 12 21  2  0  0  0  0
 13 14  1  0  0  0  0
 13 15  1  0  0  0  0
 14 19  1  0  0  0  0
 15 20  1  0  0  0  0
 16 17  1  0  0  0  0
 16 19  1  0  0  0  0
 17 20  1  0  0  0  0
 20 24  1  0  0  0  0
 22 24  2  0  0  0  0
 23 24  2  0  0  0  0
  1 25  1  0  0  0  0
  2 26  1  0  0  0  0
  3 27  1  0  0  0  0
  4 28  1  0  0  0  0
  5 29  1  0  0  0  0
  6 30  1  0  0  0  0
 10 31  1  0  0  0  0
 10 32  1  0  0  0  0
 11 33  1  0  0  0  0
 13 34  1  0  0  0  0
 13 35  1  0  0  0  0
 14 36  1  0  0  0  0
 14 37  1  0  0  0  0
 15 38  1  0  0  0  0
 15 39  1  0  0  0  0
 16 40  1  0  0  0  0
 16 41  1  0  0  0  0
 17 42  1  0  0  0  0
 17 43  1  0  0  0  0
M  END
> <Catalog ID>
Z2285377475

> <MW>
345.416

> <MW (desalted)>
345.416

> <ClogP>
1.254

> <logS>
-3.71

> <HBD>
0

> <HBA>
4

> <TPSA>
70.58

> <RotBonds>
2

> <ROCS_ShapeQuery>
A71EV2A-x0451_0A_A71EV2A-x0310_0A_A71EV2A-x0416_0A_peptide

> <ROCS_TanimotoCombo>
0.466 

> <ROCS_ShapeTanimoto>
0.330 

> <ROCS_ColorTanimoto>
0.136 

> <ROCS_RefTversky>
0.297 

> <ROCS_RefColorTversky>
0.155 

> <ROCS_RefTverskyCombo>
0.453 

> <ROCS_FitTversky>
1.505 

> <ROCS_FitColorTversky>
0.516 

> <ROCS_FitTverskyCombo>
2.020 

> <ROCS_ColorScore>
-4.742

> <ROCS_Overlap>
2064.913

> <ROCS_Rank>
63                  

$$$$
untitled-dbase-728_6
  -OEChem-11112315393D

 39 41  0     1  0  0  0  0  0999 V2000
   11.3769   14.3168   23.0372 C   0  0  0  0  0  0  0  0  0  0  0  0
    7.7656    9.4973   23.7512 C   0  0  0  0  0  0  0  0  0  0  0  0
    7.2763   11.3932   25.3177 C   0  0  0  0  0  0  0  0  0  0  0  0
    9.5332   10.3006   25.3381 C   0  0  0  0  0  0  0  0  0  0  0  0
    7.5050   11.8263   22.8580 C   0  0  0  0  0  0  0  0  0  0  0  0
    9.7670   10.7312   22.8784 C   0  0  0  0  0  0  0  0  0  0  0  0
    9.2768   12.6313   24.4485 C   0  0  0  0  0  0  0  0  0  0  0  0
    7.0068   10.8247   23.9145 C   0  0  0  0  0  0  0  0  0  0  0  0
    9.2750    9.7266   23.9351 C   0  0  0  0  0  0  0  0  0  0  0  0
    8.7832   11.6320   25.5094 C   0  0  0  0  0  0  0  0  0  0  0  0
    9.0221   12.0791   23.0259 C   0  0  0  0  0  0  0  0  0  0  0  0
    9.3094   12.5424   20.5664 C   0  0  0  0  0  0  0  0  0  0  0  0
   12.8808   14.3763   23.1209 C   0  0  0  0  0  0  0  0  0  0  0  0
    9.5142   13.0758   21.9732 C   0  0  2  0  0  0  0  0  0  0  0  0
   10.9559   13.3288   22.1936 N   0  0  0  0  0  0  0  0  0  0  0  0
   10.6605   15.0786   23.6843 O   0  0  0  0  0  0  0  0  0  0  0  0
   13.3956   13.3100   24.4372 Cl  0  0  0  0  0  0  0  0  0  0  0  0
    7.4056    8.7673   24.4867 H   0  0  0  0  0  0  0  0  0  0  0  0
    7.5692    9.0727   22.7590 H   0  0  0  0  0  0  0  0  0  0  0  0
    6.7275   12.3333   25.4528 H   0  0  0  0  0  0  0  0  0  0  0  0
    6.9075   10.6969   26.0809 H   0  0  0  0  0  0  0  0  0  0  0  0
    9.2044    9.5848   26.1016 H   0  0  0  0  0  0  0  0  0  0  0  0
   10.6088   10.4544   25.4882 H   0  0  0  0  0  0  0  0  0  0  0  0
    7.2940   11.4374   21.8535 H   0  0  0  0  0  0  0  0  0  0  0  0
    6.9504   12.7687   22.9536 H   0  0  0  0  0  0  0  0  0  0  0  0
   10.8487   10.8814   22.9887 H   0  0  0  0  0  0  0  0  0  0  0  0
    9.6075   10.3173   21.8744 H   0  0  0  0  0  0  0  0  0  0  0  0
    8.7627   13.5922   24.5802 H   0  0  0  0  0  0  0  0  0  0  0  0
   10.3473   12.8244   24.5945 H   0  0  0  0  0  0  0  0  0  0  0  0
    5.9322   10.6546   23.7845 H   0  0  0  0  0  0  0  0  0  0  0  0
    9.8101    8.7775   23.8197 H   0  0  0  0  0  0  0  0  0  0  0  0
    8.9691   12.0350   26.5112 H   0  0  0  0  0  0  0  0  0  0  0  0
    9.8448   11.5958   20.4346 H   0  0  0  0  0  0  0  0  0  0  0  0
    9.6835   13.2503   19.8197 H   0  0  0  0  0  0  0  0  0  0  0  0
    8.2506   12.3533   20.3570 H   0  0  0  0  0  0  0  0  0  0  0  0
   13.3659   14.0516   22.1971 H   0  0  0  0  0  0  0  0  0  0  0  0
   13.1918   15.4000   23.3468 H   0  0  0  0  0  0  0  0  0  0  0  0
    8.9767   14.0191   22.0943 H   0  0  0  0  0  0  0  0  0  0  0  0
   11.6319   12.7677   21.7176 H   0  0  0  0  0  0  0  0  0  0  0  0
  1 13  1  0  0  0  0
  1 15  1  0  0  0  0
  1 16  2  0  0  0  0
  2  8  1  0  0  0  0
  2  9  1  0  0  0  0
  3  8  1  0  0  0  0
  3 10  1  0  0  0  0
  4  9  1  0  0  0  0
  4 10  1  0  0  0  0
  5  8  1  0  0  0  0
  5 11  1  0  0  0  0
  6  9  1  0  0  0  0
  6 11  1  0  0  0  0
  7 10  1  0  0  0  0
  7 11  1  0  0  0  0
 11 14  1  0  0  0  0
 12 14  1  0  0  0  0
 13 17  1  0  0  0  0
 14 15  1  0  0  0  0
  2 18  1  0  0  0  0
  2 19  1  0  0  0  0
  3 20  1  0  0  0  0
  3 21  1  0  0  0  0
  4 22  1  0  0  0  0
  4 23  1  0  0  0  0
  5 24  1  0  0  0  0
  5 25  1  0  0  0  0
  6 26  1  0  0  0  0
  6 27  1  0  0  0  0
  7 28  1  0  0  0  0
  7 29  1  0  0  0  0
  8 30  1  0  0  0  0
  9 31  1  0  0  0  0
 10 32  1  0  0  0  0
 12 33  1  0  0  0  0
 12 34  1  0  0  0  0
 12 35  1  0  0  0  0
 13 36  1  0  0  0  0
 13 37  1  0  0  0  0
 14 38  1  0  0  0  0
 15 39  1  0  0  0  0
M  END
> <Catalog ID>
Z56886551

> <MW>
255.139

> <MW (desalted)>
255.784

> <ClogP>
4.162

> <logS>
-4.09

> <HBD>
1

> <HBA>
1

> <TPSA>
29.1

> <RotBonds>
3

> <ROCS_ShapeQuery>
A71EV2A-x0451_0A_A71EV2A-x0310_0A_A71EV2A-x0416_0A_peptide

> <ROCS_TanimotoCombo>
0.465 

> <ROCS_ShapeTanimoto>
0.270 

> <ROCS_ColorTanimoto>
0.195 

> <ROCS_RefTversky>
0.245 

> <ROCS_RefColorTversky>
0.215 

> <ROCS_RefTverskyCombo>
0.460 

> <ROCS_FitTversky>
1.593 

> <ROCS_FitColorTversky>
0.681 

> <ROCS_FitTverskyCombo>
2.274 

> <ROCS_ColorScore>
-6.562

> <ROCS_Overlap>
1700.093

> <ROCS_Rank>
64                  

$$$$
untitled-dbase-877_15
  -OEChem-11112315393D

 34 35  0     0  0  0  0  0  0999 V2000
    8.4282   11.9493   23.9272 C   0  0  0  0  0  0  0  0  0  0  0  0
    9.9280   10.2764   23.4640 C   0  0  0  0  0  0  0  0  0  0  0  0
   10.8391   13.5900   23.1291 C   0  0  0  0  0  0  0  0  0  0  0  0
    5.3761   11.0956   24.6340 C   0  0  0  0  0  0  0  0  0  0  0  0
    6.7138   11.7295   26.6761 C   0  0  0  0  0  0  0  0  0  0  0  0
    6.5414   10.2569   24.1075 C   0  0  0  0  0  0  0  0  0  0  0  0
    7.8994   10.9005   26.1804 C   0  0  0  0  0  0  0  0  0  0  0  0
    5.3780   11.1801   26.1641 C   0  0  0  0  0  0  0  0  0  0  0  0
    7.8983   10.6996   24.6623 C   0  0  0  0  0  0  0  0  0  0  0  0
    4.2174   12.0433   26.6564 C   0  0  0  0  0  0  0  0  0  0  0  0
   11.6150   14.4561   22.1700 C   0  0  0  0  0  0  0  0  0  0  0  0
    8.9313    9.7376   24.2843 N   0  0  0  0  0  0  0  0  0  0  0  0
    9.5843   11.5925   23.2806 N   0  0  0  0  0  0  0  0  0  0  0  0
   10.3171   12.4559   22.5326 N   0  0  0  0  0  0  0  0  0  0  0  0
    7.8934   13.0496   23.9359 O   0  0  0  0  0  0  0  0  0  0  0  0
   10.8952    9.6764   23.0164 O   0  0  0  0  0  0  0  0  0  0  0  0
   10.6958   13.8971   24.3113 O   0  0  0  0  0  0  0  0  0  0  0  0
   13.2968   13.9024   22.1680 Cl  0  0  0  0  0  0  0  0  0  0  0  0
    5.4218   12.1027   24.2023 H   0  0  0  0  0  0  0  0  0  0  0  0
    4.4343   10.6526   24.2876 H   0  0  0  0  0  0  0  0  0  0  0  0
    6.7175   11.7349   27.7730 H   0  0  0  0  0  0  0  0  0  0  0  0
    6.8359   12.7730   26.3611 H   0  0  0  0  0  0  0  0  0  0  0  0
    6.3595    9.2103   24.3862 H   0  0  0  0  0  0  0  0  0  0  0  0
    6.5373   10.2991   23.0109 H   0  0  0  0  0  0  0  0  0  0  0  0
    8.8280   11.3849   26.5078 H   0  0  0  0  0  0  0  0  0  0  0  0
    7.8595    9.9212   26.6760 H   0  0  0  0  0  0  0  0  0  0  0  0
    5.2406   10.1683   26.5682 H   0  0  0  0  0  0  0  0  0  0  0  0
    4.3231   13.0565   26.2727 H   0  0  0  0  0  0  0  0  0  0  0  0
    4.2152   12.0720   27.7445 H   0  0  0  0  0  0  0  0  0  0  0  0
    3.2742   11.6260   26.3081 H   0  0  0  0  0  0  0  0  0  0  0  0
   11.2000   14.3462   21.1644 H   0  0  0  0  0  0  0  0  0  0  0  0
   11.5964   15.5120   22.4514 H   0  0  0  0  0  0  0  0  0  0  0  0
    8.9291    8.7683   24.5868 H   0  0  0  0  0  0  0  0  0  0  0  0
   10.4476   12.2237   21.5504 H   0  0  0  0  0  0  0  0  0  0  0  0
  1  9  1  0  0  0  0
  1 13  1  0  0  0  0
  1 15  2  0  0  0  0
  2 12  1  0  0  0  0
  2 13  1  0  0  0  0
  2 16  2  0  0  0  0
  3 11  1  0  0  0  0
  3 14  1  0  0  0  0
  3 17  2  0  0  0  0
  4  6  1  0  0  0  0
  4  8  1  0  0  0  0
  5  7  1  0  0  0  0
  5  8  1  0  0  0  0
  6  9  1  0  0  0  0
  7  9  1  0  0  0  0
  8 10  1  0  0  0  0
  9 12  1  0  0  0  0
 11 18  1  0  0  0  0
 13 14  1  0  0  0  0
  4 19  1  0  0  0  0
  4 20  1  0  0  0  0
  5 21  1  0  0  0  0
  5 22  1  0  0  0  0
  6 23  1  0  0  0  0
  6 24  1  0  0  0  0
  7 25  1  0  0  0  0
  7 26  1  0  0  0  0
  8 27  1  0  0  0  0
 10 28  1  0  0  0  0
 10 29  1  0  0  0  0
 10 30  1  0  0  0  0
 11 31  1  0  0  0  0
 11 32  1  0  0  0  0
 12 33  1  0  0  0  0
 14 34  1  0  0  0  0
M  END
> <Catalog ID>
Z56943507

> <MW>
273.088

> <MW (desalted)>
273.716

> <ClogP>
0.445

> <logS>
-2.75

> <HBD>
2

> <HBA>
3

> <TPSA>
78.51

> <RotBonds>
2

> <ROCS_ShapeQuery>
A71EV2A-x0451_0A_A71EV2A-x0310_0A_A71EV2A-x0416_0A_peptide

> <ROCS_TanimotoCombo>
0.465 

> <ROCS_ShapeTanimoto>
0.310 

> <ROCS_ColorTanimoto>
0.155 

> <ROCS_RefTversky>
0.275 

> <ROCS_RefColorTversky>
0.170 

> <ROCS_RefTverskyCombo>
0.445 

> <ROCS_FitTversky>
1.707 

> <ROCS_FitColorTversky>
0.631 

> <ROCS_FitTverskyCombo>
2.337 

> <ROCS_ColorScore>
-5.194

> <ROCS_Overlap>
1904.299

> <ROCS_Rank>
65                  

$$$$
untitled-dbase-98_12
  -OEChem-11112315393D

 25 26  0     0  0  0  0  0  0999 V2000
    9.0834   12.6735   23.6059 C   0  0  0  0  0  0  0  0  0  0  0  0
    9.6921    9.9816   23.1643 C   0  0  0  0  0  0  0  0  0  0  0  0
   10.1611   12.3241   22.7917 C   0  0  0  0  0  0  0  0  0  0  0  0
    8.3051   11.6755   24.1929 C   0  0  0  0  0  0  0  0  0  0  0  0
    8.6226   10.3302   23.9896 C   0  0  0  0  0  0  0  0  0  0  0  0
   10.4618   10.9803   22.5671 C   0  0  0  0  0  0  0  0  0  0  0  0
   11.1290   14.6097   22.7476 C   0  0  0  0  0  0  0  0  0  0  0  0
    6.3345   11.0108   25.2230 C   0  0  0  0  0  0  0  0  0  0  0  0
    7.0901    9.7633   25.6375 C   0  0  0  0  0  0  0  0  0  0  0  0
   11.9978   15.4596   21.8497 C   0  0  0  0  0  0  0  0  0  0  0  0
   10.9179   13.3465   22.2113 N   0  0  0  0  0  0  0  0  0  0  0  0
   10.6893   15.0706   23.7975 O   0  0  0  0  0  0  0  0  0  0  0  0
    7.2481   12.0807   24.9655 O   0  0  0  0  0  0  0  0  0  0  0  0
    7.9171    9.3054   24.5644 O   0  0  0  0  0  0  0  0  0  0  0  0
   11.7837   10.5077   21.5595 Cl  0  0  0  0  0  0  0  0  0  0  0  0
   11.7125   14.9465   20.1791 Cl  0  0  0  0  0  0  0  0  0  0  0  0
    8.8405   13.7199   23.7768 H   0  0  0  0  0  0  0  0  0  0  0  0
    9.9252    8.9319   23.0008 H   0  0  0  0  0  0  0  0  0  0  0  0
    5.7337   10.8386   24.3213 H   0  0  0  0  0  0  0  0  0  0  0  0
    5.6628   11.3325   26.0249 H   0  0  0  0  0  0  0  0  0  0  0  0
    7.7235    9.9470   26.5142 H   0  0  0  0  0  0  0  0  0  0  0  0
    6.3898    8.9593   25.8845 H   0  0  0  0  0  0  0  0  0  0  0  0
   13.0630   15.3588   22.0727 H   0  0  0  0  0  0  0  0  0  0  0  0
   11.7124   16.5100   21.9549 H   0  0  0  0  0  0  0  0  0  0  0  0
   11.3534   13.1467   21.3143 H   0  0  0  0  0  0  0  0  0  0  0  0
  1  3  1  0  0  0  0
  1  4  2  0  0  0  0
  2  5  2  0  0  0  0
  2  6  1  0  0  0  0
  3  6  2  0  0  0  0
  3 11  1  0  0  0  0
  4  5  1  0  0  0  0
  4 13  1  0  0  0  0
  5 14  1  0  0  0  0
  6 15  1  0  0  0  0
  7 10  1  0  0  0  0
  7 11  1  0  0  0  0
  7 12  2  0  0  0  0
  8  9  1  0  0  0  0
  8 13  1  0  0  0  0
  9 14  1  0  0  0  0
 10 16  1  0  0  0  0
  1 17  1  0  0  0  0
  2 18  1  0  0  0  0
  8 19  1  0  0  0  0
  8 20  1  0  0  0  0
  9 21  1  0  0  0  0
  9 22  1  0  0  0  0
 10 23  1  0  0  0  0
 10 24  1  0  0  0  0
 11 25  1  0  0  0  0
M  END
> <Catalog ID>
Z199423338

> <MW>
260.996

> <MW (desalted)>
262.089

> <ClogP>
1.795

> <logS>
-3.44

> <HBD>
1

> <HBA>
3

> <TPSA>
47.56

> <RotBonds>
2

> <ROCS_ShapeQuery>
A71EV2A-x0451_0A_A71EV2A-x0310_0A_A71EV2A-x0416_0A_peptide

> <ROCS_TanimotoCombo>
0.464 

> <ROCS_ShapeTanimoto>
0.302 

> <ROCS_ColorTanimoto>
0.162 

> <ROCS_RefTversky>
0.267 

> <ROCS_RefColorTversky>
0.173 

> <ROCS_RefTverskyCombo>
0.440 

> <ROCS_FitTversky>
1.790 

> <ROCS_FitColorTversky>
0.723 

> <ROCS_FitTverskyCombo>
2.513 

> <ROCS_ColorScore>
-5.270

> <ROCS_Overlap>
1847.246

> <ROCS_Rank>
66                  

$$$$
untitled-dbase-549_489
  -OEChem-11112315393D

 34 35  0     0  0  0  0  0  0999 V2000
    8.0549    9.6108   24.2280 C   0  0  0  0  0  0  0  0  0  0  0  0
    7.0883   10.4010   24.8500 C   0  0  0  0  0  0  0  0  0  0  0  0
    9.1428   10.2102   23.5932 C   0  0  0  0  0  0  0  0  0  0  0  0
    8.2974   12.3899   24.2023 C   0  0  0  0  0  0  0  0  0  0  0  0
    7.2095   11.7905   24.8371 C   0  0  0  0  0  0  0  0  0  0  0  0
    9.2640   11.5997   23.5803 C   0  0  0  0  0  0  0  0  0  0  0  0
    6.1918   12.6207   25.4921 C   0  0  0  0  0  0  0  0  0  0  0  0
   10.9417   13.4076   23.2983 C   0  0  0  0  0  0  0  0  0  0  0  0
    6.0774   11.1135   27.5441 C   0  0  0  0  0  0  0  0  0  0  0  0
    4.1720   12.5596   26.9156 C   0  0  0  0  0  0  0  0  0  0  0  0
    6.2817   11.7306   28.9225 C   0  0  0  0  0  0  0  0  0  0  0  0
    4.1511   13.3451   28.2215 C   0  0  0  0  0  0  0  0  0  0  0  0
   12.1004   13.7525   22.3917 C   0  0  0  0  0  0  0  0  0  0  0  0
    5.5213   12.0906   26.5984 N   0  0  0  0  0  0  0  0  0  0  0  0
   10.3524   12.1990   22.9455 N   0  0  0  0  0  0  0  0  0  0  0  0
    6.0127   13.7382   25.0104 O   0  0  0  0  0  0  0  0  0  0  0  0
   10.6156   14.1729   24.2017 O   0  0  0  0  0  0  0  0  0  0  0  0
    4.7082   12.3237   29.6232 S   0  0  0  0  0  0  0  0  0  0  0  0
   13.2976   12.4550   22.5280 Cl  0  0  0  0  0  0  0  0  0  0  0  0
    7.9608    8.5288   24.2382 H   0  0  0  0  0  0  0  0  0  0  0  0
    6.2445    9.9228   25.3405 H   0  0  0  0  0  0  0  0  0  0  0  0
    9.8900    9.5845   23.1110 H   0  0  0  0  0  0  0  0  0  0  0  0
    8.3915   13.4739   24.1913 H   0  0  0  0  0  0  0  0  0  0  0  0
    7.0333   10.7238   27.1839 H   0  0  0  0  0  0  0  0  0  0  0  0
    5.3889   10.2605   27.5896 H   0  0  0  0  0  0  0  0  0  0  0  0
    3.5088   11.6874   26.9627 H   0  0  0  0  0  0  0  0  0  0  0  0
    3.8001   13.2004   26.1087 H   0  0  0  0  0  0  0  0  0  0  0  0
    6.6947   10.9822   29.6059 H   0  0  0  0  0  0  0  0  0  0  0  0
    6.9911   12.5639   28.8785 H   0  0  0  0  0  0  0  0  0  0  0  0
    4.7857   14.2354   28.1537 H   0  0  0  0  0  0  0  0  0  0  0  0
    3.1320   13.6839   28.4336 H   0  0  0  0  0  0  0  0  0  0  0  0
   12.5761   14.7007   22.6548 H   0  0  0  0  0  0  0  0  0  0  0  0
   11.7494   13.8081   21.3574 H   0  0  0  0  0  0  0  0  0  0  0  0
   10.7523   11.7051   22.1498 H   0  0  0  0  0  0  0  0  0  0  0  0
  1  2  1  0  0  0  0
  1  3  2  0  0  0  0
  2  5  2  0  0  0  0
  3  6  1  0  0  0  0
  4  5  1  0  0  0  0
  4  6  2  0  0  0  0
  5  7  1  0  0  0  0
  6 15  1  0  0  0  0
  7 14  1  0  0  0  0
  7 16  2  0  0  0  0
  8 13  1  0  0  0  0
  8 15  1  0  0  0  0
  8 17  2  0  0  0  0
  9 11  1  0  0  0  0
  9 14  1  0  0  0  0
 10 12  1  0  0  0  0
 10 14  1  0  0  0  0
 11 18  1  0  0  0  0
 12 18  1  0  0  0  0
 13 19  1  0  0  0  0
  1 20  1  0  0  0  0
  2 21  1  0  0  0  0
  3 22  1  0  0  0  0
  4 23  1  0  0  0  0
  9 24  1  0  0  0  0
  9 25  1  0  0  0  0
 10 26  1  0  0  0  0
 10 27  1  0  0  0  0
 11 28  1  0  0  0  0
 11 29  1  0  0  0  0
 12 30  1  0  0  0  0
 12 31  1  0  0  0  0
 13 32  1  0  0  0  0
 13 33  1  0  0  0  0
 15 34  1  0  0  0  0
M  END
> <Catalog ID>
Z959250156

> <MW>
298.054

> <MW (desalted)>
298.788

> <ClogP>
1.608

> <logS>
-3.855

> <HBD>
1

> <HBA>
2

> <TPSA>
49.41

> <RotBonds>
3

> <ROCS_ShapeQuery>
A71EV2A-x0451_0A_A71EV2A-x0310_0A_A71EV2A-x0416_0A_peptide

> <ROCS_TanimotoCombo>
0.464 

> <ROCS_ShapeTanimoto>
0.301 

> <ROCS_ColorTanimoto>
0.164 

> <ROCS_RefTversky>
0.269 

> <ROCS_RefColorTversky>
0.170 

> <ROCS_RefTverskyCombo>
0.439 

> <ROCS_FitTversky>
1.646 

> <ROCS_FitColorTversky>
0.815 

> <ROCS_FitTverskyCombo>
2.462 

> <ROCS_ColorScore>
-5.166

> <ROCS_Overlap>
1865.039

> <ROCS_Rank>
67                  

$$$$
untitled-dbase-724_62
  -OEChem-11112315393D

 28 29  0     0  0  0  0  0  0999 V2000
   10.5569   11.0159   22.7270 C   0  0  0  0  0  0  0  0  0  0  0  0
    9.7456   10.0431   23.3111 C   0  0  0  0  0  0  0  0  0  0  0  0
    9.0427   12.7404   23.4853 C   0  0  0  0  0  0  0  0  0  0  0  0
   10.2057   12.3630   22.8139 C   0  0  0  0  0  0  0  0  0  0  0  0
    8.5953   10.4214   24.0057 C   0  0  0  0  0  0  0  0  0  0  0  0
    8.2439   11.7700   24.0931 C   0  0  0  0  0  0  0  0  0  0  0  0
   11.1744   14.6433   22.6550 C   0  0  0  0  0  0  0  0  0  0  0  0
    6.6185   10.4766   26.3574 C   0  0  0  0  0  0  0  0  0  0  0  0
    7.6800    9.4765   25.9165 C   0  0  0  0  0  0  0  0  0  0  0  0
    7.0456   11.9115   26.0745 C   0  0  0  0  0  0  0  0  0  0  0  0
   12.1249   15.4163   21.7705 C   0  0  0  0  0  0  0  0  0  0  0  0
   11.0132   13.3333   22.2184 N   0  0  0  0  0  0  0  0  0  0  0  0
   10.6370   15.1930   23.6127 O   0  0  0  0  0  0  0  0  0  0  0  0
    7.7982    9.4219   24.4930 O   0  0  0  0  0  0  0  0  0  0  0  0
    7.0775   12.1889   24.6727 O   0  0  0  0  0  0  0  0  0  0  0  0
   11.9996   14.7530   20.1334 Cl  0  0  0  0  0  0  0  0  0  0  0  0
   11.4661   10.7134   22.2129 H   0  0  0  0  0  0  0  0  0  0  0  0
   10.0293    8.9994   23.2375 H   0  0  0  0  0  0  0  0  0  0  0  0
    8.7477   13.7844   23.5179 H   0  0  0  0  0  0  0  0  0  0  0  0
    5.6779   10.2856   25.8346 H   0  0  0  0  0  0  0  0  0  0  0  0
    6.4358   10.3395   27.4262 H   0  0  0  0  0  0  0  0  0  0  0  0
    8.6541    9.6850   26.3853 H   0  0  0  0  0  0  0  0  0  0  0  0
    7.3931    8.4740   26.2600 H   0  0  0  0  0  0  0  0  0  0  0  0
    6.4100   12.6369   26.6056 H   0  0  0  0  0  0  0  0  0  0  0  0
    8.0612   12.0664   26.4621 H   0  0  0  0  0  0  0  0  0  0  0  0
   13.1640   15.3449   22.1015 H   0  0  0  0  0  0  0  0  0  0  0  0
   11.8310   16.4696   21.7530 H   0  0  0  0  0  0  0  0  0  0  0  0
   11.5324   13.0562   21.3875 H   0  0  0  0  0  0  0  0  0  0  0  0
  1  2  2  0  0  0  0
  1  4  1  0  0  0  0
  2  5  1  0  0  0  0
  3  4  2  0  0  0  0
  3  6  1  0  0  0  0
  4 12  1  0  0  0  0
  5  6  2  0  0  0  0
  5 14  1  0  0  0  0
  6 15  1  0  0  0  0
  7 11  1  0  0  0  0
  7 12  1  0  0  0  0
  7 13  2  0  0  0  0
  8  9  1  0  0  0  0
  8 10  1  0  0  0  0
  9 14  1  0  0  0  0
 10 15  1  0  0  0  0
 11 16  1  0  0  0  0
  1 17  1  0  0  0  0
  2 18  1  0  0  0  0
  3 19  1  0  0  0  0
  8 20  1  0  0  0  0
  8 21  1  0  0  0  0
  9 22  1  0  0  0  0
  9 23  1  0  0  0  0
 10 24  1  0  0  0  0
 10 25  1  0  0  0  0
 11 26  1  0  0  0  0
 11 27  1  0  0  0  0
 12 28  1  0  0  0  0
M  END
> <Catalog ID>
Z57000490

> <MW>
241.051

> <MW (desalted)>
241.671

> <ClogP>
1.949

> <logS>
-2.85

> <HBD>
1

> <HBA>
3

> <TPSA>
47.56

> <RotBonds>
2

> <ROCS_ShapeQuery>
A71EV2A-x0451_0A_A71EV2A-x0310_0A_A71EV2A-x0416_0A_peptide

> <ROCS_TanimotoCombo>
0.464 

> <ROCS_ShapeTanimoto>
0.303 

> <ROCS_ColorTanimoto>
0.161 

> <ROCS_RefTversky>
0.267 

> <ROCS_RefColorTversky>
0.172 

> <ROCS_RefTverskyCombo>
0.439 

> <ROCS_FitTversky>
1.791 

> <ROCS_FitColorTversky>
0.717 

> <ROCS_FitTverskyCombo>
2.507 

> <ROCS_ColorScore>
-5.222

> <ROCS_Overlap>
1853.210

> <ROCS_Rank>
68                  

$$$$
untitled-dbase-550_59
  -OEChem-11112315393D

 32 33  0     0  0  0  0  0  0999 V2000
    9.3263    9.9369   23.4664 C   0  0  0  0  0  0  0  0  0  0  0  0
    9.6669   11.2390   23.7951 C   0  0  0  0  0  0  0  0  0  0  0  0
    7.7204   10.6545   24.6156 C   0  0  0  0  0  0  0  0  0  0  0  0
    8.2540   12.8360   25.1858 C   0  0  0  0  0  0  0  0  0  0  0  0
    7.0544   12.7171   25.7857 C   0  0  0  0  0  0  0  0  0  0  0  0
   12.2217   14.9393   20.7051 C   0  0  0  0  0  0  0  0  0  0  0  0
   11.0925   15.2172   21.3648 C   0  0  0  0  0  0  0  0  0  0  0  0
   10.7391   14.4541   22.5956 C   0  0  0  0  0  0  0  0  0  0  0  0
   10.1012    8.9713   22.6694 C   0  0  0  0  0  0  0  0  0  0  0  0
    6.3588   13.7689   26.5743 C   0  0  0  0  0  0  0  0  0  0  0  0
   10.1499   12.5382   21.1607 C   0  0  0  0  0  0  0  0  0  0  0  0
   10.8704   12.0784   23.4768 C   0  0  0  0  0  0  0  0  0  0  0  0
    8.0975    9.5757   23.9873 N   0  0  0  0  0  0  0  0  0  0  0  0
    8.6133   11.6786   24.5367 N   0  0  0  0  0  0  0  0  0  0  0  0
   10.5859   13.0730   22.4443 N   0  0  0  0  0  0  0  0  0  0  0  0
   10.5769   15.0528   23.6601 O   0  0  0  0  0  0  0  0  0  0  0  0
    6.3258   11.1074   25.5452 S   0  0  0  0  0  0  0  0  0  0  0  0
    8.8969   13.7035   25.1805 H   0  0  0  0  0  0  0  0  0  0  0  0
   12.5189   15.4681   19.8062 H   0  0  0  0  0  0  0  0  0  0  0  0
   12.8849   14.1615   21.0691 H   0  0  0  0  0  0  0  0  0  0  0  0
   10.4563   16.0241   21.0227 H   0  0  0  0  0  0  0  0  0  0  0  0
   10.7728    8.3720   23.3079 H   0  0  0  0  0  0  0  0  0  0  0  0
    9.4513    8.2679   22.1187 H   0  0  0  0  0  0  0  0  0  0  0  0
   10.7253    9.4673   21.9044 H   0  0  0  0  0  0  0  0  0  0  0  0
    5.7234   14.3698   25.9206 H   0  0  0  0  0  0  0  0  0  0  0  0
    7.0893   14.4219   27.0570 H   0  0  0  0  0  0  0  0  0  0  0  0
    5.7390   13.3103   27.3479 H   0  0  0  0  0  0  0  0  0  0  0  0
   11.0285   12.3271   20.5334 H   0  0  0  0  0  0  0  0  0  0  0  0
    9.5843   11.6090   21.3238 H   0  0  0  0  0  0  0  0  0  0  0  0
    9.5076   13.2748   20.6559 H   0  0  0  0  0  0  0  0  0  0  0  0
   11.2180   12.6093   24.3698 H   0  0  0  0  0  0  0  0  0  0  0  0
   11.7004   11.4574   23.1238 H   0  0  0  0  0  0  0  0  0  0  0  0
  1  2  2  0  0  0  0
  1  9  1  0  0  0  0
  1 13  1  0  0  0  0
  2 12  1  0  0  0  0
  2 14  1  0  0  0  0
  3 13  2  0  0  0  0
  3 14  1  0  0  0  0
  3 17  1  0  0  0  0
  4  5  2  0  0  0  0
  4 14  1  0  0  0  0
  5 10  1  0  0  0  0
  5 17  1  0  0  0  0
  6  7  2  0  0  0  0
  7  8  1  0  0  0  0
  8 15  1  0  0  0  0
  8 16  2  0  0  0  0
 11 15  1  0  0  0  0
 12 15  1  0  0  0  0
  4 18  1  0  0  0  0
  6 19  1  0  0  0  0
  6 20  1  0  0  0  0
  7 21  1  0  0  0  0
  9 22  1  0  0  0  0
  9 23  1  0  0  0  0
  9 24  1  0  0  0  0
 10 25  1  0  0  0  0
 10 26  1  0  0  0  0
 10 27  1  0  0  0  0
 11 28  1  0  0  0  0
 11 29  1  0  0  0  0
 11 30  1  0  0  0  0
 12 31  1  0  0  0  0
 12 32  1  0  0  0  0
M  END
> <Catalog ID>
Z1938409985

> <MW>
249.332

> <MW (desalted)>
249.332

> <ClogP>
1.074

> <logS>
-2.808

> <HBD>
0

> <HBA>
2

> <TPSA>
37.61

> <RotBonds>
3

> <ROCS_ShapeQuery>
A71EV2A-x0451_0A_A71EV2A-x0310_0A_A71EV2A-x0416_0A_peptide

> <ROCS_TanimotoCombo>
0.464 

> <ROCS_ShapeTanimoto>
0.323 

> <ROCS_ColorTanimoto>
0.141 

> <ROCS_RefTversky>
0.282 

> <ROCS_RefColorTversky>
0.153 

> <ROCS_RefTverskyCombo>
0.435 

> <ROCS_FitTversky>
1.823 

> <ROCS_FitColorTversky>
0.635 

> <ROCS_FitTverskyCombo>
2.458 

> <ROCS_ColorScore>
-4.659

> <ROCS_Overlap>
1954.933

> <ROCS_Rank>
69                  

$$$$
untitled-dbase-771_67
  -OEChem-11112315393D

 37 38  0     0  0  0  0  0  0999 V2000
    6.8282   12.5761   25.4694 C   0  0  0  0  0  0  0  0  0  0  0  0
    6.3975   11.2840   25.7702 C   0  0  0  0  0  0  0  0  0  0  0  0
    7.9644   12.7673   24.6831 C   0  0  0  0  0  0  0  0  0  0  0  0
    7.1031   10.1830   25.2848 C   0  0  0  0  0  0  0  0  0  0  0  0
    8.6700   11.6663   24.1978 C   0  0  0  0  0  0  0  0  0  0  0  0
    8.2393   10.3741   24.4986 C   0  0  0  0  0  0  0  0  0  0  0  0
   10.7051   12.9464   23.4602 C   0  0  0  0  0  0  0  0  0  0  0  0
   12.2284   15.6751   19.4237 C   0  0  0  0  0  0  0  0  0  0  0  0
   11.2082   12.6729   21.0388 C   0  0  0  0  0  0  0  0  0  0  0  0
   12.8082   13.9481   22.5477 C   0  0  0  0  0  0  0  0  0  0  0  0
   10.7319   14.0135   20.4821 C   0  0  0  0  0  0  0  0  0  0  0  0
   12.2950   15.2495   21.9298 C   0  0  0  0  0  0  0  0  0  0  0  0
   11.8013   12.7979   22.4457 C   0  0  0  0  0  0  0  0  0  0  0  0
   13.3249   16.6943   19.6045 C   0  0  0  0  0  0  0  0  0  0  0  0
   11.7906   15.0181   20.5729 N   0  0  0  0  0  0  0  0  0  0  0  0
    9.8211   11.8764   23.4021 N   0  0  0  0  0  0  0  0  0  0  0  0
   10.6697   13.9173   24.2093 O   0  0  0  0  0  0  0  0  0  0  0  0
   11.7774   15.4690   18.2940 O   0  0  0  0  0  0  0  0  0  0  0  0
    8.9144    9.2846   24.0346 O   0  0  0  0  0  0  0  0  0  0  0  0
   14.8489   15.8266   19.4549 Cl  0  0  0  0  0  0  0  0  0  0  0  0
    6.2783   13.4333   25.8470 H   0  0  0  0  0  0  0  0  0  0  0  0
    5.5124   11.1352   26.3817 H   0  0  0  0  0  0  0  0  0  0  0  0
    8.2902   13.7791   24.4554 H   0  0  0  0  0  0  0  0  0  0  0  0
    6.7618    9.1791   25.5229 H   0  0  0  0  0  0  0  0  0  0  0  0
   10.3708   11.9647   21.0380 H   0  0  0  0  0  0  0  0  0  0  0  0
   11.9719   12.2626   20.3657 H   0  0  0  0  0  0  0  0  0  0  0  0
   13.7317   13.6563   22.0310 H   0  0  0  0  0  0  0  0  0  0  0  0
   13.0749   14.1287   23.5960 H   0  0  0  0  0  0  0  0  0  0  0  0
   10.4039   13.8844   19.4458 H   0  0  0  0  0  0  0  0  0  0  0  0
    9.8720   14.3880   21.0496 H   0  0  0  0  0  0  0  0  0  0  0  0
   11.4656   15.6583   22.5182 H   0  0  0  0  0  0  0  0  0  0  0  0
   13.0925   15.9946   21.9488 H   0  0  0  0  0  0  0  0  0  0  0  0
   12.3104   11.8588   22.6960 H   0  0  0  0  0  0  0  0  0  0  0  0
   13.2402   17.1299   20.5935 H   0  0  0  0  0  0  0  0  0  0  0  0
   13.2431   17.4408   18.8228 H   0  0  0  0  0  0  0  0  0  0  0  0
   10.0123   11.1526   22.7124 H   0  0  0  0  0  0  0  0  0  0  0  0
    8.4822    8.4703   24.3356 H   0  0  0  0  0  0  0  0  0  0  0  0
  1  2  1  0  0  0  0
  1  3  2  0  0  0  0
  2  4  2  0  0  0  0
  3  5  1  0  0  0  0
  4  6  1  0  0  0  0
  5  6  2  0  0  0  0
  5 16  1  0  0  0  0
  6 19  1  0  0  0  0
  7 13  1  0  0  0  0
  7 16  1  0  0  0  0
  7 17  2  0  0  0  0
  8 14  1  0  0  0  0
  8 15  1  0  0  0  0
  8 18  2  0  0  0  0
  9 11  1  0  0  0  0
  9 13  1  0  0  0  0
 10 12  1  0  0  0  0
 10 13  1  0  0  0  0
 11 15  1  0  0  0  0
 12 15  1  0  0  0  0
 14 20  1  0  0  0  0
  1 21  1  0  0  0  0
  2 22  1  0  0  0  0
  3 23  1  0  0  0  0
  4 24  1  0  0  0  0
  9 25  1  0  0  0  0
  9 26  1  0  0  0  0
 10 27  1  0  0  0  0
 10 28  1  0  0  0  0
 11 29  1  0  0  0  0
 11 30  1  0  0  0  0
 12 31  1  0  0  0  0
 12 32  1  0  0  0  0
 13 33  1  0  0  0  0
 14 34  1  0  0  0  0
 14 35  1  0  0  0  0
 16 36  1  0  0  0  0
 19 37  1  0  0  0  0
M  END
> <Catalog ID>
Z291278934

> <MW>
296.093

> <MW (desalted)>
296.749

> <ClogP>
-0.005

> <logS>
-2.42

> <HBD>
2

> <HBA>
3

> <TPSA>
69.64

> <RotBonds>
3

> <ROCS_ShapeQuery>
A71EV2A-x0451_0A_A71EV2A-x0310_0A_A71EV2A-x0416_0A_peptide

> <ROCS_TanimotoCombo>
0.464 

> <ROCS_ShapeTanimoto>
0.320 

> <ROCS_ColorTanimoto>
0.144 

> <ROCS_RefTversky>
0.284 

> <ROCS_RefColorTversky>
0.160 

> <ROCS_RefTverskyCombo>
0.444 

> <ROCS_FitTversky>
1.651 

> <ROCS_FitColorTversky>
0.591 

> <ROCS_FitTverskyCombo>
2.242 

> <ROCS_ColorScore>
-4.868

> <ROCS_Overlap>
1971.604

> <ROCS_Rank>
70                  

$$$$
untitled-dbase-601_705
  -OEChem-11112315393D

 36 37  0     1  0  0  0  0  0999 V2000
   10.5863   11.7945   23.1432 C   0  0  0  0  0  0  0  0  0  0  0  0
   10.1563   10.5625   22.6612 C   0  0  0  0  0  0  0  0  0  0  0  0
    8.5923   11.9546   24.5247 C   0  0  0  0  0  0  0  0  0  0  0  0
    8.1696   10.6966   24.0590 C   0  0  0  0  0  0  0  0  0  0  0  0
    9.8074   12.4888   24.0673 C   0  0  0  0  0  0  0  0  0  0  0  0
    8.9528   10.0192   23.1107 C   0  0  0  0  0  0  0  0  0  0  0  0
    5.7854   15.2298   26.6346 C   0  0  0  0  0  0  0  0  0  0  0  0
    5.2197   14.2490   25.9281 C   0  0  0  0  0  0  0  0  0  0  0  0
    5.3914   12.8526   26.3807 C   0  0  0  0  0  0  0  0  0  0  0  0
    7.7709   12.7619   25.5007 C   0  0  0  0  0  0  0  0  0  0  0  0
    6.4554   10.6906   25.8907 C   0  0  0  0  0  0  0  0  0  0  0  0
    6.8583   10.1191   24.5345 C   0  0  2  0  0  0  0  0  0  0  0  0
   11.4962   14.1627   24.0016 C   0  0  0  0  0  0  0  0  0  0  0  0
    9.4170    8.1987   21.6508 C   0  0  0  0  0  0  0  0  0  0  0  0
    6.4923   12.1498   25.8895 N   0  0  0  0  0  0  0  0  0  0  0  0
    4.5601   12.3984   27.1680 O   0  0  0  0  0  0  0  0  0  0  0  0
    6.9569    8.7026   24.6647 O   0  0  0  0  0  0  0  0  0  0  0  0
   10.2526   13.6972   24.5194 O   0  0  0  0  0  0  0  0  0  0  0  0
    8.5582    8.8123   22.6088 O   0  0  0  0  0  0  0  0  0  0  0  0
   11.5301   12.2075   22.7986 H   0  0  0  0  0  0  0  0  0  0  0  0
   10.7631   10.0273   21.9354 H   0  0  0  0  0  0  0  0  0  0  0  0
    5.6949   16.2735   26.3528 H   0  0  0  0  0  0  0  0  0  0  0  0
    6.3599   14.9975   27.5251 H   0  0  0  0  0  0  0  0  0  0  0  0
    4.6392   14.4408   25.0351 H   0  0  0  0  0  0  0  0  0  0  0  0
    8.3734   12.9183   26.4011 H   0  0  0  0  0  0  0  0  0  0  0  0
    7.5308   13.7358   25.0580 H   0  0  0  0  0  0  0  0  0  0  0  0
    5.4260   10.4000   26.1407 H   0  0  0  0  0  0  0  0  0  0  0  0
    7.1086   10.2922   26.6759 H   0  0  0  0  0  0  0  0  0  0  0  0
    6.0566   10.3419   23.8240 H   0  0  0  0  0  0  0  0  0  0  0  0
   11.7345   15.1339   24.4421 H   0  0  0  0  0  0  0  0  0  0  0  0
   11.4292   14.2504   22.9143 H   0  0  0  0  0  0  0  0  0  0  0  0
   12.2794   13.4460   24.2598 H   0  0  0  0  0  0  0  0  0  0  0  0
    8.9874    7.2456   21.3328 H   0  0  0  0  0  0  0  0  0  0  0  0
   10.4024    8.0364   22.0947 H   0  0  0  0  0  0  0  0  0  0  0  0
    9.5136    8.8590   20.7857 H   0  0  0  0  0  0  0  0  0  0  0  0
    7.1800    8.3586   23.7857 H   0  0  0  0  0  0  0  0  0  0  0  0
  1  2  2  0  0  0  0
  1  5  1  0  0  0  0
  2  6  1  0  0  0  0
  3  4  1  0  0  0  0
  3  5  2  0  0  0  0
  3 10  1  0  0  0  0
  4  6  2  0  0  0  0
  4 12  1  0  0  0  0
  5 18  1  0  0  0  0
  6 19  1  0  0  0  0
  7  8  2  0  0  0  0
  8  9  1  0  0  0  0
  9 15  1  0  0  0  0
  9 16  2  0  0  0  0
 10 15  1  0  0  0  0
 11 12  1  0  0  0  0
 11 15  1  0  0  0  0
 12 17  1  0  0  0  0
 13 18  1  0  0  0  0
 14 19  1  0  0  0  0
  1 20  1  0  0  0  0
  2 21  1  0  0  0  0
  7 22  1  0  0  0  0
  7 23  1  0  0  0  0
  8 24  1  0  0  0  0
 10 25  1  0  0  0  0
 10 26  1  0  0  0  0
 11 27  1  0  0  0  0
 11 28  1  0  0  0  0
 12 29  1  0  0  0  0
 13 30  1  0  0  0  0
 13 31  1  0  0  0  0
 13 32  1  0  0  0  0
 14 33  1  0  0  0  0
 14 34  1  0  0  0  0
 14 35  1  0  0  0  0
 17 36  1  0  0  0  0
M  END
> <Catalog ID>
Z2737376592

> <MW>
263.289

> <MW (desalted)>
263.289

> <ClogP>
0.582

> <logS>
-2.366

> <HBD>
1

> <HBA>
4

> <TPSA>
59

> <RotBonds>
3

> <ROCS_ShapeQuery>
A71EV2A-x0451_0A_A71EV2A-x0310_0A_A71EV2A-x0416_0A_peptide

> <ROCS_TanimotoCombo>
0.464 

> <ROCS_ShapeTanimoto>
0.304 

> <ROCS_ColorTanimoto>
0.160 

> <ROCS_RefTversky>
0.272 

> <ROCS_RefColorTversky>
0.180 

> <ROCS_RefTverskyCombo>
0.452 

> <ROCS_FitTversky>
1.617 

> <ROCS_FitColorTversky>
0.597 

> <ROCS_FitTverskyCombo>
2.213 

> <ROCS_ColorScore>
-5.482

> <ROCS_Overlap>
1887.852

> <ROCS_Rank>
71                  

$$$$
untitled-dbase-621_45
  -OEChem-11112315393D

 27 28  0     0  0  0  0  0  0999 V2000
    9.8025    9.8979   23.0675 C   0  0  0  0  0  0  0  0  0  0  0  0
    9.0868   12.5794   23.6116 C   0  0  0  0  0  0  0  0  0  0  0  0
   10.5345   10.9543   22.5202 C   0  0  0  0  0  0  0  0  0  0  0  0
   10.1787   12.2874   22.7907 C   0  0  0  0  0  0  0  0  0  0  0  0
    8.7289   10.2133   23.8747 C   0  0  0  0  0  0  0  0  0  0  0  0
    8.3807   11.5181   24.1396 C   0  0  0  0  0  0  0  0  0  0  0  0
   11.6699   10.6379   21.6619 C   0  0  0  0  0  0  0  0  0  0  0  0
   11.0866   14.5978   22.8169 C   0  0  0  0  0  0  0  0  0  0  0  0
    6.9992   10.2136   25.1747 C   0  0  0  0  0  0  0  0  0  0  0  0
   11.3958    9.8427   20.4206 C   0  0  0  0  0  0  0  0  0  0  0  0
   11.9363   15.4956   21.9477 C   0  0  0  0  0  0  0  0  0  0  0  0
   10.9106   13.3455   22.2434 N   0  0  0  0  0  0  0  0  0  0  0  0
   12.8335   10.9711   21.8846 O   0  0  0  0  0  0  0  0  0  0  0  0
   10.6312   15.0166   23.8776 O   0  0  0  0  0  0  0  0  0  0  0  0
    7.9054    9.3231   24.4921 O   0  0  0  0  0  0  0  0  0  0  0  0
    7.2954   11.6081   24.9557 O   0  0  0  0  0  0  0  0  0  0  0  0
   11.6707   15.0239   20.2618 Cl  0  0  0  0  0  0  0  0  0  0  0  0
   10.0637    8.8638   22.8682 H   0  0  0  0  0  0  0  0  0  0  0  0
    8.7994   13.6026   23.8305 H   0  0  0  0  0  0  0  0  0  0  0  0
    5.9800   10.0124   24.8255 H   0  0  0  0  0  0  0  0  0  0  0  0
    7.0494   10.0088   26.2501 H   0  0  0  0  0  0  0  0  0  0  0  0
   11.1637   10.4576   19.5367 H   0  0  0  0  0  0  0  0  0  0  0  0
   10.5766    9.1171   20.5424 H   0  0  0  0  0  0  0  0  0  0  0  0
   12.2582    9.2332   20.0971 H   0  0  0  0  0  0  0  0  0  0  0  0
   13.0030   15.4163   22.1725 H   0  0  0  0  0  0  0  0  0  0  0  0
   11.6231   16.5348   22.0819 H   0  0  0  0  0  0  0  0  0  0  0  0
   11.3546   13.1832   21.3430 H   0  0  0  0  0  0  0  0  0  0  0  0
  1  3  1  0  0  0  0
  1  5  2  0  0  0  0
  2  4  1  0  0  0  0
  2  6  2  0  0  0  0
  3  4  2  0  0  0  0
  3  7  1  0  0  0  0
  4 12  1  0  0  0  0
  5  6  1  0  0  0  0
  5 15  1  0  0  0  0
  6 16  1  0  0  0  0
  7 10  1  0  0  0  0
  7 13  2  0  0  0  0
  8 11  1  0  0  0  0
  8 12  1  0  0  0  0
  8 14  2  0  0  0  0
  9 15  1  0  0  0  0
  9 16  1  0  0  0  0
 11 17  1  0  0  0  0
  1 18  1  0  0  0  0
  2 19  1  0  0  0  0
  9 20  1  0  0  0  0
  9 21  1  0  0  0  0
 10 22  1  0  0  0  0
 10 23  1  0  0  0  0
 10 24  1  0  0  0  0
 11 25  1  0  0  0  0
 11 26  1  0  0  0  0
 12 27  1  0  0  0  0
M  END
> <Catalog ID>
Z57036271

> <MW>
255.03

> <MW (desalted)>
255.654

> <ClogP>
2.104

> <logS>
-3.13

> <HBD>
1

> <HBA>
4

> <TPSA>
64.63

> <RotBonds>
3

> <ROCS_ShapeQuery>
A71EV2A-x0451_0A_A71EV2A-x0310_0A_A71EV2A-x0416_0A_peptide

> <ROCS_TanimotoCombo>
0.464 

> <ROCS_ShapeTanimoto>
0.291 

> <ROCS_ColorTanimoto>
0.172 

> <ROCS_RefTversky>
0.261 

> <ROCS_RefColorTversky>
0.187 

> <ROCS_RefTverskyCombo>
0.448 

> <ROCS_FitTversky>
1.659 

> <ROCS_FitColorTversky>
0.690 

> <ROCS_FitTverskyCombo>
2.349 

> <ROCS_ColorScore>
-5.698

> <ROCS_Overlap>
1809.569

> <ROCS_Rank>
72                  

$$$$
untitled-dbase-288_14
  -OEChem-11112315393D

 26 26  0     0  0  0  0  0  0999 V2000
    7.4846   11.3483   25.1789 C   0  0  0  0  0  0  0  0  0  0  0  0
    8.3714    9.3628   24.1260 C   0  0  0  0  0  0  0  0  0  0  0  0
    8.3590   12.1359   24.4302 C   0  0  0  0  0  0  0  0  0  0  0  0
    9.2458   10.1505   23.3773 C   0  0  0  0  0  0  0  0  0  0  0  0
    7.4908    9.9617   25.0269 C   0  0  0  0  0  0  0  0  0  0  0  0
    9.2396   11.5371   23.5294 C   0  0  0  0  0  0  0  0  0  0  0  0
   12.2424   15.2258   22.1068 C   0  0  0  0  0  0  0  0  0  0  0  0
   10.6922   13.5643   23.1256 C   0  0  0  0  0  0  0  0  0  0  0  0
    6.5558    9.1197   25.8275 C   0  0  0  0  0  0  0  0  0  0  0  0
   13.0586   15.4362   20.8567 C   0  0  0  0  0  0  0  0  0  0  0  0
   10.1262   12.3355   22.7698 N   0  0  0  0  0  0  0  0  0  0  0  0
   11.5225   14.0321   22.0871 N   0  0  0  0  0  0  0  0  0  0  0  0
   12.2538   16.0362   23.0313 O   0  0  0  0  0  0  0  0  0  0  0  0
   10.5162   14.1762   24.1760 O   0  0  0  0  0  0  0  0  0  0  0  0
   13.8806   16.9976   21.0014 Cl  0  0  0  0  0  0  0  0  0  0  0  0
    6.8033   11.8232   25.8801 H   0  0  0  0  0  0  0  0  0  0  0  0
    8.3835    8.2832   24.0017 H   0  0  0  0  0  0  0  0  0  0  0  0
    8.3452   13.2156   24.5565 H   0  0  0  0  0  0  0  0  0  0  0  0
    9.9287    9.6733   22.6788 H   0  0  0  0  0  0  0  0  0  0  0  0
    5.6097    8.9823   25.2897 H   0  0  0  0  0  0  0  0  0  0  0  0
    6.9862    8.1308   26.0324 H   0  0  0  0  0  0  0  0  0  0  0  0
    6.3393    9.5796   26.8006 H   0  0  0  0  0  0  0  0  0  0  0  0
   12.3937   15.4603   19.9889 H   0  0  0  0  0  0  0  0  0  0  0  0
   13.8097   14.6566   20.7077 H   0  0  0  0  0  0  0  0  0  0  0  0
   10.3831   11.9728   21.8552 H   0  0  0  0  0  0  0  0  0  0  0  0
   11.6029   13.4522   21.2565 H   0  0  0  0  0  0  0  0  0  0  0  0
  1  3  2  0  0  0  0
  1  5  1  0  0  0  0
  2  4  1  0  0  0  0
  2  5  2  0  0  0  0
  3  6  1  0  0  0  0
  4  6  2  0  0  0  0
  5  9  1  0  0  0  0
  6 11  1  0  0  0  0
  7 10  1  0  0  0  0
  7 12  1  0  0  0  0
  7 13  2  0  0  0  0
  8 11  1  0  0  0  0
  8 12  1  0  0  0  0
  8 14  2  0  0  0  0
 10 15  1  0  0  0  0
  1 16  1  0  0  0  0
  2 17  1  0  0  0  0
  3 18  1  0  0  0  0
  4 19  1  0  0  0  0
  9 20  1  0  0  0  0
  9 21  1  0  0  0  0
  9 22  1  0  0  0  0
 10 23  1  0  0  0  0
 10 24  1  0  0  0  0
 11 25  1  0  0  0  0
 12 26  1  0  0  0  0
M  END
> <Catalog ID>
Z283603836

> <MW>
226.051

> <MW (desalted)>
226.66

> <ClogP>
2.713

> <logS>
-3.032

> <HBD>
2

> <HBA>
2

> <TPSA>
58.2

> <RotBonds>
2

> <ROCS_ShapeQuery>
A71EV2A-x0451_0A_A71EV2A-x0310_0A_A71EV2A-x0416_0A_peptide

> <ROCS_TanimotoCombo>
0.463 

> <ROCS_ShapeTanimoto>
0.279 

> <ROCS_ColorTanimoto>
0.185 

> <ROCS_RefTversky>
0.248 

> <ROCS_RefColorTversky>
0.188 

> <ROCS_RefTverskyCombo>
0.437 

> <ROCS_FitTversky>
1.766 

> <ROCS_FitColorTversky>
0.902 

> <ROCS_FitTverskyCombo>
2.668 

> <ROCS_ColorScore>
-5.720

> <ROCS_Overlap>
1721.604

> <ROCS_Rank>
73                  

$$$$
untitled-dbase-21_143
  -OEChem-11112315393D

 29 30  0     0  0  0  0  0  0999 V2000
   10.6996    7.1433   22.1547 C   0  0  0  0  0  0  0  0  0  0  0  0
   12.0334    7.5308   22.0260 C   0  0  0  0  0  0  0  0  0  0  0  0
    9.7612    8.0353   22.6739 C   0  0  0  0  0  0  0  0  0  0  0  0
   12.4287    8.8102   22.4166 C   0  0  0  0  0  0  0  0  0  0  0  0
    8.1273   12.0011   24.1359 C   0  0  0  0  0  0  0  0  0  0  0  0
   10.1565    9.3146   23.0645 C   0  0  0  0  0  0  0  0  0  0  0  0
   11.4903    9.7021   22.9359 C   0  0  0  0  0  0  0  0  0  0  0  0
    7.4970   10.8278   24.5916 C   0  0  0  0  0  0  0  0  0  0  0  0
    9.2490   11.5558   23.4802 C   0  0  0  0  0  0  0  0  0  0  0  0
   10.6865   13.5511   23.1406 C   0  0  0  0  0  0  0  0  0  0  0  0
    6.2453   10.7226   25.3603 C   0  0  0  0  0  0  0  0  0  0  0  0
   11.1951   14.2899   21.9245 C   0  0  0  0  0  0  0  0  0  0  0  0
    8.1628    9.7202   24.2539 N   0  0  0  0  0  0  0  0  0  0  0  0
    9.2232   10.1958   23.5789 N   0  0  0  0  0  0  0  0  0  0  0  0
   10.2355   12.2556   22.8363 N   0  0  0  0  0  0  0  0  0  0  0  0
   10.6814   14.1000   24.2391 O   0  0  0  0  0  0  0  0  0  0  0  0
   11.8838   10.9291   23.3069 F   0  0  0  0  0  0  0  0  0  0  0  0
   12.4575   15.4095   22.4616 Cl  0  0  0  0  0  0  0  0  0  0  0  0
   10.3922    6.1474   21.8503 H   0  0  0  0  0  0  0  0  0  0  0  0
   12.7641    6.8364   21.6219 H   0  0  0  0  0  0  0  0  0  0  0  0
    8.7250    7.7197   22.7690 H   0  0  0  0  0  0  0  0  0  0  0  0
   13.4670    9.1118   22.3164 H   0  0  0  0  0  0  0  0  0  0  0  0
    7.8115   13.0266   24.2652 H   0  0  0  0  0  0  0  0  0  0  0  0
    5.3706   10.6403   24.6925 H   0  0  0  0  0  0  0  0  0  0  0  0
    6.2380    9.8421   26.0274 H   0  0  0  0  0  0  0  0  0  0  0  0
    6.0827   11.5979   26.0145 H   0  0  0  0  0  0  0  0  0  0  0  0
   10.4121   14.8584   21.4163 H   0  0  0  0  0  0  0  0  0  0  0  0
   11.6277   13.5751   21.2187 H   0  0  0  0  0  0  0  0  0  0  0  0
   10.6948   11.7822   22.0460 H   0  0  0  0  0  0  0  0  0  0  0  0
  1  2  1  0  0  0  0
  1  3  2  0  0  0  0
  2  4  2  0  0  0  0
  3  6  1  0  0  0  0
  4  7  1  0  0  0  0
  5  8  1  0  0  0  0
  5  9  2  0  0  0  0
  6  7  2  0  0  0  0
  6 14  1  0  0  0  0
  7 17  1  0  0  0  0
  8 11  1  0  0  0  0
  8 13  2  0  0  0  0
  9 14  1  0  0  0  0
  9 15  1  0  0  0  0
 10 12  1  0  0  0  0
 10 15  1  0  0  0  0
 10 16  2  0  0  0  0
 12 18  1  0  0  0  0
 13 14  1  0  0  0  0
  1 19  1  0  0  0  0
  2 20  1  0  0  0  0
  3 21  1  0  0  0  0
  4 22  1  0  0  0  0
  5 23  1  0  0  0  0
 11 24  1  0  0  0  0
 11 25  1  0  0  0  0
 11 26  1  0  0  0  0
 12 27  1  0  0  0  0
 12 28  1  0  0  0  0
 15 29  1  0  0  0  0
M  END
> <Catalog ID>
Z561428262

> <MW>
267.057

> <MW (desalted)>
267.687

> <ClogP>
2.733

> <logS>
-3.268

> <HBD>
1

> <HBA>
2

> <TPSA>
46.92

> <RotBonds>
3

> <ROCS_ShapeQuery>
A71EV2A-x0451_0A_A71EV2A-x0310_0A_A71EV2A-x0416_0A_peptide

> <ROCS_TanimotoCombo>
0.462 

> <ROCS_ShapeTanimoto>
0.294 

> <ROCS_ColorTanimoto>
0.168 

> <ROCS_RefTversky>
0.264 

> <ROCS_RefColorTversky>
0.174 

> <ROCS_RefTverskyCombo>
0.439 

> <ROCS_FitTversky>
1.616 

> <ROCS_FitColorTversky>
0.835 

> <ROCS_FitTverskyCombo>
2.451 

> <ROCS_ColorScore>
-5.288

> <ROCS_Overlap>
1834.098

> <ROCS_Rank>
74                  

$$$$
untitled-dbase-442_0
  -OEChem-11112315393D

 24 25  0     0  0  0  0  0  0999 V2000
    6.4239   11.3192   26.0716 C   0  0  0  0  0  0  0  0  0  0  0  0
    6.8190   12.6191   25.7836 C   0  0  0  0  0  0  0  0  0  0  0  0
    7.1071   10.2536   25.4973 C   0  0  0  0  0  0  0  0  0  0  0  0
    7.9054   12.8543   24.9334 C   0  0  0  0  0  0  0  0  0  0  0  0
    8.1897   10.4906   24.6379 C   0  0  0  0  0  0  0  0  0  0  0  0
    8.6246   11.7938   24.3567 C   0  0  0  0  0  0  0  0  0  0  0  0
    9.8556    9.4657   23.1834 C   0  0  0  0  0  0  0  0  0  0  0  0
   10.4202   13.2349   23.3972 C   0  0  0  0  0  0  0  0  0  0  0  0
   10.1967   10.8516   22.6921 C   0  0  0  0  0  0  0  0  0  0  0  0
   11.0763   13.5316   22.0657 C   0  0  0  0  0  0  0  0  0  0  0  0
    8.8359    9.3773   24.0908 N   0  0  0  0  0  0  0  0  0  0  0  0
    9.7566   11.9954   23.4954 N   0  0  0  0  0  0  0  0  0  0  0  0
   10.4026    8.4730   22.7002 O   0  0  0  0  0  0  0  0  0  0  0  0
   10.5314   14.0702   24.2972 O   0  0  0  0  0  0  0  0  0  0  0  0
   11.0037   15.2755   21.8526 Cl  0  0  0  0  0  0  0  0  0  0  0  0
    5.5942   11.1365   26.7475 H   0  0  0  0  0  0  0  0  0  0  0  0
    6.2874   13.4576   26.2248 H   0  0  0  0  0  0  0  0  0  0  0  0
    6.7934    9.2384   25.7283 H   0  0  0  0  0  0  0  0  0  0  0  0
    8.1774   13.8923   24.7768 H   0  0  0  0  0  0  0  0  0  0  0  0
   11.2883   10.9150   22.6100 H   0  0  0  0  0  0  0  0  0  0  0  0
    9.7705   10.9365   21.6871 H   0  0  0  0  0  0  0  0  0  0  0  0
   10.5150   13.0344   21.2855 H   0  0  0  0  0  0  0  0  0  0  0  0
   12.1057   13.2008   22.1065 H   0  0  0  0  0  0  0  0  0  0  0  0
    8.5340    8.4537   24.3881 H   0  0  0  0  0  0  0  0  0  0  0  0
  1  2  1  0  0  0  0
  1  3  2  0  0  0  0
  2  4  2  0  0  0  0
  3  5  1  0  0  0  0
  4  6  1  0  0  0  0
  5  6  2  0  0  0  0
  5 11  1  0  0  0  0
  6 12  1  0  0  0  0
  7  9  1  0  0  0  0
  7 11  1  0  0  0  0
  7 13  2  0  0  0  0
  8 10  1  0  0  0  0
  8 12  1  0  0  0  0
  8 14  2  0  0  0  0
  9 12  1  0  0  0  0
 10 15  1  0  0  0  0
  1 16  1  0  0  0  0
  2 17  1  0  0  0  0
  3 18  1  0  0  0  0
  4 19  1  0  0  0  0
  9 20  1  0  0  0  0
  9 21  1  0  0  0  0
 10 22  1  0  0  0  0
 10 23  1  0  0  0  0
 11 24  1  0  0  0  0
M  END
> <Catalog ID>
Z56886550

> <MW>
224.035

> <MW (desalted)>
224.644

> <ClogP>
1.042

> <logS>
-2.44

> <HBD>
1

> <HBA>
2

> <TPSA>
49.41

> <RotBonds>
1

> <ROCS_ShapeQuery>
A71EV2A-x0451_0A_A71EV2A-x0310_0A_A71EV2A-x0416_0A_peptide

> <ROCS_TanimotoCombo>
0.462 

> <ROCS_ShapeTanimoto>
0.311 

> <ROCS_ColorTanimoto>
0.151 

> <ROCS_RefTversky>
0.272 

> <ROCS_RefColorTversky>
0.159 

> <ROCS_RefTverskyCombo>
0.430 

> <ROCS_FitTversky>
1.885 

> <ROCS_FitColorTversky>
0.760 

> <ROCS_FitTverskyCombo>
2.644 

> <ROCS_ColorScore>
-4.816

> <ROCS_Overlap>
1881.849

> <ROCS_Rank>
75                  

$$$$
untitled-dbase-608_32
  -OEChem-11112315393D

 27 27  0     0  0  0  0  0  0999 V2000
    9.2587   10.1649   23.3678 C   0  0  0  0  0  0  0  0  0  0  0  0
    8.3614   12.1538   24.4053 C   0  0  0  0  0  0  0  0  0  0  0  0
    8.3776    9.3796   24.1111 C   0  0  0  0  0  0  0  0  0  0  0  0
    7.4802   11.3685   25.1486 C   0  0  0  0  0  0  0  0  0  0  0  0
    9.2506   11.5521   23.5149 C   0  0  0  0  0  0  0  0  0  0  0  0
    7.4884    9.9814   25.0015 C   0  0  0  0  0  0  0  0  0  0  0  0
   12.2652   15.2376   22.1091 C   0  0  0  0  0  0  0  0  0  0  0  0
   10.7061   13.5786   23.1185 C   0  0  0  0  0  0  0  0  0  0  0  0
    6.6903    7.8037   25.5275 C   0  0  0  0  0  0  0  0  0  0  0  0
   13.0931   15.4444   20.8662 C   0  0  0  0  0  0  0  0  0  0  0  0
   10.1441   12.3485   22.7612 N   0  0  0  0  0  0  0  0  0  0  0  0
   11.5460   14.0436   22.0864 N   0  0  0  0  0  0  0  0  0  0  0  0
   12.2675   16.0510   23.0310 O   0  0  0  0  0  0  0  0  0  0  0  0
   10.5199   14.1938   24.1652 O   0  0  0  0  0  0  0  0  0  0  0  0
    6.6286    9.2152   25.7269 O   0  0  0  0  0  0  0  0  0  0  0  0
   13.9130   17.0067   21.0136 Cl  0  0  0  0  0  0  0  0  0  0  0  0
    9.9473    9.6854   22.6768 H   0  0  0  0  0  0  0  0  0  0  0  0
    8.3462   13.2338   24.5282 H   0  0  0  0  0  0  0  0  0  0  0  0
    8.3886    8.2996   23.9922 H   0  0  0  0  0  0  0  0  0  0  0  0
    6.7899   11.8431   25.8407 H   0  0  0  0  0  0  0  0  0  0  0  0
    5.9526    7.3121   26.1664 H   0  0  0  0  0  0  0  0  0  0  0  0
    7.6939    7.4443   25.7683 H   0  0  0  0  0  0  0  0  0  0  0  0
    6.4675    7.5825   24.4810 H   0  0  0  0  0  0  0  0  0  0  0  0
   12.4365   15.4655   19.9920 H   0  0  0  0  0  0  0  0  0  0  0  0
   13.8459   14.6647   20.7268 H   0  0  0  0  0  0  0  0  0  0  0  0
   10.4097   11.9830   21.8503 H   0  0  0  0  0  0  0  0  0  0  0  0
   11.6345   13.4611   21.2585 H   0  0  0  0  0  0  0  0  0  0  0  0
  1  3  2  0  0  0  0
  1  5  1  0  0  0  0
  2  4  1  0  0  0  0
  2  5  2  0  0  0  0
  3  6  1  0  0  0  0
  4  6  2  0  0  0  0
  5 11  1  0  0  0  0
  6 15  1  0  0  0  0
  7 10  1  0  0  0  0
  7 12  1  0  0  0  0
  7 13  2  0  0  0  0
  8 11  1  0  0  0  0
  8 12  1  0  0  0  0
  8 14  2  0  0  0  0
  9 15  1  0  0  0  0
 10 16  1  0  0  0  0
  1 17  1  0  0  0  0
  2 18  1  0  0  0  0
  3 19  1  0  0  0  0
  4 20  1  0  0  0  0
  9 21  1  0  0  0  0
  9 22  1  0  0  0  0
  9 23  1  0  0  0  0
 10 24  1  0  0  0  0
 10 25  1  0  0  0  0
 11 26  1  0  0  0  0
 12 27  1  0  0  0  0
M  END
> <Catalog ID>
Z90122367

> <MW>
242.046

> <MW (desalted)>
242.659

> <ClogP>
2.317

> <logS>
-2.54

> <HBD>
2

> <HBA>
3

> <TPSA>
67.43

> <RotBonds>
3

> <ROCS_ShapeQuery>
A71EV2A-x0451_0A_A71EV2A-x0310_0A_A71EV2A-x0416_0A_peptide

> <ROCS_TanimotoCombo>
0.462 

> <ROCS_ShapeTanimoto>
0.282 

> <ROCS_ColorTanimoto>
0.180 

> <ROCS_RefTversky>
0.253 

> <ROCS_RefColorTversky>
0.189 

> <ROCS_RefTverskyCombo>
0.441 

> <ROCS_FitTversky>
1.717 

> <ROCS_FitColorTversky>
0.788 

> <ROCS_FitTverskyCombo>
2.505 

> <ROCS_ColorScore>
-5.749

> <ROCS_Overlap>
1750.195

> <ROCS_Rank>
76                  

$$$$
untitled-dbase-11_39
  -OEChem-11112315393D

 35 36  0     1  0  0  0  0  0999 V2000
    6.8116   12.7160   26.0274 C   0  0  0  0  0  0  0  0  0  0  0  0
    6.0841   11.5400   25.9193 C   0  0  0  0  0  0  0  0  0  0  0  0
    8.0167   12.8400   25.3459 C   0  0  0  0  0  0  0  0  0  0  0  0
    6.5612   10.4894   25.1294 C   0  0  0  0  0  0  0  0  0  0  0  0
    8.5056   11.7876   24.5479 C   0  0  0  0  0  0  0  0  0  0  0  0
    7.7758   10.5796   24.4189 C   0  0  0  0  0  0  0  0  0  0  0  0
   12.7985   15.7237   21.0220 C   0  0  0  0  0  0  0  0  0  0  0  0
   12.7047   15.0082   22.1469 C   0  0  0  0  0  0  0  0  0  0  0  0
   11.3723   14.6505   22.7027 C   0  0  0  0  0  0  0  0  0  0  0  0
   10.4434   10.6353   23.4646 C   0  0  0  0  0  0  0  0  0  0  0  0
    9.4242    9.7316   22.7861 C   0  0  0  0  0  0  0  0  0  0  0  0
    9.8253   11.9885   23.8252 C   0  0  1  0  0  0  0  0  0  0  0  0
    7.4715    8.3182   23.4338 C   0  0  0  0  0  0  0  0  0  0  0  0
    9.6404   12.8802   22.5932 C   0  0  0  0  0  0  0  0  0  0  0  0
    8.2591    9.5254   23.6430 N   0  0  3  0  0  0  0  0  0  0  0  0
   10.8942   13.4335   22.2121 N   0  0  0  0  0  0  0  0  0  0  0  0
   10.7767   15.3657   23.5019 O   0  0  0  0  0  0  0  0  0  0  0  0
    6.4440   13.5332   26.6403 H   0  0  0  0  0  0  0  0  0  0  0  0
    5.1420   11.4327   26.4493 H   0  0  0  0  0  0  0  0  0  0  0  0
    8.5818   13.7646   25.4380 H   0  0  0  0  0  0  0  0  0  0  0  0
    5.9498    9.5911   25.0839 H   0  0  0  0  0  0  0  0  0  0  0  0
   13.7740   15.9818   20.6233 H   0  0  0  0  0  0  0  0  0  0  0  0
   11.9282   16.0672   20.4736 H   0  0  0  0  0  0  0  0  0  0  0  0
   13.6007   14.6837   22.6648 H   0  0  0  0  0  0  0  0  0  0  0  0
   10.8098   10.1416   24.3750 H   0  0  0  0  0  0  0  0  0  0  0  0
   11.3150   10.7729   22.8138 H   0  0  0  0  0  0  0  0  0  0  0  0
    9.1037   10.1496   21.8250 H   0  0  0  0  0  0  0  0  0  0  0  0
    9.9073    8.7715   22.5682 H   0  0  0  0  0  0  0  0  0  0  0  0
   10.5254   12.4910   24.5061 H   0  0  0  0  0  0  0  0  0  0  0  0
    8.0334    7.6190   22.7970 H   0  0  0  0  0  0  0  0  0  0  0  0
    7.2631    7.8438   24.4041 H   0  0  0  0  0  0  0  0  0  0  0  0
    6.5229    8.5800   22.9424 H   0  0  0  0  0  0  0  0  0  0  0  0
    9.2390   12.2509   21.8027 H   0  0  0  0  0  0  0  0  0  0  0  0
    8.9398   13.6641   22.8704 H   0  0  0  0  0  0  0  0  0  0  0  0
   11.4636   12.9318   21.5210 H   0  0  0  0  0  0  0  0  0  0  0  0
  1  2  1  0  0  0  0
  1  3  2  0  0  0  0
  2  4  2  0  0  0  0
  3  5  1  0  0  0  0
  4  6  1  0  0  0  0
  5  6  2  0  0  0  0
  5 12  1  0  0  0  0
  6 15  1  0  0  0  0
  7  8  2  0  0  0  0
  8  9  1  0  0  0  0
  9 16  1  0  0  0  0
  9 17  2  0  0  0  0
 10 11  1  0  0  0  0
 10 12  1  0  0  0  0
 11 15  1  0  0  0  0
 12 14  1  0  0  0  0
 13 15  1  0  0  0  0
 14 16  1  0  0  0  0
  1 18  1  0  0  0  0
  2 19  1  0  0  0  0
  3 20  1  0  0  0  0
  4 21  1  0  0  0  0
  7 22  1  0  0  0  0
  7 23  1  0  0  0  0
  8 24  1  0  0  0  0
 10 25  1  0  0  0  0
 10 26  1  0  0  0  0
 11 27  1  0  0  0  0
 11 28  1  0  0  0  0
 12 29  1  0  0  0  0
 13 30  1  0  0  0  0
 13 31  1  0  0  0  0
 13 32  1  0  0  0  0
 14 33  1  0  0  0  0
 14 34  1  0  0  0  0
 16 35  1  0  0  0  0
M  END
> <Catalog ID>
Z2737383155

> <MW>
230.306

> <MW (desalted)>
230.306

> <ClogP>
1.834

> <logS>
-2.519

> <HBD>
1

> <HBA>
2

> <TPSA>
32.34

> <RotBonds>
3

> <ROCS_ShapeQuery>
A71EV2A-x0451_0A_A71EV2A-x0310_0A_A71EV2A-x0416_0A_peptide

> <ROCS_TanimotoCombo>
0.462 

> <ROCS_ShapeTanimoto>
0.323 

> <ROCS_ColorTanimoto>
0.139 

> <ROCS_RefTversky>
0.282 

> <ROCS_RefColorTversky>
0.147 

> <ROCS_RefTverskyCombo>
0.429 

> <ROCS_FitTversky>
1.827 

> <ROCS_FitColorTversky>
0.705 

> <ROCS_FitTverskyCombo>
2.532 

> <ROCS_ColorScore>
-4.469

> <ROCS_Overlap>
1955.427

> <ROCS_Rank>
77                  

$$$$
untitled-dbase-565_103
  -OEChem-11112315393D

 30 31  0     0  0  0  0  0  0999 V2000
    6.7682   12.7976   25.9489 C   0  0  0  0  0  0  0  0  0  0  0  0
    7.8656   12.9864   25.1020 C   0  0  0  0  0  0  0  0  0  0  0  0
    6.7423   10.4647   25.3943 C   0  0  0  0  0  0  0  0  0  0  0  0
    6.2080   11.5372   26.0982 C   0  0  0  0  0  0  0  0  0  0  0  0
    7.8537   10.6385   24.5488 C   0  0  0  0  0  0  0  0  0  0  0  0
    8.4413   11.9157   24.3940 C   0  0  0  0  0  0  0  0  0  0  0  0
   11.6530   14.7626   22.0790 C   0  0  0  0  0  0  0  0  0  0  0  0
   10.9360   13.6404   22.1683 C   0  0  0  0  0  0  0  0  0  0  0  0
    5.0827   11.3368   26.9972 C   0  0  0  0  0  0  0  0  0  0  0  0
   10.3091   13.2931   23.4647 C   0  0  0  0  0  0  0  0  0  0  0  0
    8.3487    9.4314   23.7965 C   0  0  0  0  0  0  0  0  0  0  0  0
    9.7786    9.6257   23.3352 C   0  0  0  0  0  0  0  0  0  0  0  0
    9.9047   10.9610   22.6233 C   0  0  0  0  0  0  0  0  0  0  0  0
    9.5668   12.1010   23.4990 N   0  0  0  0  0  0  0  0  0  0  0  0
    4.2234   12.1821   27.2685 O   0  0  0  0  0  0  0  0  0  0  0  0
   10.4963   14.0710   24.3995 O   0  0  0  0  0  0  0  0  0  0  0  0
    5.0601   10.0852   27.5321 O   0  0  0  0  0  0  0  0  0  0  0  0
    6.3710   13.6475   26.4988 H   0  0  0  0  0  0  0  0  0  0  0  0
    8.2644   13.9938   25.0567 H   0  0  0  0  0  0  0  0  0  0  0  0
    6.2967    9.4771   25.4993 H   0  0  0  0  0  0  0  0  0  0  0  0
   12.1357   15.0700   21.1574 H   0  0  0  0  0  0  0  0  0  0  0  0
   11.7696   15.4043   22.9460 H   0  0  0  0  0  0  0  0  0  0  0  0
   10.7966   12.9754   21.3261 H   0  0  0  0  0  0  0  0  0  0  0  0
    8.2811    8.5575   24.4561 H   0  0  0  0  0  0  0  0  0  0  0  0
    7.7165    9.2401   22.9213 H   0  0  0  0  0  0  0  0  0  0  0  0
   10.4543    9.5917   24.1971 H   0  0  0  0  0  0  0  0  0  0  0  0
   10.0793    8.8146   22.6594 H   0  0  0  0  0  0  0  0  0  0  0  0
   10.9240   11.1207   22.2509 H   0  0  0  0  0  0  0  0  0  0  0  0
    9.2327   10.9360   21.7597 H   0  0  0  0  0  0  0  0  0  0  0  0
    5.8037    9.5226   27.2273 H   0  0  0  0  0  0  0  0  0  0  0  0
  1  2  2  0  0  0  0
  1  4  1  0  0  0  0
  2  6  1  0  0  0  0
  3  4  2  0  0  0  0
  3  5  1  0  0  0  0
  4  9  1  0  0  0  0
  5  6  2  0  0  0  0
  5 11  1  0  0  0  0
  6 14  1  0  0  0  0
  7  8  2  0  0  0  0
  8 10  1  0  0  0  0
  9 15  2  0  0  0  0
  9 17  1  0  0  0  0
 10 14  1  0  0  0  0
 10 16  2  0  0  0  0
 11 12  1  0  0  0  0
 12 13  1  0  0  0  0
 13 14  1  0  0  0  0
  1 18  1  0  0  0  0
  2 19  1  0  0  0  0
  3 20  1  0  0  0  0
  7 21  1  0  0  0  0
  7 22  1  0  0  0  0
  8 23  1  0  0  0  0
 11 24  1  0  0  0  0
 11 25  1  0  0  0  0
 12 26  1  0  0  0  0
 12 27  1  0  0  0  0
 13 28  1  0  0  0  0
 13 29  1  0  0  0  0
 17 30  1  0  0  0  0
M  END
> <Catalog ID>
Z381405528

> <MW>
231.09

> <MW (desalted)>
231.247

> <ClogP>
2.679

> <logS>
-3.069

> <HBD>
1

> <HBA>
3

> <TPSA>
57.61

> <RotBonds>
2

> <ROCS_ShapeQuery>
A71EV2A-x0451_0A_A71EV2A-x0310_0A_A71EV2A-x0416_0A_peptide

> <ROCS_TanimotoCombo>
0.462 

> <ROCS_ShapeTanimoto>
0.316 

> <ROCS_ColorTanimoto>
0.146 

> <ROCS_RefTversky>
0.278 

> <ROCS_RefColorTversky>
0.162 

> <ROCS_RefTverskyCombo>
0.439 

> <ROCS_FitTversky>
1.774 

> <ROCS_FitColorTversky>
0.597 

> <ROCS_FitTverskyCombo>
2.372 

> <ROCS_ColorScore>
-4.928

> <ROCS_Overlap>
1925.353

> <ROCS_Rank>
78                  

$$$$
untitled-dbase-669_24
  -OEChem-11112315393D

 25 26  0     0  0  0  0  0  0999 V2000
   10.4644   10.9974   22.5771 C   0  0  0  0  0  0  0  0  0  0  0  0
    9.7056    9.9876   23.1696 C   0  0  0  0  0  0  0  0  0  0  0  0
    9.0599   12.6706   23.6132 C   0  0  0  0  0  0  0  0  0  0  0  0
   10.1452   12.3367   22.8027 C   0  0  0  0  0  0  0  0  0  0  0  0
    8.6281   10.3207   23.9909 C   0  0  0  0  0  0  0  0  0  0  0  0
    8.2922   11.6614   24.1951 C   0  0  0  0  0  0  0  0  0  0  0  0
   11.1332   14.6131   22.7329 C   0  0  0  0  0  0  0  0  0  0  0  0
    7.0956    9.7310   25.6310 C   0  0  0  0  0  0  0  0  0  0  0  0
    6.3259   10.9694   25.2152 C   0  0  0  0  0  0  0  0  0  0  0  0
   12.0101   15.4449   21.8260 C   0  0  0  0  0  0  0  0  0  0  0  0
   10.9098   13.3436   22.2123 N   0  0  0  0  0  0  0  0  0  0  0  0
   10.6968   15.0900   23.7771 O   0  0  0  0  0  0  0  0  0  0  0  0
    7.9334    9.2858   24.5607 O   0  0  0  0  0  0  0  0  0  0  0  0
    7.2266   12.0514   24.9637 O   0  0  0  0  0  0  0  0  0  0  0  0
   11.7215   14.9150   20.1611 Cl  0  0  0  0  0  0  0  0  0  0  0  0
   11.3060   10.7284   21.9436 H   0  0  0  0  0  0  0  0  0  0  0  0
    9.9657    8.9472   22.9945 H   0  0  0  0  0  0  0  0  0  0  0  0
    8.8038   13.7137   23.7841 H   0  0  0  0  0  0  0  0  0  0  0  0
    7.7229    9.9214   26.5107 H   0  0  0  0  0  0  0  0  0  0  0  0
    6.4049    8.9175   25.8734 H   0  0  0  0  0  0  0  0  0  0  0  0
    5.7312   10.7910   24.3106 H   0  0  0  0  0  0  0  0  0  0  0  0
    5.6465   11.2809   26.0147 H   0  0  0  0  0  0  0  0  0  0  0  0
   13.0742   15.3374   22.0509 H   0  0  0  0  0  0  0  0  0  0  0  0
   11.7338   16.4990   21.9188 H   0  0  0  0  0  0  0  0  0  0  0  0
   11.3444   13.1286   21.3170 H   0  0  0  0  0  0  0  0  0  0  0  0
  1  2  2  0  0  0  0
  1  4  1  0  0  0  0
  2  5  1  0  0  0  0
  3  4  2  0  0  0  0
  3  6  1  0  0  0  0
  4 11  1  0  0  0  0
  5  6  2  0  0  0  0
  5 13  1  0  0  0  0
  6 14  1  0  0  0  0
  7 10  1  0  0  0  0
  7 11  1  0  0  0  0
  7 12  2  0  0  0  0
  8  9  1  0  0  0  0
  8 13  1  0  0  0  0
  9 14  1  0  0  0  0
 10 15  1  0  0  0  0
  1 16  1  0  0  0  0
  2 17  1  0  0  0  0
  3 18  1  0  0  0  0
  8 19  1  0  0  0  0
  8 20  1  0  0  0  0
  9 21  1  0  0  0  0
  9 22  1  0  0  0  0
 10 23  1  0  0  0  0
 10 24  1  0  0  0  0
 11 25  1  0  0  0  0
M  END
> <Catalog ID>
Z56889135

> <MW>
227.035

> <MW (desalted)>
227.644

> <ClogP>
1.79

> <logS>
-2.69

> <HBD>
1

> <HBA>
3

> <TPSA>
47.56

> <RotBonds>
2

> <ROCS_ShapeQuery>
A71EV2A-x0451_0A_A71EV2A-x0310_0A_A71EV2A-x0416_0A_peptide

> <ROCS_TanimotoCombo>
0.462 

> <ROCS_ShapeTanimoto>
0.299 

> <ROCS_ColorTanimoto>
0.162 

> <ROCS_RefTversky>
0.264 

> <ROCS_RefColorTversky>
0.173 

> <ROCS_RefTverskyCombo>
0.437 

> <ROCS_FitTversky>
1.832 

> <ROCS_FitColorTversky>
0.722 

> <ROCS_FitTverskyCombo>
2.554 

> <ROCS_ColorScore>
-5.264

> <ROCS_Overlap>
1826.570

> <ROCS_Rank>
79                  

$$$$
untitled-dbase-496_148
  -OEChem-11112315393D

 25 26  0     0  0  0  0  0  0999 V2000
    9.8814   10.5276   23.0399 C   0  0  0  0  0  0  0  0  0  0  0  0
    8.7384    9.8621   23.4893 C   0  0  0  0  0  0  0  0  0  0  0  0
    9.3196   12.4843   24.3755 C   0  0  0  0  0  0  0  0  0  0  0  0
   10.1704   11.8312   23.4805 C   0  0  0  0  0  0  0  0  0  0  0  0
    7.9148   10.5292   24.3727 C   0  0  0  0  0  0  0  0  0  0  0  0
    8.1976   11.8051   24.8040 C   0  0  0  0  0  0  0  0  0  0  0  0
   10.8337   14.8471   22.3365 C   0  0  0  0  0  0  0  0  0  0  0  0
    6.3556   11.1564   25.7356 C   0  0  0  0  0  0  0  0  0  0  0  0
   11.3969   12.5226   22.9858 C   0  0  0  0  0  0  0  0  0  0  0  0
   10.5677   15.7234   21.1392 C   0  0  0  0  0  0  0  0  0  0  0  0
   11.0973   13.5283   21.9989 N   0  0  0  0  0  0  0  0  0  0  0  0
   10.8262   15.2941   23.4821 O   0  0  0  0  0  0  0  0  0  0  0  0
    6.7652   10.0432   24.9151 O   0  0  0  0  0  0  0  0  0  0  0  0
    7.2605   12.2777   25.6702 O   0  0  0  0  0  0  0  0  0  0  0  0
   11.4838   15.0702   19.7720 Cl  0  0  0  0  0  0  0  0  0  0  0  0
   10.5500   10.0265   22.3441 H   0  0  0  0  0  0  0  0  0  0  0  0
    8.5125    8.8569   23.1528 H   0  0  0  0  0  0  0  0  0  0  0  0
    9.5315   13.4894   24.7243 H   0  0  0  0  0  0  0  0  0  0  0  0
    5.3635   11.4872   25.4073 H   0  0  0  0  0  0  0  0  0  0  0  0
    6.2888   10.8195   26.7762 H   0  0  0  0  0  0  0  0  0  0  0  0
   11.9315   13.0161   23.8090 H   0  0  0  0  0  0  0  0  0  0  0  0
   12.1012   11.8142   22.5290 H   0  0  0  0  0  0  0  0  0  0  0  0
    9.5094   15.7547   20.8686 H   0  0  0  0  0  0  0  0  0  0  0  0
   10.9129   16.7395   21.3488 H   0  0  0  0  0  0  0  0  0  0  0  0
   11.0783   13.2610   21.0176 H   0  0  0  0  0  0  0  0  0  0  0  0
  1  2  2  0  0  0  0
  1  4  1  0  0  0  0
  2  5  1  0  0  0  0
  3  4  2  0  0  0  0
  3  6  1  0  0  0  0
  4  9  1  0  0  0  0
  5  6  2  0  0  0  0
  5 13  1  0  0  0  0
  6 14  1  0  0  0  0
  7 10  1  0  0  0  0
  7 11  1  0  0  0  0
  7 12  2  0  0  0  0
  8 13  1  0  0  0  0
  8 14  1  0  0  0  0
  9 11  1  0  0  0  0
 10 15  1  0  0  0  0
  1 16  1  0  0  0  0
  2 17  1  0  0  0  0
  3 18  1  0  0  0  0
  8 19  1  0  0  0  0
  8 20  1  0  0  0  0
  9 21  1  0  0  0  0
  9 22  1  0  0  0  0
 10 23  1  0  0  0  0
 10 24  1  0  0  0  0
 11 25  1  0  0  0  0
M  END
> <Catalog ID>
Z56889407

> <MW>
227.035

> <MW (desalted)>
227.644

> <ClogP>
1.528

> <logS>
-2.62

> <HBD>
1

> <HBA>
3

> <TPSA>
47.56

> <RotBonds>
3

> <ROCS_ShapeQuery>
A71EV2A-x0451_0A_A71EV2A-x0310_0A_A71EV2A-x0416_0A_peptide

> <ROCS_TanimotoCombo>
0.461 

> <ROCS_ShapeTanimoto>
0.299 

> <ROCS_ColorTanimoto>
0.163 

> <ROCS_RefTversky>
0.263 

> <ROCS_RefColorTversky>
0.174 

> <ROCS_RefTverskyCombo>
0.437 

> <ROCS_FitTversky>
1.833 

> <ROCS_FitColorTversky>
0.722 

> <ROCS_FitTverskyCombo>
2.555 

> <ROCS_ColorScore>
-5.280

> <ROCS_Overlap>
1822.551

> <ROCS_Rank>
80                  

$$$$
untitled-dbase-501_41
  -OEChem-11112315393D

 31 32  0     1  0  0  0  0  0999 V2000
    7.8184   12.9346   25.2126 C   0  0  0  0  0  0  0  0  0  0  0  0
    6.7212   12.5918   26.0096 C   0  0  0  0  0  0  0  0  0  0  0  0
    6.8838   10.2710   25.3194 C   0  0  0  0  0  0  0  0  0  0  0  0
    7.9641   10.6217   24.5248 C   0  0  0  0  0  0  0  0  0  0  0  0
    8.4297   11.9382   24.4659 C   0  0  0  0  0  0  0  0  0  0  0  0
    6.2556   11.2704   26.0616 C   0  0  0  0  0  0  0  0  0  0  0  0
   10.3540   13.1343   23.4391 C   0  0  0  0  0  0  0  0  0  0  0  0
    8.8280    9.7052   23.7182 C   0  0  0  0  0  0  0  0  0  0  0  0
    9.6561   10.7074   22.8868 C   0  0  1  0  0  0  0  0  0  0  0  0
    9.1056   10.7956   21.4587 C   0  0  0  0  0  0  0  0  0  0  0  0
   10.9983   13.2988   22.0835 C   0  0  0  0  0  0  0  0  0  0  0  0
    9.5398   12.0196   23.5905 N   0  0  0  0  0  0  0  0  0  0  0  0
    5.6723   10.4827   28.5403 N   0  0  0  0  0  0  0  0  0  0  0  0
   10.5977   13.9671   24.3143 O   0  0  0  0  0  0  0  0  0  0  0  0
    4.0962   12.0781   27.2689 O   0  0  0  0  0  0  0  0  0  0  0  0
    4.2585    9.6700   26.5459 O   0  0  0  0  0  0  0  0  0  0  0  0
    4.8884   10.8723   27.0730 S   0  0  0  0  0  0  0  0  0  0  0  0
   11.9337   14.7875   22.1502 Cl  0  0  0  0  0  0  0  0  0  0  0  0
    8.1456   13.9666   25.1927 H   0  0  0  0  0  0  0  0  0  0  0  0
    6.2305   13.3673   26.5932 H   0  0  0  0  0  0  0  0  0  0  0  0
    6.5458    9.2408   25.3670 H   0  0  0  0  0  0  0  0  0  0  0  0
    9.4759    9.1313   24.3897 H   0  0  0  0  0  0  0  0  0  0  0  0
    8.2340    9.0233   23.1025 H   0  0  0  0  0  0  0  0  0  0  0  0
   10.7040   10.3935   22.8461 H   0  0  0  0  0  0  0  0  0  0  0  0
    8.0648   11.1069   21.4892 H   0  0  0  0  0  0  0  0  0  0  0  0
    9.1776    9.8221   20.9810 H   0  0  0  0  0  0  0  0  0  0  0  0
    9.6831   11.5204   20.8910 H   0  0  0  0  0  0  0  0  0  0  0  0
   10.2200   13.3800   21.3344 H   0  0  0  0  0  0  0  0  0  0  0  0
   11.6524   12.4543   21.9031 H   0  0  0  0  0  0  0  0  0  0  0  0
    6.2033    9.6044   28.5844 H   0  0  0  0  0  0  0  0  0  0  0  0
    6.0917   11.2490   29.0808 H   0  0  0  0  0  0  0  0  0  0  0  0
  1  2  2  0  0  0  0
  1  5  1  0  0  0  0
  2  6  1  0  0  0  0
  3  4  1  0  0  0  0
  3  6  2  0  0  0  0
  4  5  2  0  0  0  0
  4  8  1  0  0  0  0
  5 12  1  0  0  0  0
  6 17  1  0  0  0  0
  7 11  1  0  0  0  0
  7 12  1  0  0  0  0
  7 14  2  0  0  0  0
  8  9  1  0  0  0  0
  9 10  1  0  0  0  0
  9 12  1  0  0  0  0
 11 18  1  0  0  0  0
 13 17  1  0  0  0  0
 15 17  2  0  0  0  0
 16 17  2  0  0  0  0
  1 19  1  0  0  0  0
  2 20  1  0  0  0  0
  3 21  1  0  0  0  0
  8 22  1  0  0  0  0
  8 23  1  0  0  0  0
  9 24  1  0  0  0  0
 10 25  1  0  0  0  0
 10 26  1  0  0  0  0
 10 27  1  0  0  0  0
 11 28  1  0  0  0  0
 11 29  1  0  0  0  0
 13 30  1  0  0  0  0
 13 31  1  0  0  0  0
M  END
> <Catalog ID>
Z165156698

> <MW>
288.034

> <MW (desalted)>
288.751

> <ClogP>
0.657

> <logS>
-2.66

> <HBD>
1

> <HBA>
3

> <TPSA>
80.47

> <RotBonds>
2

> <ROCS_ShapeQuery>
A71EV2A-x0451_0A_A71EV2A-x0310_0A_A71EV2A-x0416_0A_peptide

> <ROCS_TanimotoCombo>
0.461 

> <ROCS_ShapeTanimoto>
0.297 

> <ROCS_ColorTanimoto>
0.164 

> <ROCS_RefTversky>
0.265 

> <ROCS_RefColorTversky>
0.175 

> <ROCS_RefTverskyCombo>
0.440 

> <ROCS_FitTversky>
1.677 

> <ROCS_FitColorTversky>
0.727 

> <ROCS_FitTverskyCombo>
2.404 

> <ROCS_ColorScore>
-5.311

> <ROCS_Overlap>
1840.744

> <ROCS_Rank>
81                  

$$$$
untitled-dbase-211_10
  -OEChem-11112315393D

 35 36  0     1  0  0  0  0  0999 V2000
    9.0383   11.9563   22.9285 C   0  0  0  0  0  0  0  0  0  0  0  0
   11.3439   13.9047   23.3503 C   0  0  0  0  0  0  0  0  0  0  0  0
    7.5714   11.6055   22.9413 C   0  0  0  0  0  0  0  0  0  0  0  0
    7.9151   11.1432   25.3690 C   0  0  0  0  0  0  0  0  0  0  0  0
    9.4048   11.5455   25.2689 C   0  0  0  0  0  0  0  0  0  0  0  0
    7.6329   10.4752   23.9983 C   0  0  2  0  0  0  0  0  0  0  0  0
    9.8083   11.0342   23.8654 C   0  0  1  0  0  0  0  0  0  0  0  0
    8.9678    9.7361   23.6917 C   0  0  0  0  0  0  0  0  0  0  0  0
   11.2976   10.9286   23.6345 C   0  0  0  0  0  0  0  0  0  0  0  0
    9.0369    9.1085   22.2842 C   0  0  0  0  0  0  0  0  0  0  0  0
    9.2929    8.6078   24.6904 C   0  0  0  0  0  0  0  0  0  0  0  0
   12.8489   13.9846   23.3606 C   0  0  0  0  0  0  0  0  0  0  0  0
    9.5191   12.9269   22.2308 N   0  0  0  0  0  0  0  0  0  0  0  0
   10.8579   13.0760   22.3578 N   0  0  0  0  0  0  0  0  0  0  0  0
   10.6532   14.5351   24.1490 O   0  0  0  0  0  0  0  0  0  0  0  0
   13.3745   14.6124   21.7906 Cl  0  0  0  0  0  0  0  0  0  0  0  0
    6.9602   12.4568   23.2506 H   0  0  0  0  0  0  0  0  0  0  0  0
    7.2532   11.2510   21.9580 H   0  0  0  0  0  0  0  0  0  0  0  0
    7.7579   10.4419   26.1952 H   0  0  0  0  0  0  0  0  0  0  0  0
    7.2729   12.0116   25.5506 H   0  0  0  0  0  0  0  0  0  0  0  0
    9.5226   12.6311   25.3667 H   0  0  0  0  0  0  0  0  0  0  0  0
    9.9890   11.0743   26.0666 H   0  0  0  0  0  0  0  0  0  0  0  0
    6.7385    9.8475   24.0033 H   0  0  0  0  0  0  0  0  0  0  0  0
   11.7524   10.2445   24.3577 H   0  0  0  0  0  0  0  0  0  0  0  0
   11.7747   11.9078   23.7411 H   0  0  0  0  0  0  0  0  0  0  0  0
   11.5060   10.5526   22.6279 H   0  0  0  0  0  0  0  0  0  0  0  0
    9.9959    8.6190   22.1618 H   0  0  0  0  0  0  0  0  0  0  0  0
    8.9250    9.8905   21.5424 H   0  0  0  0  0  0  0  0  0  0  0  0
    8.2374    8.3844   22.1802 H   0  0  0  0  0  0  0  0  0  0  0  0
   10.2322    8.1451   24.4098 H   0  0  0  0  0  0  0  0  0  0  0  0
    8.4981    7.8711   24.6646 H   0  0  0  0  0  0  0  0  0  0  0  0
    9.3730    9.0278   25.6866 H   0  0  0  0  0  0  0  0  0  0  0  0
   13.3189   13.0111   23.5220 H   0  0  0  0  0  0  0  0  0  0  0  0
   13.1705   14.6722   24.1477 H   0  0  0  0  0  0  0  0  0  0  0  0
   11.4602   12.5711   21.7148 H   0  0  0  0  0  0  0  0  0  0  0  0
  1  3  1  0  0  0  0
  1  7  1  0  0  0  0
  1 13  2  3  0  0  0
  2 12  1  0  0  0  0
  2 14  1  0  0  0  0
  2 15  2  0  0  0  0
  3  6  1  0  0  0  0
  4  5  1  0  0  0  0
  4  6  1  0  0  0  0
  5  7  1  0  0  0  0
  6  8  1  0  0  0  0
  7  8  1  0  0  0  0
  7  9  1  0  0  0  0
  8 10  1  0  0  0  0
  8 11  1  0  0  0  0
 12 16  1  0  0  0  0
 13 14  1  0  0  0  0
  3 17  1  0  0  0  0
  3 18  1  0  0  0  0
  4 19  1  0  0  0  0
  4 20  1  0  0  0  0
  5 21  1  0  0  0  0
  5 22  1  0  0  0  0
  6 23  1  0  0  0  0
  9 24  1  0  0  0  0
  9 25  1  0  0  0  0
  9 26  1  0  0  0  0
 10 27  1  0  0  0  0
 10 28  1  0  0  0  0
 10 29  1  0  0  0  0
 11 30  1  0  0  0  0
 11 31  1  0  0  0  0
 11 32  1  0  0  0  0
 12 33  1  0  0  0  0
 12 34  1  0  0  0  0
 14 35  1  0  0  0  0
M  END
> <Catalog ID>
Z56910418

> <MW>
242.119

> <MW (desalted)>
242.745

> <ClogP>
2.797

> <logS>
-2.53

> <HBD>
1

> <HBA>
2

> <TPSA>
41.46

> <RotBonds>
2

> <ROCS_ShapeQuery>
A71EV2A-x0451_0A_A71EV2A-x0310_0A_A71EV2A-x0416_0A_peptide

> <ROCS_TanimotoCombo>
0.461 

> <ROCS_ShapeTanimoto>
0.273 

> <ROCS_ColorTanimoto>
0.189 

> <ROCS_RefTversky>
0.246 

> <ROCS_RefColorTversky>
0.218 

> <ROCS_RefTverskyCombo>
0.464 

> <ROCS_FitTversky>
1.660 

> <ROCS_FitColorTversky>
0.584 

> <ROCS_FitTverskyCombo>
2.244 

> <ROCS_ColorScore>
-6.671

> <ROCS_Overlap>
1704.346

> <ROCS_Rank>
82                  

$$$$
untitled-dbase-763_9
  -OEChem-11112315393D

 35 36  0     1  0  0  0  0  0999 V2000
   10.7226   13.8221   22.9333 C   0  0  0  0  0  0  0  0  0  0  0  0
    7.1585   10.9583   23.2752 C   0  0  0  0  0  0  0  0  0  0  0  0
    8.3781   10.3248   22.5852 C   0  0  0  0  0  0  0  0  0  0  0  0
    8.6406   12.3674   24.6731 C   0  0  0  0  0  0  0  0  0  0  0  0
    7.6550   11.1755   24.7215 C   0  0  2  0  0  0  0  0  0  0  0  0
    9.8935   11.7520   24.0144 C   0  0  1  0  0  0  0  0  0  0  0  0
    9.4395   10.2854   23.7221 C   0  0  1  0  0  0  0  0  0  0  0  0
    8.5713    9.9508   24.9772 C   0  0  0  0  0  0  0  0  0  0  0  0
   10.5910    9.3418   23.4254 C   0  0  0  0  0  0  0  0  0  0  0  0
    9.3095    9.9902   26.3307 C   0  0  0  0  0  0  0  0  0  0  0  0
    7.8349    8.5959   24.9351 C   0  0  0  0  0  0  0  0  0  0  0  0
   11.1687   14.3827   21.6070 C   0  0  0  0  0  0  0  0  0  0  0  0
   10.3367   12.4907   22.8632 N   0  0  0  0  0  0  0  0  0  0  0  0
   10.7285   14.5003   23.9592 O   0  0  0  0  0  0  0  0  0  0  0  0
   12.3778   15.6364   21.9247 Cl  0  0  0  0  0  0  0  0  0  0  0  0
    6.8574   11.8925   22.7901 H   0  0  0  0  0  0  0  0  0  0  0  0
    6.2983   10.2814   23.2437 H   0  0  0  0  0  0  0  0  0  0  0  0
    8.1362    9.3219   22.2158 H   0  0  0  0  0  0  0  0  0  0  0  0
    8.6961   10.9082   21.7154 H   0  0  0  0  0  0  0  0  0  0  0  0
    8.2300   13.2144   24.1118 H   0  0  0  0  0  0  0  0  0  0  0  0
    8.8745   12.7309   25.6796 H   0  0  0  0  0  0  0  0  0  0  0  0
    6.8435   11.3179   25.4390 H   0  0  0  0  0  0  0  0  0  0  0  0
   10.7360   11.7722   24.7143 H   0  0  0  0  0  0  0  0  0  0  0  0
   11.3075    9.3483   24.2493 H   0  0  0  0  0  0  0  0  0  0  0  0
   11.1057    9.6484   22.5125 H   0  0  0  0  0  0  0  0  0  0  0  0
   10.2208    8.3231   23.2925 H   0  0  0  0  0  0  0  0  0  0  0  0
    9.9230    9.1019   26.4255 H   0  0  0  0  0  0  0  0  0  0  0  0
    8.5796   10.0208   27.1313 H   0  0  0  0  0  0  0  0  0  0  0  0
    9.9342   10.8751   26.3677 H   0  0  0  0  0  0  0  0  0  0  0  0
    8.5466    7.8005   25.1227 H   0  0  0  0  0  0  0  0  0  0  0  0
    7.3875    8.4668   23.9566 H   0  0  0  0  0  0  0  0  0  0  0  0
    7.0643    8.5883   25.6969 H   0  0  0  0  0  0  0  0  0  0  0  0
   11.6132   13.6237   20.9585 H   0  0  0  0  0  0  0  0  0  0  0  0
   10.3127   14.8320   21.0961 H   0  0  0  0  0  0  0  0  0  0  0  0
   10.3688   12.0187   21.9613 H   0  0  0  0  0  0  0  0  0  0  0  0
  1 12  1  0  0  0  0
  1 13  1  0  0  0  0
  1 14  2  0  0  0  0
  2  3  1  0  0  0  0
  2  5  1  0  0  0  0
  3  7  1  0  0  0  0
  4  5  1  0  0  0  0
  4  6  1  0  0  0  0
  5  8  1  0  0  0  0
  6  7  1  0  0  0  0
  6 13  1  0  0  0  0
  7  8  1  0  0  0  0
  7  9  1  0  0  0  0
  8 10  1  0  0  0  0
  8 11  1  0  0  0  0
 12 15  1  0  0  0  0
  2 16  1  0  0  0  0
  2 17  1  0  0  0  0
  3 18  1  0  0  0  0
  3 19  1  0  0  0  0
  4 20  1  0  0  0  0
  4 21  1  0  0  0  0
  5 22  1  0  0  0  0
  6 23  1  0  0  0  0
  9 24  1  0  0  0  0
  9 25  1  0  0  0  0
  9 26  1  0  0  0  0
 10 27  1  0  0  0  0
 10 28  1  0  0  0  0
 10 29  1  0  0  0  0
 11 30  1  0  0  0  0
 11 31  1  0  0  0  0
 11 32  1  0  0  0  0
 12 33  1  0  0  0  0
 12 34  1  0  0  0  0
 13 35  1  0  0  0  0
M  END
> <Catalog ID>
Z99598982

> <MW>
229.123

> <MW (desalted)>
229.746

> <ClogP>
3.398

> <logS>
-2.79

> <HBD>
1

> <HBA>
1

> <TPSA>
29.1

> <RotBonds>
2

> <ROCS_ShapeQuery>
A71EV2A-x0451_0A_A71EV2A-x0310_0A_A71EV2A-x0416_0A_peptide

> <ROCS_TanimotoCombo>
0.461 

> <ROCS_ShapeTanimoto>
0.273 

> <ROCS_ColorTanimoto>
0.188 

> <ROCS_RefTversky>
0.244 

> <ROCS_RefColorTversky>
0.212 

> <ROCS_RefTverskyCombo>
0.457 

> <ROCS_FitTversky>
1.741 

> <ROCS_FitColorTversky>
0.624 

> <ROCS_FitTverskyCombo>
2.365 

> <ROCS_ColorScore>
-6.494

> <ROCS_Overlap>
1693.026

> <ROCS_Rank>
83                  

$$$$
untitled-dbase-908_59
  -OEChem-11112315393D

 32 33  0     0  0  0  0  0  0999 V2000
   11.4862    7.5484   21.2475 C   0  0  0  0  0  0  0  0  0  0  0  0
   12.0342    8.7340   21.7371 C   0  0  0  0  0  0  0  0  0  0  0  0
   10.1474    7.2446   21.4945 C   0  0  0  0  0  0  0  0  0  0  0  0
   11.2434    9.6158   22.4738 C   0  0  0  0  0  0  0  0  0  0  0  0
    8.3133   12.0106   24.3587 C   0  0  0  0  0  0  0  0  0  0  0  0
    9.3566    8.1264   22.2313 C   0  0  0  0  0  0  0  0  0  0  0  0
    9.9046    9.3120   22.7209 C   0  0  0  0  0  0  0  0  0  0  0  0
    7.6239   10.8494   24.7563 C   0  0  0  0  0  0  0  0  0  0  0  0
    9.2936   11.5547   23.5115 C   0  0  0  0  0  0  0  0  0  0  0  0
   10.8800   13.4409   23.2148 C   0  0  0  0  0  0  0  0  0  0  0  0
    7.9256    7.7715   22.4788 C   0  0  0  0  0  0  0  0  0  0  0  0
    6.4715   10.7586   25.6686 C   0  0  0  0  0  0  0  0  0  0  0  0
   11.9076   13.9159   22.2138 C   0  0  0  0  0  0  0  0  0  0  0  0
    8.1237    9.7393   24.2068 N   0  0  0  0  0  0  0  0  0  0  0  0
    9.1376   10.2010   23.4551 N   0  0  0  0  0  0  0  0  0  0  0  0
   10.2619   12.2405   22.8262 N   0  0  0  0  0  0  0  0  0  0  0  0
   10.6519   14.1002   24.2254 O   0  0  0  0  0  0  0  0  0  0  0  0
   11.0830   14.9650   21.0498 Cl  0  0  0  0  0  0  0  0  0  0  0  0
   12.1018    6.8620   20.6735 H   0  0  0  0  0  0  0  0  0  0  0  0
   13.0767    8.9704   21.5449 H   0  0  0  0  0  0  0  0  0  0  0  0
    9.7304    6.3181   21.1088 H   0  0  0  0  0  0  0  0  0  0  0  0
   11.6860   10.5355   22.8486 H   0  0  0  0  0  0  0  0  0  0  0  0
    8.1250   13.0351   24.6467 H   0  0  0  0  0  0  0  0  0  0  0  0
    7.8331    7.1991   23.4084 H   0  0  0  0  0  0  0  0  0  0  0  0
    7.3035    8.6709   22.5571 H   0  0  0  0  0  0  0  0  0  0  0  0
    7.5195    7.1717   21.6555 H   0  0  0  0  0  0  0  0  0  0  0  0
    5.5180   10.8407   25.1192 H   0  0  0  0  0  0  0  0  0  0  0  0
    6.4535    9.8042   26.2245 H   0  0  0  0  0  0  0  0  0  0  0  0
    6.4827   11.5540   26.4354 H   0  0  0  0  0  0  0  0  0  0  0  0
   12.3831   13.0939   21.6728 H   0  0  0  0  0  0  0  0  0  0  0  0
   12.6799   14.4926   22.7305 H   0  0  0  0  0  0  0  0  0  0  0  0
   10.5689   11.8331   21.9321 H   0  0  0  0  0  0  0  0  0  0  0  0
  1  2  1  0  0  0  0
  1  3  2  0  0  0  0
  2  4  2  0  0  0  0
  3  6  1  0  0  0  0
  4  7  1  0  0  0  0
  5  8  1  0  0  0  0
  5  9  2  0  0  0  0
  6  7  2  0  0  0  0
  6 11  1  0  0  0  0
  7 15  1  0  0  0  0
  8 12  1  0  0  0  0
  8 14  2  0  0  0  0
  9 15  1  0  0  0  0
  9 16  1  0  0  0  0
 10 13  1  0  0  0  0
 10 16  1  0  0  0  0
 10 17  2  0  0  0  0
 13 18  1  0  0  0  0
 14 15  1  0  0  0  0
  1 19  1  0  0  0  0
  2 20  1  0  0  0  0
  3 21  1  0  0  0  0
  4 22  1  0  0  0  0
  5 23  1  0  0  0  0
 11 24  1  0  0  0  0
 11 25  1  0  0  0  0
 11 26  1  0  0  0  0
 12 27  1  0  0  0  0
 12 28  1  0  0  0  0
 12 29  1  0  0  0  0
 13 30  1  0  0  0  0
 13 31  1  0  0  0  0
 16 32  1  0  0  0  0
M  END
> <Catalog ID>
Z199472032

> <MW>
263.083

> <MW (desalted)>
263.723

> <ClogP>
3.003

> <logS>
-3.26

> <HBD>
1

> <HBA>
2

> <TPSA>
46.92

> <RotBonds>
3

> <ROCS_ShapeQuery>
A71EV2A-x0451_0A_A71EV2A-x0310_0A_A71EV2A-x0416_0A_peptide

> <ROCS_TanimotoCombo>
0.461 

> <ROCS_ShapeTanimoto>
0.291 

> <ROCS_ColorTanimoto>
0.170 

> <ROCS_RefTversky>
0.262 

> <ROCS_RefColorTversky>
0.175 

> <ROCS_RefTverskyCombo>
0.438 

> <ROCS_FitTversky>
1.611 

> <ROCS_FitColorTversky>
0.841 

> <ROCS_FitTverskyCombo>
2.452 

> <ROCS_ColorScore>
-5.327

> <ROCS_Overlap>
1818.219

> <ROCS_Rank>
84                  

$$$$
untitled-dbase-65_7
  -OEChem-11112315393D

 25 26  0     0  0  0  0  0  0999 V2000
    6.9494    9.9213   24.9621 C   0  0  0  0  0  0  0  0  0  0  0  0
    6.0962   10.7989   25.6303 C   0  0  0  0  0  0  0  0  0  0  0  0
    7.5484   12.6774   25.0913 C   0  0  0  0  0  0  0  0  0  0  0  0
    8.0917   10.4354   24.3672 C   0  0  0  0  0  0  0  0  0  0  0  0
    8.3917   11.7977   24.4283 C   0  0  0  0  0  0  0  0  0  0  0  0
    6.3943   12.1671   25.6942 C   0  0  0  0  0  0  0  0  0  0  0  0
   10.2032   13.2989   23.6056 C   0  0  0  0  0  0  0  0  0  0  0  0
    9.1297    9.6748   23.6091 C   0  0  0  0  0  0  0  0  0  0  0  0
   10.1153   10.7792   23.2127 C   0  0  0  0  0  0  0  0  0  0  0  0
   11.0120   13.4694   22.3412 C   0  0  0  0  0  0  0  0  0  0  0  0
    9.6000   12.0568   23.7483 N   0  0  0  0  0  0  0  0  0  0  0  0
    5.5120   13.0449   26.3799 N   0  3  0  0  0  0  0  0  0  0  0  0
    4.4807   12.5728   26.9154 O   0  5  0  0  0  0  0  0  0  0  0  0
   10.1292   14.2333   24.4038 O   0  0  0  0  0  0  0  0  0  0  0  0
    5.7893   14.2672   26.4299 O   0  0  0  0  0  0  0  0  0  0  0  0
   10.9031   15.1695   21.9022 Cl  0  0  0  0  0  0  0  0  0  0  0  0
    6.7202    8.8621   24.9118 H   0  0  0  0  0  0  0  0  0  0  0  0
    5.1972   10.4073   26.1007 H   0  0  0  0  0  0  0  0  0  0  0  0
    7.7594   13.7388   25.1531 H   0  0  0  0  0  0  0  0  0  0  0  0
    9.6097    8.9266   24.2469 H   0  0  0  0  0  0  0  0  0  0  0  0
    8.6961    9.1959   22.7259 H   0  0  0  0  0  0  0  0  0  0  0  0
   11.1121   10.5930   23.6278 H   0  0  0  0  0  0  0  0  0  0  0  0
   10.2091   10.8594   22.1239 H   0  0  0  0  0  0  0  0  0  0  0  0
   10.5769   12.8540   21.5632 H   0  0  0  0  0  0  0  0  0  0  0  0
   12.0411   13.2015   22.5468 H   0  0  0  0  0  0  0  0  0  0  0  0
  1  2  2  0  0  0  0
  1  4  1  0  0  0  0
  2  6  1  0  0  0  0
  3  5  1  0  0  0  0
  3  6  2  0  0  0  0
  4  5  2  0  0  0  0
  4  8  1  0  0  0  0
  5 11  1  0  0  0  0
  6 12  1  0  0  0  0
  7 10  1  0  0  0  0
  7 11  1  0  0  0  0
  7 14  2  0  0  0  0
  8  9  1  0  0  0  0
  9 11  1  0  0  0  0
 10 16  1  0  0  0  0
 12 13  1  0  0  0  0
 12 15  2  0  0  0  0
  1 17  1  0  0  0  0
  2 18  1  0  0  0  0
  3 19  1  0  0  0  0
  8 20  1  0  0  0  0
  8 21  1  0  0  0  0
  9 22  1  0  0  0  0
  9 23  1  0  0  0  0
 10 24  1  0  0  0  0
 10 25  1  0  0  0  0
M  CHG  2  12   1  13  -1
M  END
> <Catalog ID>
Z258606528

> <MW>
240.03

> <MW (desalted)>
240.643

> <ClogP>
1.718

> <logS>
-3.185

> <HBD>
0

> <HBA>
3

> <TPSA>
63.45

> <RotBonds>
2

> <ROCS_ShapeQuery>
A71EV2A-x0451_0A_A71EV2A-x0310_0A_A71EV2A-x0416_0A_peptide

> <ROCS_TanimotoCombo>
0.460 

> <ROCS_ShapeTanimoto>
0.304 

> <ROCS_ColorTanimoto>
0.156 

> <ROCS_RefTversky>
0.268 

> <ROCS_RefColorTversky>
0.164 

> <ROCS_RefTverskyCombo>
0.432 

> <ROCS_FitTversky>
1.779 

> <ROCS_FitColorTversky>
0.780 

> <ROCS_FitTverskyCombo>
2.559 

> <ROCS_ColorScore>
-4.966

> <ROCS_Overlap>
1859.642

> <ROCS_Rank>
85                  

$$$$
untitled-dbase-267_47
  -OEChem-11112315393D

 29 30  0     0  0  0  0  0  0999 V2000
    8.8643    9.8016   23.3727 C   0  0  0  0  0  0  0  0  0  0  0  0
    9.9955   10.5165   22.9595 C   0  0  0  0  0  0  0  0  0  0  0  0
    9.3601   12.4339   24.3190 C   0  0  0  0  0  0  0  0  0  0  0  0
    6.7662   10.0624   24.9102 C   0  0  0  0  0  0  0  0  0  0  0  0
    7.9735   10.4147   24.2695 C   0  0  0  0  0  0  0  0  0  0  0  0
   10.2373   11.8101   23.4258 C   0  0  0  0  0  0  0  0  0  0  0  0
    8.2383   11.7039   24.7181 C   0  0  0  0  0  0  0  0  0  0  0  0
   11.4858   15.8854   20.2117 C   0  0  0  0  0  0  0  0  0  0  0  0
   10.5559   15.7103   21.1555 C   0  0  0  0  0  0  0  0  0  0  0  0
   10.8400   14.8624   22.3440 C   0  0  0  0  0  0  0  0  0  0  0  0
    7.0215   13.2474   26.2865 C   0  0  0  0  0  0  0  0  0  0  0  0
   11.4547   12.5427   22.9655 C   0  0  0  0  0  0  0  0  0  0  0  0
    6.2953   11.0319   25.6978 N   0  0  0  0  0  0  0  0  0  0  0  0
    7.2051   12.0110   25.5619 N   0  0  0  0  0  0  0  0  0  0  0  0
   11.1455   13.5566   21.9906 N   0  0  0  0  0  0  0  0  0  0  0  0
   10.7976   15.2972   23.4905 O   0  0  0  0  0  0  0  0  0  0  0  0
    8.6863    8.7958   23.0048 H   0  0  0  0  0  0  0  0  0  0  0  0
   10.6898   10.0479   22.2657 H   0  0  0  0  0  0  0  0  0  0  0  0
    9.5425   13.4386   24.6853 H   0  0  0  0  0  0  0  0  0  0  0  0
    6.2116    9.1377   24.8353 H   0  0  0  0  0  0  0  0  0  0  0  0
   11.2708   16.5045   19.3470 H   0  0  0  0  0  0  0  0  0  0  0  0
   12.4684   15.4300   20.2678 H   0  0  0  0  0  0  0  0  0  0  0  0
    9.5851   16.1846   21.0613 H   0  0  0  0  0  0  0  0  0  0  0  0
    6.4408   13.9252   25.6554 H   0  0  0  0  0  0  0  0  0  0  0  0
    6.4906   13.0463   27.2212 H   0  0  0  0  0  0  0  0  0  0  0  0
    7.9991   13.6804   26.5161 H   0  0  0  0  0  0  0  0  0  0  0  0
   11.9599   13.0352   23.8071 H   0  0  0  0  0  0  0  0  0  0  0  0
   12.1849   11.8606   22.5104 H   0  0  0  0  0  0  0  0  0  0  0  0
   11.1247   13.2815   21.0106 H   0  0  0  0  0  0  0  0  0  0  0  0
  1  2  2  0  0  0  0
  1  5  1  0  0  0  0
  2  6  1  0  0  0  0
  3  6  2  0  0  0  0
  3  7  1  0  0  0  0
  4  5  1  0  0  0  0
  4 13  2  0  0  0  0
  5  7  2  0  0  0  0
  6 12  1  0  0  0  0
  7 14  1  0  0  0  0
  8  9  2  0  0  0  0
  9 10  1  0  0  0  0
 10 15  1  0  0  0  0
 10 16  2  0  0  0  0
 11 14  1  0  0  0  0
 12 15  1  0  0  0  0
 13 14  1  0  0  0  0
  1 17  1  0  0  0  0
  2 18  1  0  0  0  0
  3 19  1  0  0  0  0
  4 20  1  0  0  0  0
  8 21  1  0  0  0  0
  8 22  1  0  0  0  0
  9 23  1  0  0  0  0
 11 24  1  0  0  0  0
 11 25  1  0  0  0  0
 11 26  1  0  0  0  0
 12 27  1  0  0  0  0
 12 28  1  0  0  0  0
 15 29  1  0  0  0  0
M  END
> <Catalog ID>
Z2737383546

> <MW>
215.251

> <MW (desalted)>
215.251

> <ClogP>
0.684

> <logS>
-1.92

> <HBD>
1

> <HBA>
2

> <TPSA>
46.92

> <RotBonds>
3

> <ROCS_ShapeQuery>
A71EV2A-x0451_0A_A71EV2A-x0310_0A_A71EV2A-x0416_0A_peptide

> <ROCS_TanimotoCombo>
0.460 

> <ROCS_ShapeTanimoto>
0.309 

> <ROCS_ColorTanimoto>
0.151 

> <ROCS_RefTversky>
0.272 

> <ROCS_RefColorTversky>
0.163 

> <ROCS_RefTverskyCombo>
0.435 

> <ROCS_FitTversky>
1.799 

> <ROCS_FitColorTversky>
0.678 

> <ROCS_FitTverskyCombo>
2.477 

> <ROCS_ColorScore>
-4.952

> <ROCS_Overlap>
1884.645

> <ROCS_Rank>
86                  

$$$$
untitled-dbase-20_2
  -OEChem-11112315393D

 28 29  0     0  0  0  0  0  0999 V2000
    7.7637   12.9583   24.9648 C   0  0  0  0  0  0  0  0  0  0  0  0
    6.6136   12.7612   25.7366 C   0  0  0  0  0  0  0  0  0  0  0  0
    6.7048   10.4104   25.2715 C   0  0  0  0  0  0  0  0  0  0  0  0
    7.8687   10.5932   24.5020 C   0  0  0  0  0  0  0  0  0  0  0  0
    8.4242   11.8843   24.3418 C   0  0  0  0  0  0  0  0  0  0  0  0
    6.0856   11.4879   25.8935 C   0  0  0  0  0  0  0  0  0  0  0  0
   10.3302   13.2815   23.5089 C   0  0  0  0  0  0  0  0  0  0  0  0
    8.4566    9.3773   23.8344 C   0  0  0  0  0  0  0  0  0  0  0  0
    9.9041    9.6084   23.4496 C   0  0  0  0  0  0  0  0  0  0  0  0
   10.0246   10.9245   22.7022 C   0  0  0  0  0  0  0  0  0  0  0  0
   11.0552   13.6014   22.2202 C   0  0  0  0  0  0  0  0  0  0  0  0
    9.6072   12.0741   23.5265 N   0  0  0  0  0  0  0  0  0  0  0  0
    4.9337   11.2852   26.6978 N   0  3  0  0  0  0  0  0  0  0  0  0
    4.4037   12.2731   27.2619 O   0  5  0  0  0  0  0  0  0  0  0  0
   10.4342   14.0772   24.4448 O   0  0  0  0  0  0  0  0  0  0  0  0
    4.4762   10.1232   26.8236 O   0  0  0  0  0  0  0  0  0  0  0  0
   11.0729   15.3543   22.0799 Cl  0  0  0  0  0  0  0  0  0  0  0  0
    8.1318   13.9768   24.9113 H   0  0  0  0  0  0  0  0  0  0  0  0
    6.1504   13.6179   26.2210 H   0  0  0  0  0  0  0  0  0  0  0  0
    6.2874    9.4107   25.3810 H   0  0  0  0  0  0  0  0  0  0  0  0
    8.3829    8.5301   24.5272 H   0  0  0  0  0  0  0  0  0  0  0  0
    7.8862    9.1230   22.9332 H   0  0  0  0  0  0  0  0  0  0  0  0
   10.5289    9.6250   24.3497 H   0  0  0  0  0  0  0  0  0  0  0  0
   10.2715    8.7882   22.8195 H   0  0  0  0  0  0  0  0  0  0  0  0
   11.0569   11.1079   22.3804 H   0  0  0  0  0  0  0  0  0  0  0  0
    9.4080   10.8521   21.8026 H   0  0  0  0  0  0  0  0  0  0  0  0
   10.5059   13.1648   21.3960 H   0  0  0  0  0  0  0  0  0  0  0  0
   12.0660   13.2203   22.2877 H   0  0  0  0  0  0  0  0  0  0  0  0
  1  2  2  0  0  0  0
  1  5  1  0  0  0  0
  2  6  1  0  0  0  0
  3  4  1  0  0  0  0
  3  6  2  0  0  0  0
  4  5  2  0  0  0  0
  4  8  1  0  0  0  0
  5 12  1  0  0  0  0
  6 13  1  0  0  0  0
  7 11  1  0  0  0  0
  7 12  1  0  0  0  0
  7 15  2  0  0  0  0
  8  9  1  0  0  0  0
  9 10  1  0  0  0  0
 10 12  1  0  0  0  0
 11 17  1  0  0  0  0
 13 14  1  0  0  0  0
 13 16  2  0  0  0  0
  1 18  1  0  0  0  0
  2 19  1  0  0  0  0
  3 20  1  0  0  0  0
  8 21  1  0  0  0  0
  8 22  1  0  0  0  0
  9 23  1  0  0  0  0
  9 24  1  0  0  0  0
 10 25  1  0  0  0  0
 10 26  1  0  0  0  0
 11 27  1  0  0  0  0
 11 28  1  0  0  0  0
M  CHG  2  13   1  14  -1
M  END
> <Catalog ID>
Z165156692

> <MW>
254.046

> <MW (desalted)>
254.67

> <ClogP>
2.127

> <logS>
-3.59

> <HBD>
0

> <HBA>
3

> <TPSA>
63.45

> <RotBonds>
2

> <ROCS_ShapeQuery>
A71EV2A-x0451_0A_A71EV2A-x0310_0A_A71EV2A-x0416_0A_peptide

> <ROCS_TanimotoCombo>
0.460 

> <ROCS_ShapeTanimoto>
0.313 

> <ROCS_ColorTanimoto>
0.148 

> <ROCS_RefTversky>
0.275 

> <ROCS_RefColorTversky>
0.155 

> <ROCS_RefTverskyCombo>
0.431 

> <ROCS_FitTversky>
1.768 

> <ROCS_FitColorTversky>
0.743 

> <ROCS_FitTverskyCombo>
2.511 

> <ROCS_ColorScore>
-4.721

> <ROCS_Overlap>
1909.239

> <ROCS_Rank>
87                  

$$$$
untitled-dbase-727_382
  -OEChem-11112315393D

 30 31  0     0  0  0  0  0  0999 V2000
    8.3285   12.0842   24.6292 C   0  0  0  0  0  0  0  0  0  0  0  0
    7.6841   10.8112   24.6573 C   0  0  0  0  0  0  0  0  0  0  0  0
    9.4530   12.0800   23.8321 C   0  0  0  0  0  0  0  0  0  0  0  0
    8.3573    9.8891   23.8783 C   0  0  0  0  0  0  0  0  0  0  0  0
   10.3548   13.1500   23.5517 C   0  0  0  0  0  0  0  0  0  0  0  0
   12.9924   14.3704   22.7410 C   0  0  0  0  0  0  0  0  0  0  0  0
    6.4534   10.4527   25.4313 C   0  0  0  0  0  0  0  0  0  0  0  0
    7.9338    8.4692   23.6678 C   0  0  0  0  0  0  0  0  0  0  0  0
    5.8327    9.1364   24.9379 C   0  0  0  0  0  0  0  0  0  0  0  0
    6.8992    8.0520   24.7251 C   0  0  0  0  0  0  0  0  0  0  0  0
   13.8340   15.5213   22.2539 C   0  0  0  0  0  0  0  0  0  0  0  0
   11.0044   13.1522   22.3022 N   0  0  0  0  0  0  0  0  0  0  0  0
   11.8729   14.1604   21.9606 N   0  0  0  0  0  0  0  0  0  0  0  0
   10.5602   14.0755   24.3792 O   0  0  0  0  0  0  0  0  0  0  0  0
   13.2946   13.7223   23.7415 O   0  0  0  0  0  0  0  0  0  0  0  0
    9.7329   10.5472   23.1216 S   0  0  0  0  0  0  0  0  0  0  0  0
   13.0318   16.2223   20.8399 Cl  0  0  0  0  0  0  0  0  0  0  0  0
    7.9806   12.9579   25.1667 H   0  0  0  0  0  0  0  0  0  0  0  0
    6.6860   10.3700   26.4992 H   0  0  0  0  0  0  0  0  0  0  0  0
    5.7229   11.2632   25.3172 H   0  0  0  0  0  0  0  0  0  0  0  0
    7.5088    8.3279   22.6677 H   0  0  0  0  0  0  0  0  0  0  0  0
    8.8149    7.8206   23.7486 H   0  0  0  0  0  0  0  0  0  0  0  0
    5.0994    8.7776   25.6722 H   0  0  0  0  0  0  0  0  0  0  0  0
    5.2887    9.3160   24.0035 H   0  0  0  0  0  0  0  0  0  0  0  0
    6.4067    7.1232   24.4098 H   0  0  0  0  0  0  0  0  0  0  0  0
    7.4097    7.8378   25.6709 H   0  0  0  0  0  0  0  0  0  0  0  0
   13.9043   16.2789   23.0393 H   0  0  0  0  0  0  0  0  0  0  0  0
   14.8413   15.2098   21.9661 H   0  0  0  0  0  0  0  0  0  0  0  0
   10.8288   12.3995   21.6457 H   0  0  0  0  0  0  0  0  0  0  0  0
   11.6946   14.7412   21.1480 H   0  0  0  0  0  0  0  0  0  0  0  0
  1  2  1  0  0  0  0
  1  3  2  0  0  0  0
  2  4  2  0  0  0  0
  2  7  1  0  0  0  0
  3  5  1  0  0  0  0
  3 16  1  0  0  0  0
  4  8  1  0  0  0  0
  4 16  1  0  0  0  0
  5 12  1  0  0  0  0
  5 14  2  0  0  0  0
  6 11  1  0  0  0  0
  6 13  1  0  0  0  0
  6 15  2  0  0  0  0
  7  9  1  0  0  0  0
  8 10  1  0  0  0  0
  9 10  1  0  0  0  0
 11 17  1  0  0  0  0
 12 13  1  0  0  0  0
  1 18  1  0  0  0  0
  7 19  1  0  0  0  0
  7 20  1  0  0  0  0
  8 21  1  0  0  0  0
  8 22  1  0  0  0  0
  9 23  1  0  0  0  0
  9 24  1  0  0  0  0
 10 25  1  0  0  0  0
 10 26  1  0  0  0  0
 11 27  1  0  0  0  0
 11 28  1  0  0  0  0
 12 29  1  0  0  0  0
 13 30  1  0  0  0  0
M  END
> <Catalog ID>
Z57055796

> <MW>
272.039

> <MW (desalted)>
272.751

> <ClogP>
2.334

> <logS>
-4.02

> <HBD>
2

> <HBA>
2

> <TPSA>
58.2

> <RotBonds>
3

> <ROCS_ShapeQuery>
A71EV2A-x0451_0A_A71EV2A-x0310_0A_A71EV2A-x0416_0A_peptide

> <ROCS_TanimotoCombo>
0.460 

> <ROCS_ShapeTanimoto>
0.286 

> <ROCS_ColorTanimoto>
0.174 

> <ROCS_RefTversky>
0.256 

> <ROCS_RefColorTversky>
0.185 

> <ROCS_RefTverskyCombo>
0.441 

> <ROCS_FitTversky>
1.697 

> <ROCS_FitColorTversky>
0.742 

> <ROCS_FitTverskyCombo>
2.439 

> <ROCS_ColorScore>
-5.625

> <ROCS_Overlap>
1775.036

> <ROCS_Rank>
88                  

$$$$
untitled-dbase-674_10
  -OEChem-11112315393D

 34 35  0     0  0  0  0  0  0999 V2000
    7.2928   10.3109   24.8848 C   0  0  0  0  0  0  0  0  0  0  0  0
    8.2292    9.5580   24.1763 C   0  0  0  0  0  0  0  0  0  0  0  0
    8.4183   12.3411   24.2148 C   0  0  0  0  0  0  0  0  0  0  0  0
    7.3873   11.7025   24.9040 C   0  0  0  0  0  0  0  0  0  0  0  0
    9.2602   10.1966   23.4871 C   0  0  0  0  0  0  0  0  0  0  0  0
    9.3547   11.5882   23.5064 C   0  0  0  0  0  0  0  0  0  0  0  0
   10.9483   13.4641   23.1838 C   0  0  0  0  0  0  0  0  0  0  0  0
   11.1343    7.6843   21.4652 C   0  0  0  0  0  0  0  0  0  0  0  0
   12.2305    8.6641   21.8316 C   0  0  0  0  0  0  0  0  0  0  0  0
    9.8661    8.5034   21.6767 C   0  0  0  0  0  0  0  0  0  0  0  0
   11.6399    9.3966   23.0309 C   0  0  0  0  0  0  0  0  0  0  0  0
   12.0304   13.8833   22.2160 C   0  0  0  0  0  0  0  0  0  0  0  0
    6.3859   12.5071   25.6615 C   0  0  0  0  0  0  0  0  0  0  0  0
   10.1939    9.4169   22.7783 N   0  0  0  0  0  0  0  0  0  0  0  0
   10.3785   12.2500   22.8230 N   0  0  0  0  0  0  0  0  0  0  0  0
   10.6592   14.1836   24.1361 O   0  0  0  0  0  0  0  0  0  0  0  0
    5.4355   11.7507   26.2865 F   0  0  0  0  0  0  0  0  0  0  0  0
    6.9353   13.2751   26.6485 F   0  0  0  0  0  0  0  0  0  0  0  0
    5.6970   13.3742   24.8637 F   0  0  0  0  0  0  0  0  0  0  0  0
   12.0750   15.6533   22.1892 Cl  0  0  0  0  0  0  0  0  0  0  0  0
    6.4933    9.8046   25.4191 H   0  0  0  0  0  0  0  0  0  0  0  0
    8.1458    8.4741   24.1688 H   0  0  0  0  0  0  0  0  0  0  0  0
    8.4888   13.4267   24.2320 H   0  0  0  0  0  0  0  0  0  0  0  0
   11.2272    7.3185   20.4389 H   0  0  0  0  0  0  0  0  0  0  0  0
   11.1488    6.8235   22.1441 H   0  0  0  0  0  0  0  0  0  0  0  0
   13.1730    8.1643   22.0721 H   0  0  0  0  0  0  0  0  0  0  0  0
   12.4084    9.3645   21.0072 H   0  0  0  0  0  0  0  0  0  0  0  0
    9.6208    9.0830   20.7797 H   0  0  0  0  0  0  0  0  0  0  0  0
    9.0175    7.8569   21.9243 H   0  0  0  0  0  0  0  0  0  0  0  0
   11.8423    8.8515   23.9599 H   0  0  0  0  0  0  0  0  0  0  0  0
   12.0518   10.4076   23.1164 H   0  0  0  0  0  0  0  0  0  0  0  0
   11.8544   13.5195   21.2005 H   0  0  0  0  0  0  0  0  0  0  0  0
   12.9963   13.5065   22.5641 H   0  0  0  0  0  0  0  0  0  0  0  0
   10.7395   11.8013   21.9845 H   0  0  0  0  0  0  0  0  0  0  0  0
  1  2  2  0  0  0  0
  1  4  1  0  0  0  0
  2  5  1  0  0  0  0
  3  4  2  0  0  0  0
  3  6  1  0  0  0  0
  4 13  1  0  0  0  0
  5  6  2  0  0  0  0
  5 14  1  0  0  0  0
  6 15  1  0  0  0  0
  7 12  1  0  0  0  0
  7 15  1  0  0  0  0
  7 16  2  0  0  0  0
  8  9  1  0  0  0  0
  8 10  1  0  0  0  0
  9 11  1  0  0  0  0
 10 14  1  0  0  0  0
 11 14  1  0  0  0  0
 12 20  1  0  0  0  0
 13 17  1  0  0  0  0
 13 18  1  0  0  0  0
 13 19  1  0  0  0  0
  1 21  1  0  0  0  0
  2 22  1  0  0  0  0
  3 23  1  0  0  0  0
  8 24  1  0  0  0  0
  8 25  1  0  0  0  0
  9 26  1  0  0  0  0
  9 27  1  0  0  0  0
 10 28  1  0  0  0  0
 10 29  1  0  0  0  0
 11 30  1  0  0  0  0
 11 31  1  0  0  0  0
 12 32  1  0  0  0  0
 12 33  1  0  0  0  0
 15 34  1  0  0  0  0
M  END
> <Catalog ID>
Z147651594

> <MW>
306.075

> <MW (desalted)>
306.711

> <ClogP>
3.476

> <logS>
-3.77

> <HBD>
1

> <HBA>
2

> <TPSA>
32.34

> <RotBonds>
4

> <ROCS_ShapeQuery>
A71EV2A-x0451_0A_A71EV2A-x0310_0A_A71EV2A-x0416_0A_peptide

> <ROCS_TanimotoCombo>
0.460 

> <ROCS_ShapeTanimoto>
0.325 

> <ROCS_ColorTanimoto>
0.135 

> <ROCS_RefTversky>
0.288 

> <ROCS_RefColorTversky>
0.140 

> <ROCS_RefTverskyCombo>
0.428 

> <ROCS_FitTversky>
1.658 

> <ROCS_FitColorTversky>
0.786 

> <ROCS_FitTverskyCombo>
2.445 

> <ROCS_ColorScore>
-4.236

> <ROCS_Overlap>
1997.812

> <ROCS_Rank>
89                  

$$$$
untitled-dbase-81_13
  -OEChem-11112315393D

 26 27  0     0  0  0  0  0  0999 V2000
    9.1782    9.9019   23.7961 C   0  0  0  0  0  0  0  0  0  0  0  0
   10.0284   10.7489   23.0794 C   0  0  0  0  0  0  0  0  0  0  0  0
    8.8218   12.7262   23.8558 C   0  0  0  0  0  0  0  0  0  0  0  0
    8.1686   10.4951   24.5256 C   0  0  0  0  0  0  0  0  0  0  0  0
    7.9948   11.8711   24.5547 C   0  0  0  0  0  0  0  0  0  0  0  0
    9.8520   12.1474   23.1092 C   0  0  0  0  0  0  0  0  0  0  0  0
    7.1359    9.8902   25.3657 C   0  0  0  0  0  0  0  0  0  0  0  0
    6.8482   12.1655   25.4139 C   0  0  0  0  0  0  0  0  0  0  0  0
   11.0871   14.2635   22.7102 C   0  0  0  0  0  0  0  0  0  0  0  0
    5.2499   10.7797   26.7350 C   0  0  0  0  0  0  0  0  0  0  0  0
   12.0429   14.8486   21.6966 C   0  0  0  0  0  0  0  0  0  0  0  0
    6.3899   10.9423   25.8547 N   0  0  0  0  0  0  0  0  0  0  0  0
   10.7191   12.9645   22.3813 N   0  0  0  0  0  0  0  0  0  0  0  0
    7.0191    8.6930   25.5505 O   0  0  0  0  0  0  0  0  0  0  0  0
    6.4418   13.2892   25.6447 O   0  0  0  0  0  0  0  0  0  0  0  0
   10.7165   14.9355   23.6690 O   0  0  0  0  0  0  0  0  0  0  0  0
   11.6814   14.1139   20.1265 Cl  0  0  0  0  0  0  0  0  0  0  0  0
    9.3147    8.8272   23.7741 H   0  0  0  0  0  0  0  0  0  0  0  0
   10.8351   10.3135   22.4933 H   0  0  0  0  0  0  0  0  0  0  0  0
    8.6773   13.8009   23.8858 H   0  0  0  0  0  0  0  0  0  0  0  0
    5.5882   10.8004   27.7815 H   0  0  0  0  0  0  0  0  0  0  0  0
    4.5355   11.5985   26.5645 H   0  0  0  0  0  0  0  0  0  0  0  0
    4.7605    9.8168   26.5269 H   0  0  0  0  0  0  0  0  0  0  0  0
   13.0904   14.6574   21.9428 H   0  0  0  0  0  0  0  0  0  0  0  0
   11.8868   15.9291   21.6302 H   0  0  0  0  0  0  0  0  0  0  0  0
   11.1186   12.5725   21.5312 H   0  0  0  0  0  0  0  0  0  0  0  0
  1  2  2  0  0  0  0
  1  4  1  0  0  0  0
  2  6  1  0  0  0  0
  3  5  1  0  0  0  0
  3  6  2  0  0  0  0
  4  5  2  0  0  0  0
  4  7  1  0  0  0  0
  5  8  1  0  0  0  0
  6 13  1  0  0  0  0
  7 12  1  0  0  0  0
  7 14  2  0  0  0  0
  8 12  1  0  0  0  0
  8 15  2  0  0  0  0
  9 11  1  0  0  0  0
  9 13  1  0  0  0  0
  9 16  2  0  0  0  0
 10 12  1  0  0  0  0
 11 17  1  0  0  0  0
  1 18  1  0  0  0  0
  2 19  1  0  0  0  0
  3 20  1  0  0  0  0
 10 21  1  0  0  0  0
 10 22  1  0  0  0  0
 10 23  1  0  0  0  0
 11 24  1  0  0  0  0
 11 25  1  0  0  0  0
 13 26  1  0  0  0  0
M  END
> <Catalog ID>
Z147647196

> <MW>
252.03

> <MW (desalted)>
252.654

> <ClogP>
1.615

> <logS>
-3.13

> <HBD>
1

> <HBA>
3

> <TPSA>
66.48

> <RotBonds>
2

> <ROCS_ShapeQuery>
A71EV2A-x0451_0A_A71EV2A-x0310_0A_A71EV2A-x0416_0A_peptide

> <ROCS_TanimotoCombo>
0.459 

> <ROCS_ShapeTanimoto>
0.316 

> <ROCS_ColorTanimoto>
0.144 

> <ROCS_RefTversky>
0.278 

> <ROCS_RefColorTversky>
0.156 

> <ROCS_RefTverskyCombo>
0.434 

> <ROCS_FitTversky>
1.760 

> <ROCS_FitColorTversky>
0.649 

> <ROCS_FitTverskyCombo>
2.409 

> <ROCS_ColorScore>
-4.743

> <ROCS_Overlap>
1926.538

> <ROCS_Rank>
90                  

$$$$
untitled-dbase-10_34
  -OEChem-11112315393D

 35 36  0     0  0  0  0  0  0999 V2000
    7.4059   10.1936   24.8350 C   0  0  0  0  0  0  0  0  0  0  0  0
    8.3117    9.5116   24.0226 C   0  0  0  0  0  0  0  0  0  0  0  0
    8.4663   12.2869   24.2602 C   0  0  0  0  0  0  0  0  0  0  0  0
    7.4831   11.5813   24.9538 C   0  0  0  0  0  0  0  0  0  0  0  0
    9.2948   10.2173   23.3290 C   0  0  0  0  0  0  0  0  0  0  0  0
    9.3722   11.6050   23.4478 C   0  0  0  0  0  0  0  0  0  0  0  0
   10.9211   13.5267   23.1822 C   0  0  0  0  0  0  0  0  0  0  0  0
   11.6341    9.5405   22.7447 C   0  0  0  0  0  0  0  0  0  0  0  0
    9.7340    8.3832   21.7138 C   0  0  0  0  0  0  0  0  0  0  0  0
   12.0484    8.2210   23.3870 C   0  0  0  0  0  0  0  0  0  0  0  0
   10.2207    7.0965   22.3820 C   0  0  0  0  0  0  0  0  0  0  0  0
   11.9430   14.0352   22.1919 C   0  0  0  0  0  0  0  0  0  0  0  0
    6.5144   12.3100   25.8225 C   0  0  0  0  0  0  0  0  0  0  0  0
   10.1862    9.5181   22.5253 N   0  0  0  0  0  0  0  0  0  0  0  0
   10.3483   12.3333   22.7622 N   0  0  0  0  0  0  0  0  0  0  0  0
   10.6754   14.1682   24.2002 O   0  0  0  0  0  0  0  0  0  0  0  0
   11.6415    7.1254   22.5582 O   0  0  0  0  0  0  0  0  0  0  0  0
    5.6097   11.4931   26.4389 F   0  0  0  0  0  0  0  0  0  0  0  0
    7.1071   13.0117   26.8335 F   0  0  0  0  0  0  0  0  0  0  0  0
    5.7715   13.2222   25.1304 F   0  0  0  0  0  0  0  0  0  0  0  0
   11.4125   15.6321   21.6405 Cl  0  0  0  0  0  0  0  0  0  0  0  0
    6.6435    9.6353   25.3719 H   0  0  0  0  0  0  0  0  0  0  0  0
    8.2420    8.4300   23.9380 H   0  0  0  0  0  0  0  0  0  0  0  0
    8.5236   13.3692   24.3553 H   0  0  0  0  0  0  0  0  0  0  0  0
   11.9182   10.3688   23.3971 H   0  0  0  0  0  0  0  0  0  0  0  0
   12.1430    9.6552   21.7840 H   0  0  0  0  0  0  0  0  0  0  0  0
   10.1637    8.4601   20.7142 H   0  0  0  0  0  0  0  0  0  0  0  0
    8.6478    8.3650   21.6370 H   0  0  0  0  0  0  0  0  0  0  0  0
   13.1356    8.1790   23.4803 H   0  0  0  0  0  0  0  0  0  0  0  0
   11.6212    8.1067   24.3873 H   0  0  0  0  0  0  0  0  0  0  0  0
    9.7304    6.9363   23.3494 H   0  0  0  0  0  0  0  0  0  0  0  0
    9.9829    6.2384   21.7460 H   0  0  0  0  0  0  0  0  0  0  0  0
   12.0532   13.3807   21.3236 H   0  0  0  0  0  0  0  0  0  0  0  0
   12.9133   14.1320   22.6872 H   0  0  0  0  0  0  0  0  0  0  0  0
   10.6685   11.9545   21.8741 H   0  0  0  0  0  0  0  0  0  0  0  0
  1  2  2  0  0  0  0
  1  4  1  0  0  0  0
  2  5  1  0  0  0  0
  3  4  2  0  0  0  0
  3  6  1  0  0  0  0
  4 13  1  0  0  0  0
  5  6  2  0  0  0  0
  5 14  1  0  0  0  0
  6 15  1  0  0  0  0
  7 12  1  0  0  0  0
  7 15  1  0  0  0  0
  7 16  2  0  0  0  0
  8 10  1  0  0  0  0
  8 14  1  0  0  0  0
  9 11  1  0  0  0  0
  9 14  1  0  0  0  0
 10 17  1  0  0  0  0
 11 17  1  0  0  0  0
 12 21  1  0  0  0  0
 13 18  1  0  0  0  0
 13 19  1  0  0  0  0
 13 20  1  0  0  0  0
  1 22  1  0  0  0  0
  2 23  1  0  0  0  0
  3 24  1  0  0  0  0
  8 25  1  0  0  0  0
  8 26  1  0  0  0  0
  9 27  1  0  0  0  0
  9 28  1  0  0  0  0
 10 29  1  0  0  0  0
 10 30  1  0  0  0  0
 11 31  1  0  0  0  0
 11 32  1  0  0  0  0
 12 33  1  0  0  0  0
 12 34  1  0  0  0  0
 15 35  1  0  0  0  0
M  END
> <Catalog ID>
Z56869463

> <MW>
322.07

> <MW (desalted)>
322.711

> <ClogP>
2.653

> <logS>
-3.6

> <HBD>
1

> <HBA>
3

> <TPSA>
41.57

> <RotBonds>
4

> <ROCS_ShapeQuery>
A71EV2A-x0451_0A_A71EV2A-x0310_0A_A71EV2A-x0416_0A_peptide

> <ROCS_TanimotoCombo>
0.459 

> <ROCS_ShapeTanimoto>
0.328 

> <ROCS_ColorTanimoto>
0.131 

> <ROCS_RefTversky>
0.291 

> <ROCS_RefColorTversky>
0.140 

> <ROCS_RefTverskyCombo>
0.432 

> <ROCS_FitTversky>
1.619 

> <ROCS_FitColorTversky>
0.673 

> <ROCS_FitTverskyCombo>
2.292 

> <ROCS_ColorScore>
-4.262

> <ROCS_Overlap>
2022.070

> <ROCS_Rank>
91                  

$$$$
untitled-dbase-956_59
  -OEChem-11112315393D

 35 36  0     0  0  0  0  0  0999 V2000
   11.4904    7.5465   21.2557 C   0  0  0  0  0  0  0  0  0  0  0  0
   10.1512    7.2434   21.5005 C   0  0  0  0  0  0  0  0  0  0  0  0
   11.2463    9.6146   22.4805 C   0  0  0  0  0  0  0  0  0  0  0  0
    8.3120   12.0118   24.3570 C   0  0  0  0  0  0  0  0  0  0  0  0
   12.0381    8.7321   21.7457 C   0  0  0  0  0  0  0  0  0  0  0  0
    9.3594    8.1259   22.2353 C   0  0  0  0  0  0  0  0  0  0  0  0
    9.9069    9.3115   22.7253 C   0  0  0  0  0  0  0  0  0  0  0  0
    7.6218   10.8510   24.7544 C   0  0  0  0  0  0  0  0  0  0  0  0
    9.2941   11.5551   23.5124 C   0  0  0  0  0  0  0  0  0  0  0  0
   10.8811   13.4411   23.2170 C   0  0  0  0  0  0  0  0  0  0  0  0
   13.4701    9.0556   21.4836 C   0  0  0  0  0  0  0  0  0  0  0  0
    7.9280    7.7708   22.4797 C   0  0  0  0  0  0  0  0  0  0  0  0
    6.4674   10.7612   25.6643 C   0  0  0  0  0  0  0  0  0  0  0  0
   11.9108   13.9150   22.2177 C   0  0  0  0  0  0  0  0  0  0  0  0
    8.1228    9.7404   24.2070 N   0  0  0  0  0  0  0  0  0  0  0  0
    9.1383   10.2013   23.4571 N   0  0  0  0  0  0  0  0  0  0  0  0
   10.2638   12.2402   22.8284 N   0  0  0  0  0  0  0  0  0  0  0  0
   10.6507   14.1014   24.2265 O   0  0  0  0  0  0  0  0  0  0  0  0
   11.0886   14.9629   21.0509 Cl  0  0  0  0  0  0  0  0  0  0  0  0
   12.0998    6.8530   20.6822 H   0  0  0  0  0  0  0  0  0  0  0  0
    9.7342    6.3169   21.1143 H   0  0  0  0  0  0  0  0  0  0  0  0
   11.6788   10.5381   22.8603 H   0  0  0  0  0  0  0  0  0  0  0  0
    8.1230   13.0366   24.6435 H   0  0  0  0  0  0  0  0  0  0  0  0
   13.5692    9.6208   20.5488 H   0  0  0  0  0  0  0  0  0  0  0  0
   13.8993    9.6530   22.2984 H   0  0  0  0  0  0  0  0  0  0  0  0
   14.0766    8.1438   21.4049 H   0  0  0  0  0  0  0  0  0  0  0  0
    7.8334    7.1986   23.4093 H   0  0  0  0  0  0  0  0  0  0  0  0
    7.3055    8.6701   22.5564 H   0  0  0  0  0  0  0  0  0  0  0  0
    7.5238    7.1707   21.6556 H   0  0  0  0  0  0  0  0  0  0  0  0
    5.5151   10.8426   25.1127 H   0  0  0  0  0  0  0  0  0  0  0  0
    6.4483    9.8072   26.2211 H   0  0  0  0  0  0  0  0  0  0  0  0
    6.4770   11.5573   26.4302 H   0  0  0  0  0  0  0  0  0  0  0  0
   12.3875   13.0925   21.6786 H   0  0  0  0  0  0  0  0  0  0  0  0
   12.6819   14.4924   22.7355 H   0  0  0  0  0  0  0  0  0  0  0  0
   10.5728   11.8318   21.9354 H   0  0  0  0  0  0  0  0  0  0  0  0
  1  2  2  0  0  0  0
  1  5  1  0  0  0  0
  2  6  1  0  0  0  0
  3  5  2  0  0  0  0
  3  7  1  0  0  0  0
  4  8  1  0  0  0  0
  4  9  2  0  0  0  0
  5 11  1  0  0  0  0
  6  7  2  0  0  0  0
  6 12  1  0  0  0  0
  7 16  1  0  0  0  0
  8 13  1  0  0  0  0
  8 15  2  0  0  0  0
  9 16  1  0  0  0  0
  9 17  1  0  0  0  0
 10 14  1  0  0  0  0
 10 17  1  0  0  0  0
 10 18  2  0  0  0  0
 14 19  1  0  0  0  0
 15 16  1  0  0  0  0
  1 20  1  0  0  0  0
  2 21  1  0  0  0  0
  3 22  1  0  0  0  0
  4 23  1  0  0  0  0
 11 24  1  0  0  0  0
 11 25  1  0  0  0  0
 11 26  1  0  0  0  0
 12 27  1  0  0  0  0
 12 28  1  0  0  0  0
 12 29  1  0  0  0  0
 13 30  1  0  0  0  0
 13 31  1  0  0  0  0
 13 32  1  0  0  0  0
 14 33  1  0  0  0  0
 14 34  1  0  0  0  0
 17 35  1  0  0  0  0
M  END
> <Catalog ID>
Z199472028

> <MW>
277.098

> <MW (desalted)>
277.749

> <ClogP>
3.502

> <logS>
-3.76

> <HBD>
1

> <HBA>
2

> <TPSA>
46.92

> <RotBonds>
3

> <ROCS_ShapeQuery>
A71EV2A-x0451_0A_A71EV2A-x0310_0A_A71EV2A-x0416_0A_peptide

> <ROCS_TanimotoCombo>
0.459 

> <ROCS_ShapeTanimoto>
0.289 

> <ROCS_ColorTanimoto>
0.170 

> <ROCS_RefTversky>
0.262 

> <ROCS_RefColorTversky>
0.175 

> <ROCS_RefTverskyCombo>
0.438 

> <ROCS_FitTversky>
1.557 

> <ROCS_FitColorTversky>
0.841 

> <ROCS_FitTverskyCombo>
2.397 

> <ROCS_ColorScore>
-5.326

> <ROCS_Overlap>
1819.375

> <ROCS_Rank>
92                  

$$$$
untitled-dbase-731_293
  -OEChem-11112315393D

 41 43  0     0  0  0  0  0  0999 V2000
    8.0929   12.6524   24.4231 C   0  0  0  0  0  0  0  0  0  0  0  0
    6.8951   12.3177   25.0654 C   0  0  0  0  0  0  0  0  0  0  0  0
    7.4064    9.9907   24.8067 C   0  0  0  0  0  0  0  0  0  0  0  0
    8.6032   10.3166   24.1433 C   0  0  0  0  0  0  0  0  0  0  0  0
    8.9895   11.6667   23.9739 C   0  0  0  0  0  0  0  0  0  0  0  0
    6.5569   10.9880   25.2685 C   0  0  0  0  0  0  0  0  0  0  0  0
   10.8362   13.2780   23.4268 C   0  0  0  0  0  0  0  0  0  0  0  0
    9.4656    9.1870   23.6509 C   0  0  0  0  0  0  0  0  0  0  0  0
   10.2088    9.6404   22.4132 C   0  0  0  0  0  0  0  0  0  0  0  0
    5.3654   12.9752   29.2282 C   0  0  0  0  0  0  0  0  0  0  0  0
    3.9882   12.3471   29.3154 C   0  0  0  0  0  0  0  0  0  0  0  0
   11.0209   10.8803   22.7407 C   0  0  0  0  0  0  0  0  0  0  0  0
    6.0282   12.1574   28.1311 C   0  0  0  0  0  0  0  0  0  0  0  0
    3.6249   12.0955   27.8581 C   0  0  0  0  0  0  0  0  0  0  0  0
   11.8563   13.6188   22.3607 C   0  0  0  0  0  0  0  0  0  0  0  0
   10.2555   11.9914   23.3404 N   0  0  0  0  0  0  0  0  0  0  0  0
    4.9294   11.9024   27.1594 N   0  0  0  0  0  0  0  0  0  0  0  0
   10.6086   14.1296   24.2881 O   0  0  0  0  0  0  0  0  0  0  0  0
    3.9874   10.5894   25.1622 O   0  0  0  0  0  0  0  0  0  0  0  0
    5.3358    9.3794   26.9131 O   0  0  0  0  0  0  0  0  0  0  0  0
    5.0892   10.5728   26.1149 S   0  0  0  0  0  0  0  0  0  0  0  0
   13.4241   13.1445   23.0009 Cl  0  0  0  0  0  0  0  0  0  0  0  0
    8.3021   13.7130   24.3307 H   0  0  0  0  0  0  0  0  0  0  0  0
    6.2424   13.1136   25.4156 H   0  0  0  0  0  0  0  0  0  0  0  0
    7.1451    8.9464   24.9620 H   0  0  0  0  0  0  0  0  0  0  0  0
   10.1698    8.9178   24.4350 H   0  0  0  0  0  0  0  0  0  0  0  0
    8.8574    8.3203   23.4042 H   0  0  0  0  0  0  0  0  0  0  0  0
   10.8670    8.8390   22.0601 H   0  0  0  0  0  0  0  0  0  0  0  0
    9.5063    9.8613   21.5993 H   0  0  0  0  0  0  0  0  0  0  0  0
    5.2808   14.0207   28.9189 H   0  0  0  0  0  0  0  0  0  0  0  0
    5.9128   12.9339   30.1699 H   0  0  0  0  0  0  0  0  0  0  0  0
    4.0403   11.3957   29.8646 H   0  0  0  0  0  0  0  0  0  0  0  0
    3.2584   12.9904   29.8223 H   0  0  0  0  0  0  0  0  0  0  0  0
   11.8490   10.6416   23.4397 H   0  0  0  0  0  0  0  0  0  0  0  0
   11.5059   11.2135   21.8046 H   0  0  0  0  0  0  0  0  0  0  0  0
    6.8629   12.6968   27.6842 H   0  0  0  0  0  0  0  0  0  0  0  0
    6.3799   11.1972   28.5121 H   0  0  0  0  0  0  0  0  0  0  0  0
    2.9916   11.2066   27.7462 H   0  0  0  0  0  0  0  0  0  0  0  0
    3.0998   12.9656   27.4386 H   0  0  0  0  0  0  0  0  0  0  0  0
   11.8304   14.6865   22.1852 H   0  0  0  0  0  0  0  0  0  0  0  0
   11.6278   13.0503   21.4685 H   0  0  0  0  0  0  0  0  0  0  0  0
  1  2  2  0  0  0  0
  1  5  1  0  0  0  0
  2  6  1  0  0  0  0
  3  4  1  0  0  0  0
  3  6  2  0  0  0  0
  4  5  2  0  0  0  0
  4  8  1  0  0  0  0
  5 16  1  0  0  0  0
  6 21  1  0  0  0  0
  7 15  1  0  0  0  0
  7 16  1  0  0  0  0
  7 18  2  0  0  0  0
  8  9  1  0  0  0  0
  9 12  1  0  0  0  0
 10 11  1  0  0  0  0
 10 13  1  0  0  0  0
 11 14  1  0  0  0  0
 12 16  1  0  0  0  0
 13 17  1  0  0  0  0
 14 17  1  0  0  0  0
 15 22  1  0  0  0  0
 17 21  1  0  0  0  0
 19 21  2  0  0  0  0
 20 21  2  0  0  0  0
  1 23  1  0  0  0  0
  2 24  1  0  0  0  0
  3 25  1  0  0  0  0
  8 26  1  0  0  0  0
  8 27  1  0  0  0  0
  9 28  1  0  0  0  0
  9 29  1  0  0  0  0
 10 30  1  0  0  0  0
 10 31  1  0  0  0  0
 11 32  1  0  0  0  0
 11 33  1  0  0  0  0
 12 34  1  0  0  0  0
 12 35  1  0  0  0  0
 13 36  1  0  0  0  0
 13 37  1  0  0  0  0
 14 38  1  0  0  0  0
 14 39  1  0  0  0  0
 15 40  1  0  0  0  0
 15 41  1  0  0  0  0
M  END
> <Catalog ID>
Z165156684

> <MW>
342.08

> <MW (desalted)>
342.841

> <ClogP>
2.213

> <logS>
-3.48

> <HBD>
0

> <HBA>
3

> <TPSA>
57.69

> <RotBonds>
2

> <ROCS_ShapeQuery>
A71EV2A-x0451_0A_A71EV2A-x0310_0A_A71EV2A-x0416_0A_peptide

> <ROCS_TanimotoCombo>
0.459 

> <ROCS_ShapeTanimoto>
0.328 

> <ROCS_ColorTanimoto>
0.131 

> <ROCS_RefTversky>
0.292 

> <ROCS_RefColorTversky>
0.143 

> <ROCS_RefTverskyCombo>
0.436 

> <ROCS_FitTversky>
1.600 

> <ROCS_FitColorTversky>
0.598 

> <ROCS_FitTverskyCombo>
2.198 

> <ROCS_ColorScore>
-4.359

> <ROCS_Overlap>
2029.804

> <ROCS_Rank>
93                  

$$$$
untitled-dbase-791_2
  -OEChem-11112315393D

 38 40  0     0  0  0  0  0  0999 V2000
    8.1329   13.5046   24.6350 C   0  0  0  0  0  0  0  0  0  0  0  0
   11.6223    7.6271   21.3089 C   0  0  0  0  0  0  0  0  0  0  0  0
   10.2539    7.6814   21.0443 C   0  0  0  0  0  0  0  0  0  0  0  0
   12.1756    8.4473   22.2923 C   0  0  0  0  0  0  0  0  0  0  0  0
    9.4387    8.5559   21.7628 C   0  0  0  0  0  0  0  0  0  0  0  0
   11.3604    9.3219   23.0108 C   0  0  0  0  0  0  0  0  0  0  0  0
    8.3272   12.1256   24.3311 C   0  0  0  0  0  0  0  0  0  0  0  0
    7.5620   11.0285   24.7957 C   0  0  0  0  0  0  0  0  0  0  0  0
    9.9920    9.3762   22.7461 C   0  0  0  0  0  0  0  0  0  0  0  0
    8.1127    9.8878   24.2464 C   0  0  0  0  0  0  0  0  0  0  0  0
    9.3142   11.6178   23.5114 C   0  0  0  0  0  0  0  0  0  0  0  0
   10.9219   13.4819   23.1900 C   0  0  0  0  0  0  0  0  0  0  0  0
    6.3922   10.9885   25.7156 C   0  0  0  0  0  0  0  0  0  0  0  0
    7.6255    8.4965   24.4351 C   0  0  0  0  0  0  0  0  0  0  0  0
    5.6693    9.6293   25.6345 C   0  0  0  0  0  0  0  0  0  0  0  0
    6.6552    8.4446   25.6307 C   0  0  0  0  0  0  0  0  0  0  0  0
   11.9693   13.9212   22.1932 C   0  0  0  0  0  0  0  0  0  0  0  0
    7.9746   14.6273   24.8824 N   0  0  0  0  0  0  0  0  0  0  0  0
    9.1738   10.2528   23.4663 N   0  0  0  0  0  0  0  0  0  0  0  0
   10.3025   12.2790   22.8214 N   0  0  0  0  0  0  0  0  0  0  0  0
   10.6839   14.1698   24.1790 O   0  0  0  0  0  0  0  0  0  0  0  0
   11.1724   14.9459   20.9888 Cl  0  0  0  0  0  0  0  0  0  0  0  0
   12.2572    6.9451   20.7510 H   0  0  0  0  0  0  0  0  0  0  0  0
    9.8227    7.0419   20.2796 H   0  0  0  0  0  0  0  0  0  0  0  0
   13.2411    8.4034   22.4988 H   0  0  0  0  0  0  0  0  0  0  0  0
    8.3735    8.5878   21.5471 H   0  0  0  0  0  0  0  0  0  0  0  0
   11.8045    9.9550   23.7751 H   0  0  0  0  0  0  0  0  0  0  0  0
    6.7048   11.1730   26.7494 H   0  0  0  0  0  0  0  0  0  0  0  0
    5.6943   11.7867   25.4347 H   0  0  0  0  0  0  0  0  0  0  0  0
    7.1173    8.1224   23.5399 H   0  0  0  0  0  0  0  0  0  0  0  0
    8.4814    7.8405   24.6345 H   0  0  0  0  0  0  0  0  0  0  0  0
    4.9935    9.5244   26.4932 H   0  0  0  0  0  0  0  0  0  0  0  0
    5.0474    9.6005   24.7327 H   0  0  0  0  0  0  0  0  0  0  0  0
    6.0824    7.5087   25.5951 H   0  0  0  0  0  0  0  0  0  0  0  0
    7.2286    8.4322   26.5645 H   0  0  0  0  0  0  0  0  0  0  0  0
   12.4458   13.0810   21.6818 H   0  0  0  0  0  0  0  0  0  0  0  0
   12.7385   14.5049   22.7067 H   0  0  0  0  0  0  0  0  0  0  0  0
   10.6201   11.8471   21.9450 H   0  0  0  0  0  0  0  0  0  0  0  0
  1  7  1  0  0  0  0
  1 18  3  0  0  0  0
  2  3  1  0  0  0  0
  2  4  2  0  0  0  0
  3  5  2  0  0  0  0
  4  6  1  0  0  0  0
  5  9  1  0  0  0  0
  6  9  2  0  0  0  0
  7  8  1  0  0  0  0
  7 11  2  0  0  0  0
  8 10  2  0  0  0  0
  8 13  1  0  0  0  0
  9 19  1  0  0  0  0
 10 14  1  0  0  0  0
 10 19  1  0  0  0  0
 11 19  1  0  0  0  0
 11 20  1  0  0  0  0
 12 17  1  0  0  0  0
 12 20  1  0  0  0  0
 12 21  2  0  0  0  0
 13 15  1  0  0  0  0
 14 16  1  0  0  0  0
 15 16  1  0  0  0  0
 17 22  1  0  0  0  0
  2 23  1  0  0  0  0
  3 24  1  0  0  0  0
  4 25  1  0  0  0  0
  5 26  1  0  0  0  0
  6 27  1  0  0  0  0
 13 28  1  0  0  0  0
 13 29  1  0  0  0  0
 14 30  1  0  0  0  0
 14 31  1  0  0  0  0
 15 32  1  0  0  0  0
 15 33  1  0  0  0  0
 16 34  1  0  0  0  0
 16 35  1  0  0  0  0
 17 36  1  0  0  0  0
 17 37  1  0  0  0  0
 20 38  1  0  0  0  0
M  END
> <Catalog ID>
Z362569608

> <MW>
313.098

> <MW (desalted)>
313.781

> <ClogP>
3.966

> <logS>
-4.48

> <HBD>
1

> <HBA>
2

> <TPSA>
57.82

> <RotBonds>
3

> <ROCS_ShapeQuery>
A71EV2A-x0451_0A_A71EV2A-x0310_0A_A71EV2A-x0416_0A_peptide

> <ROCS_TanimotoCombo>
0.459 

> <ROCS_ShapeTanimoto>
0.327 

> <ROCS_ColorTanimoto>
0.132 

> <ROCS_RefTversky>
0.293 

> <ROCS_RefColorTversky>
0.144 

> <ROCS_RefTverskyCombo>
0.437 

> <ROCS_FitTversky>
1.557 

> <ROCS_FitColorTversky>
0.602 

> <ROCS_FitTverskyCombo>
2.159 

> <ROCS_ColorScore>
-4.394

> <ROCS_Overlap>
2034.298

> <ROCS_Rank>
94                  

$$$$
untitled-dbase-941_12
  -OEChem-11112315393D

 23 24  0     0  0  0  0  0  0999 V2000
   10.5437   10.9779   22.5412 C   0  0  0  0  0  0  0  0  0  0  0  0
    9.8259    9.9131   23.0911 C   0  0  0  0  0  0  0  0  0  0  0  0
    9.0569   12.5857   23.6054 C   0  0  0  0  0  0  0  0  0  0  0  0
   10.1614   12.3066   22.7969 C   0  0  0  0  0  0  0  0  0  0  0  0
    8.7394   10.2159   23.8858 C   0  0  0  0  0  0  0  0  0  0  0  0
    8.3653   11.5164   24.1362 C   0  0  0  0  0  0  0  0  0  0  0  0
   12.8703   14.9068   21.0822 C   0  0  0  0  0  0  0  0  0  0  0  0
   11.9370   15.4747   21.8524 C   0  0  0  0  0  0  0  0  0  0  0  0
   11.0886   14.6432   22.7546 C   0  0  0  0  0  0  0  0  0  0  0  0
    6.9981   10.1959   25.1701 C   0  0  0  0  0  0  0  0  0  0  0  0
   10.8932   13.3553   22.2378 N   0  0  0  0  0  0  0  0  0  0  0  0
   10.6477   15.0934   23.8055 O   0  0  0  0  0  0  0  0  0  0  0  0
    7.9265    9.3161   24.5035 O   0  0  0  0  0  0  0  0  0  0  0  0
    7.2711   11.5936   24.9417 O   0  0  0  0  0  0  0  0  0  0  0  0
   11.4049   10.7670   21.9113 H   0  0  0  0  0  0  0  0  0  0  0  0
   10.1174    8.8872   22.8970 H   0  0  0  0  0  0  0  0  0  0  0  0
    8.7498   13.6058   23.8115 H   0  0  0  0  0  0  0  0  0  0  0  0
   13.5052   15.4785   20.4147 H   0  0  0  0  0  0  0  0  0  0  0  0
   13.0156   13.8318   21.1097 H   0  0  0  0  0  0  0  0  0  0  0  0
   11.7914   16.5492   21.8258 H   0  0  0  0  0  0  0  0  0  0  0  0
    5.9857    9.9734   24.8128 H   0  0  0  0  0  0  0  0  0  0  0  0
    7.0414   10.0010   26.2478 H   0  0  0  0  0  0  0  0  0  0  0  0
   11.3443   13.1589   21.3362 H   0  0  0  0  0  0  0  0  0  0  0  0
  1  2  2  0  0  0  0
  1  4  1  0  0  0  0
  2  5  1  0  0  0  0
  3  4  2  0  0  0  0
  3  6  1  0  0  0  0
  4 11  1  0  0  0  0
  5  6  2  0  0  0  0
  5 13  1  0  0  0  0
  6 14  1  0  0  0  0
  7  8  2  0  0  0  0
  8  9  1  0  0  0  0
  9 11  1  0  0  0  0
  9 12  2  0  0  0  0
 10 13  1  0  0  0  0
 10 14  1  0  0  0  0
  1 15  1  0  0  0  0
  2 16  1  0  0  0  0
  3 17  1  0  0  0  0
  7 18  1  0  0  0  0
  7 19  1  0  0  0  0
  8 20  1  0  0  0  0
 10 21  1  0  0  0  0
 10 22  1  0  0  0  0
 11 23  1  0  0  0  0
M  END
> <Catalog ID>
Z362764918

> <MW>
191.058

> <MW (desalted)>
191.183

> <ClogP>
1.473

> <logS>
-2.83

> <HBD>
1

> <HBA>
3

> <TPSA>
47.56

> <RotBonds>
2

> <ROCS_ShapeQuery>
A71EV2A-x0451_0A_A71EV2A-x0310_0A_A71EV2A-x0416_0A_peptide

> <ROCS_TanimotoCombo>
0.459 

> <ROCS_ShapeTanimoto>
0.287 

> <ROCS_ColorTanimoto>
0.172 

> <ROCS_RefTversky>
0.254 

> <ROCS_RefColorTversky>
0.187 

> <ROCS_RefTverskyCombo>
0.441 

> <ROCS_FitTversky>
1.816 

> <ROCS_FitColorTversky>
0.688 

> <ROCS_FitTverskyCombo>
2.504 

> <ROCS_ColorScore>
-5.685

> <ROCS_Overlap>
1761.116

> <ROCS_Rank>
95                  

$$$$
untitled-dbase-475_13
  -OEChem-11112315393D

 25 26  0     0  0  0  0  0  0999 V2000
    9.0860   12.6739   23.6040 C   0  0  0  0  0  0  0  0  0  0  0  0
    9.6906    9.9808   23.1637 C   0  0  0  0  0  0  0  0  0  0  0  0
   10.1630   12.3224   22.7897 C   0  0  0  0  0  0  0  0  0  0  0  0
    8.3064   11.6773   24.1918 C   0  0  0  0  0  0  0  0  0  0  0  0
    8.6219   10.3315   23.9892 C   0  0  0  0  0  0  0  0  0  0  0  0
   10.4616   10.9781   22.5657 C   0  0  0  0  0  0  0  0  0  0  0  0
   11.1290   14.6088   22.7491 C   0  0  0  0  0  0  0  0  0  0  0  0
    6.3351   11.0162   25.2228 C   0  0  0  0  0  0  0  0  0  0  0  0
    7.0890    9.7678   25.6379 C   0  0  0  0  0  0  0  0  0  0  0  0
   11.9971   15.4609   21.8524 C   0  0  0  0  0  0  0  0  0  0  0  0
   10.9188   13.3464   22.2108 N   0  0  0  0  0  0  0  0  0  0  0  0
   10.6893   15.0677   23.7999 O   0  0  0  0  0  0  0  0  0  0  0  0
    7.2503   12.0846   24.9645 O   0  0  0  0  0  0  0  0  0  0  0  0
    7.9150    9.3081   24.5647 O   0  0  0  0  0  0  0  0  0  0  0  0
   11.7117   14.9504   20.1810 Cl  0  0  0  0  0  0  0  0  0  0  0  0
   11.9111   10.4485   21.4595 Br  0  0  0  0  0  0  0  0  0  0  0  0
    8.8451   13.7207   23.7751 H   0  0  0  0  0  0  0  0  0  0  0  0
    9.9198    8.9300   23.0024 H   0  0  0  0  0  0  0  0  0  0  0  0
    5.7335   10.8446   24.3212 H   0  0  0  0  0  0  0  0  0  0  0  0
    5.6642   11.3391   26.0248 H   0  0  0  0  0  0  0  0  0  0  0  0
    7.7234    9.9511   26.5140 H   0  0  0  0  0  0  0  0  0  0  0  0
    6.3875    8.9651   25.8854 H   0  0  0  0  0  0  0  0  0  0  0  0
   13.0624   15.3606   22.0750 H   0  0  0  0  0  0  0  0  0  0  0  0
   11.7108   16.5110   21.9594 H   0  0  0  0  0  0  0  0  0  0  0  0
   11.3543   13.1484   21.3133 H   0  0  0  0  0  0  0  0  0  0  0  0
  1  3  1  0  0  0  0
  1  4  2  0  0  0  0
  2  5  2  0  0  0  0
  2  6  1  0  0  0  0
  3  6  2  0  0  0  0
  3 11  1  0  0  0  0
  4  5  1  0  0  0  0
  4 13  1  0  0  0  0
  5 14  1  0  0  0  0
  6 16  1  0  0  0  0
  7 10  1  0  0  0  0
  7 11  1  0  0  0  0
  7 12  2  0  0  0  0
  8  9  1  0  0  0  0
  8 13  1  0  0  0  0
  9 14  1  0  0  0  0
 10 15  1  0  0  0  0
  1 17  1  0  0  0  0
  2 18  1  0  0  0  0
  8 19  1  0  0  0  0
  8 20  1  0  0  0  0
  9 21  1  0  0  0  0
  9 22  1  0  0  0  0
 10 23  1  0  0  0  0
 10 24  1  0  0  0  0
 11 25  1  0  0  0  0
M  END
> <Catalog ID>
Z199423598

> <MW>
304.945

> <MW (desalted)>
306.54

> <ClogP>
1.915

> <logS>
-3.77

> <HBD>
1

> <HBA>
3

> <TPSA>
47.56

> <RotBonds>
2

> <ROCS_ShapeQuery>
A71EV2A-x0451_0A_A71EV2A-x0310_0A_A71EV2A-x0416_0A_peptide

> <ROCS_TanimotoCombo>
0.459 

> <ROCS_ShapeTanimoto>
0.301 

> <ROCS_ColorTanimoto>
0.158 

> <ROCS_RefTversky>
0.266 

> <ROCS_RefColorTversky>
0.173 

> <ROCS_RefTverskyCombo>
0.439 

> <ROCS_FitTversky>
1.793 

> <ROCS_FitColorTversky>
0.639 

> <ROCS_FitTverskyCombo>
2.432 

> <ROCS_ColorScore>
-5.270

> <ROCS_Overlap>
1843.181

> <ROCS_Rank>
96                  

$$$$
untitled-dbase-630_53
  -OEChem-11112315393D

 26 26  0     1  0  0  0  0  0999 V2000
   12.1658   15.2893   22.0949 C   0  0  0  0  0  0  0  0  0  0  0  0
   10.7955   13.5123   23.1560 C   0  0  0  0  0  0  0  0  0  0  0  0
    9.1107   10.1117   23.1421 C   0  0  0  0  0  0  0  0  0  0  0  0
    8.1029    9.5027   24.1098 C   0  0  0  0  0  0  0  0  0  0  0  0
    8.2077   12.1672   24.1021 C   0  0  0  0  0  0  0  0  0  0  0  0
    9.5146   11.4603   23.7450 C   0  0  2  0  0  0  0  0  0  0  0  0
   12.8874   15.5829   20.8041 C   0  0  0  0  0  0  0  0  0  0  0  0
   11.5522   14.0381   22.0979 N   0  0  0  0  0  0  0  0  0  0  0  0
   10.3199   12.2390   22.8456 N   0  0  0  0  0  0  0  0  0  0  0  0
   12.1295   16.1032   23.0157 O   0  0  0  0  0  0  0  0  0  0  0  0
   10.5802   14.0957   24.2172 O   0  0  0  0  0  0  0  0  0  0  0  0
    7.1386   10.8770   26.1401 O   0  0  0  0  0  0  0  0  0  0  0  0
    5.8896   10.9260   23.9320 O   0  0  0  0  0  0  0  0  0  0  0  0
    7.1212   10.8770   24.6920 S   0  0  0  0  0  0  0  0  0  0  0  0
   13.6485   17.1741   20.9575 Cl  0  0  0  0  0  0  0  0  0  0  0  0
    9.9933    9.4677   23.0812 H   0  0  0  0  0  0  0  0  0  0  0  0
    8.6983   10.2068   22.1362 H   0  0  0  0  0  0  0  0  0  0  0  0
    7.4344    8.8028   23.6004 H   0  0  0  0  0  0  0  0  0  0  0  0
    8.5835    9.0083   24.9565 H   0  0  0  0  0  0  0  0  0  0  0  0
    8.3634   12.8661   24.9281 H   0  0  0  0  0  0  0  0  0  0  0  0
    7.7465   12.6886   23.2619 H   0  0  0  0  0  0  0  0  0  0  0  0
   10.1244   11.3136   24.6535 H   0  0  0  0  0  0  0  0  0  0  0  0
   13.6629   14.8292   20.6422 H   0  0  0  0  0  0  0  0  0  0  0  0
   12.2176   15.5960   19.9406 H   0  0  0  0  0  0  0  0  0  0  0  0
   11.6613   13.4612   21.2685 H   0  0  0  0  0  0  0  0  0  0  0  0
   10.5172   11.8561   21.9258 H   0  0  0  0  0  0  0  0  0  0  0  0
  1  7  1  0  0  0  0
  1  8  1  0  0  0  0
  1 10  2  0  0  0  0
  2  8  1  0  0  0  0
  2  9  1  0  0  0  0
  2 11  2  0  0  0  0
  3  4  1  0  0  0  0
  3  6  1  0  0  0  0
  4 14  1  0  0  0  0
  5  6  1  0  0  0  0
  5 14  1  0  0  0  0
  6  9  1  0  0  0  0
  7 15  1  0  0  0  0
 12 14  2  0  0  0  0
 13 14  2  0  0  0  0
  3 16  1  0  0  0  0
  3 17  1  0  0  0  0
  4 18  1  0  0  0  0
  4 19  1  0  0  0  0
  5 20  1  0  0  0  0
  5 21  1  0  0  0  0
  6 22  1  0  0  0  0
  7 23  1  0  0  0  0
  7 24  1  0  0  0  0
  8 25  1  0  0  0  0
  9 26  1  0  0  0  0
M  END
> <Catalog ID>
Z57043474

> <MW>
254.013

> <MW (desalted)>
254.691

> <ClogP>
-1.082

> <logS>
-1.16

> <HBD>
2

> <HBA>
4

> <TPSA>
92.34

> <RotBonds>
2

> <ROCS_ShapeQuery>
A71EV2A-x0451_0A_A71EV2A-x0310_0A_A71EV2A-x0416_0A_peptide

> <ROCS_TanimotoCombo>
0.459 

> <ROCS_ShapeTanimoto>
0.267 

> <ROCS_ColorTanimoto>
0.192 

> <ROCS_RefTversky>
0.239 

> <ROCS_RefColorTversky>
0.205 

> <ROCS_RefTverskyCombo>
0.444 

> <ROCS_FitTversky>
1.757 

> <ROCS_FitColorTversky>
0.756 

> <ROCS_FitTverskyCombo>
2.513 

> <ROCS_ColorScore>
-6.235

> <ROCS_Overlap>
1656.749

> <ROCS_Rank>
97                  

$$$$
untitled-dbase-347_61
  -OEChem-11112315393D

 29 29  0     0  0  0  0  0  0999 V2000
   12.0636   15.2699   22.0354 C   0  0  0  0  0  0  0  0  0  0  0  0
   10.7467   13.5037   23.1789 C   0  0  0  0  0  0  0  0  0  0  0  0
    6.9722   10.0829   24.6697 C   0  0  0  0  0  0  0  0  0  0  0  0
    7.3747   11.4196   25.2864 C   0  0  0  0  0  0  0  0  0  0  0  0
    8.1877    9.2969   24.1863 C   0  0  0  0  0  0  0  0  0  0  0  0
    8.2329   12.2458   24.3300 C   0  0  0  0  0  0  0  0  0  0  0  0
    9.0464   10.1206   23.2281 C   0  0  0  0  0  0  0  0  0  0  0  0
    9.4583   11.4567   23.8559 C   0  0  0  0  0  0  0  0  0  0  0  0
   12.6778   15.5730   20.6922 C   0  0  0  0  0  0  0  0  0  0  0  0
   11.4218   14.0333   22.0688 N   0  0  0  0  0  0  0  0  0  0  0  0
   10.2148   12.2484   22.8877 N   0  0  0  0  0  0  0  0  0  0  0  0
   12.1272   16.0655   22.9705 O   0  0  0  0  0  0  0  0  0  0  0  0
   10.6384   14.0702   24.2653 O   0  0  0  0  0  0  0  0  0  0  0  0
   11.3729   15.6180   19.4965 Cl  0  0  0  0  0  0  0  0  0  0  0  0
    6.4181    9.4893   25.4054 H   0  0  0  0  0  0  0  0  0  0  0  0
    6.2942   10.2605   23.8258 H   0  0  0  0  0  0  0  0  0  0  0  0
    6.4763   11.9856   25.5575 H   0  0  0  0  0  0  0  0  0  0  0  0
    7.9322   11.2405   26.2140 H   0  0  0  0  0  0  0  0  0  0  0  0
    8.7933    8.9938   25.0493 H   0  0  0  0  0  0  0  0  0  0  0  0
    7.8582    8.3780   23.6884 H   0  0  0  0  0  0  0  0  0  0  0  0
    7.6229   12.5452   23.4678 H   0  0  0  0  0  0  0  0  0  0  0  0
    8.5497   13.1658   24.8358 H   0  0  0  0  0  0  0  0  0  0  0  0
    9.9371    9.5414   22.9560 H   0  0  0  0  0  0  0  0  0  0  0  0
    8.4823   10.2987   22.3034 H   0  0  0  0  0  0  0  0  0  0  0  0
   10.1304   11.2812   24.6907 H   0  0  0  0  0  0  0  0  0  0  0  0
   13.1644   16.5515   20.7281 H   0  0  0  0  0  0  0  0  0  0  0  0
   13.4100   14.8221   20.3847 H   0  0  0  0  0  0  0  0  0  0  0  0
   11.4445   13.4711   21.2226 H   0  0  0  0  0  0  0  0  0  0  0  0
   10.3222   11.8798   21.9475 H   0  0  0  0  0  0  0  0  0  0  0  0
  1  9  1  0  0  0  0
  1 10  1  0  0  0  0
  1 12  2  0  0  0  0
  2 10  1  0  0  0  0
  2 11  1  0  0  0  0
  2 13  2  0  0  0  0
  3  4  1  0  0  0  0
  3  5  1  0  0  0  0
  4  6  1  0  0  0  0
  5  7  1  0  0  0  0
  6  8  1  0  0  0  0
  7  8  1  0  0  0  0
  8 11  1  0  0  0  0
  9 14  1  0  0  0  0
  3 15  1  0  0  0  0
  3 16  1  0  0  0  0
  4 17  1  0  0  0  0
  4 18  1  0  0  0  0
  5 19  1  0  0  0  0
  5 20  1  0  0  0  0
  6 21  1  0  0  0  0
  6 22  1  0  0  0  0
  7 23  1  0  0  0  0
  7 24  1  0  0  0  0
  8 25  1  0  0  0  0
  9 26  1  0  0  0  0
  9 27  1  0  0  0  0
 10 28  1  0  0  0  0
 11 29  1  0  0  0  0
M  END
> <Catalog ID>
Z56904663

> <MW>
218.082

> <MW (desalted)>
218.681

> <ClogP>
2.016

> <logS>
-2.38

> <HBD>
2

> <HBA>
2

> <TPSA>
58.2

> <RotBonds>
2

> <ROCS_ShapeQuery>
A71EV2A-x0451_0A_A71EV2A-x0310_0A_A71EV2A-x0416_0A_peptide

> <ROCS_TanimotoCombo>
0.458 

> <ROCS_ShapeTanimoto>
0.271 

> <ROCS_ColorTanimoto>
0.187 

> <ROCS_RefTversky>
0.241 

> <ROCS_RefColorTversky>
0.191 

> <ROCS_RefTverskyCombo>
0.432 

> <ROCS_FitTversky>
1.836 

> <ROCS_FitColorTversky>
0.913 

> <ROCS_FitTverskyCombo>
2.749 

> <ROCS_ColorScore>
-5.794

> <ROCS_Overlap>
1671.273

> <ROCS_Rank>
98                  

$$$$
untitled-dbase-958_1069
  -OEChem-11112315393D

 44 46  0     1  0  0  0  0  0999 V2000
   10.1538   11.5954   23.2411 C   0  0  0  0  0  0  0  0  0  0  0  0
    9.2384   10.6372   23.6778 C   0  0  0  0  0  0  0  0  0  0  0  0
    8.8473   13.3370   24.2952 C   0  0  0  0  0  0  0  0  0  0  0  0
    9.9590   12.9426   23.5499 C   0  0  0  0  0  0  0  0  0  0  0  0
    7.9409   12.3747   24.7424 C   0  0  0  0  0  0  0  0  0  0  0  0
    8.1374   11.0282   24.4389 C   0  0  0  0  0  0  0  0  0  0  0  0
    5.9258   11.8358   25.9777 C   0  0  0  0  0  0  0  0  0  0  0  0
   13.0298   16.5243   17.0571 C   0  0  0  0  0  0  0  0  0  0  0  0
   13.2481   15.5171   17.9051 C   0  0  0  0  0  0  0  0  0  0  0  0
   10.9170   13.9460   23.0784 C   0  0  0  0  0  0  0  0  0  0  0  0
   13.7502   15.8215   19.2597 C   0  0  0  0  0  0  0  0  0  0  0  0
   11.7007   13.3775   20.7868 C   0  0  0  0  0  0  0  0  0  0  0  0
   13.3246   14.3200   22.5086 C   0  0  0  0  0  0  0  0  0  0  0  0
   11.6988   14.7471   20.1072 C   0  0  0  0  0  0  0  0  0  0  0  0
   13.2680   15.6535   21.7634 C   0  0  0  0  0  0  0  0  0  0  0  0
    6.4655   10.4040   25.9418 C   0  0  1  0  0  0  0  0  0  0  0  0
   12.0821   13.4537   22.2698 C   0  0  0  0  0  0  0  0  0  0  0  0
    5.3266    9.3949   26.0361 C   0  0  0  0  0  0  0  0  0  0  0  0
    6.7990   12.7644   25.4508 N   0  0  0  0  0  0  0  0  0  0  0  0
   12.9679   15.4353   20.3438 N   0  0  0  0  0  0  0  0  0  0  0  0
    4.8585   12.1390   26.5067 O   0  0  0  0  0  0  0  0  0  0  0  0
   10.8318   15.1488   23.3033 O   0  0  0  0  0  0  0  0  0  0  0  0
   14.8321   16.4047   19.3484 O   0  0  0  0  0  0  0  0  0  0  0  0
    7.2407   10.0608   24.8003 O   0  0  0  0  0  0  0  0  0  0  0  0
   11.0133   11.2816   22.6540 H   0  0  0  0  0  0  0  0  0  0  0  0
    9.3894    9.5920   23.4223 H   0  0  0  0  0  0  0  0  0  0  0  0
    8.6884   14.3884   24.5228 H   0  0  0  0  0  0  0  0  0  0  0  0
   12.6615   16.3638   16.0493 H   0  0  0  0  0  0  0  0  0  0  0  0
   13.2205   17.5467   17.3658 H   0  0  0  0  0  0  0  0  0  0  0  0
   13.0695   14.4847   17.6342 H   0  0  0  0  0  0  0  0  0  0  0  0
   10.7133   12.9153   20.6685 H   0  0  0  0  0  0  0  0  0  0  0  0
   12.4188   12.7287   20.2689 H   0  0  0  0  0  0  0  0  0  0  0  0
   14.2124   13.7682   22.1743 H   0  0  0  0  0  0  0  0  0  0  0  0
   13.4541   14.5117   23.5806 H   0  0  0  0  0  0  0  0  0  0  0  0
   11.5146   14.6222   19.0354 H   0  0  0  0  0  0  0  0  0  0  0  0
   10.8965   15.3802   20.5036 H   0  0  0  0  0  0  0  0  0  0  0  0
   12.4690   16.2864   22.1673 H   0  0  0  0  0  0  0  0  0  0  0  0
   14.1965   16.2049   21.9147 H   0  0  0  0  0  0  0  0  0  0  0  0
    7.1016   10.2817   26.8297 H   0  0  0  0  0  0  0  0  0  0  0  0
   12.2845   12.4380   22.6322 H   0  0  0  0  0  0  0  0  0  0  0  0
    4.6742    9.4888   25.1685 H   0  0  0  0  0  0  0  0  0  0  0  0
    4.7441    9.5754   26.9390 H   0  0  0  0  0  0  0  0  0  0  0  0
    5.7288    8.3827   26.0696 H   0  0  0  0  0  0  0  0  0  0  0  0
    6.6087   13.7536   25.5800 H   0  0  0  0  0  0  0  0  0  0  0  0
  1  2  2  0  0  0  0
  1  4  1  0  0  0  0
  2  6  1  0  0  0  0
  3  4  2  0  0  0  0
  3  5  1  0  0  0  0
  4 10  1  0  0  0  0
  5  6  2  0  0  0  0
  5 19  1  0  0  0  0
  6 24  1  0  0  0  0
  7 16  1  0  0  0  0
  7 19  1  0  0  0  0
  7 21  2  0  0  0  0
  8  9  2  0  0  0  0
  9 11  1  0  0  0  0
 10 17  1  0  0  0  0
 10 22  2  0  0  0  0
 11 20  1  0  0  0  0
 11 23  2  0  0  0  0
 12 14  1  0  0  0  0
 12 17  1  0  0  0  0
 13 15  1  0  0  0  0
 13 17  1  0  0  0  0
 14 20  1  0  0  0  0
 15 20  1  0  0  0  0
 16 18  1  0  0  0  0
 16 24  1  0  0  0  0
  1 25  1  0  0  0  0
  2 26  1  0  0  0  0
  3 27  1  0  0  0  0
  8 28  1  0  0  0  0
  8 29  1  0  0  0  0
  9 30  1  0  0  0  0
 12 31  1  0  0  0  0
 12 32  1  0  0  0  0
 13 33  1  0  0  0  0
 13 34  1  0  0  0  0
 14 35  1  0  0  0  0
 14 36  1  0  0  0  0
 15 37  1  0  0  0  0
 15 38  1  0  0  0  0
 16 39  1  0  0  0  0
 17 40  1  0  0  0  0
 18 41  1  0  0  0  0
 18 42  1  0  0  0  0
 18 43  1  0  0  0  0
 19 44  1  0  0  0  0
M  END
> <Catalog ID>
Z2285377453

> <MW>
328.362

> <MW (desalted)>
328.362

> <ClogP>
0.991

> <logS>
-3.681

> <HBD>
1

> <HBA>
4

> <TPSA>
75.71

> <RotBonds>
3

> <ROCS_ShapeQuery>
A71EV2A-x0451_0A_A71EV2A-x0310_0A_A71EV2A-x0416_0A_peptide

> <ROCS_TanimotoCombo>
0.458 

> <ROCS_ShapeTanimoto>
0.340 

> <ROCS_ColorTanimoto>
0.119 

> <ROCS_RefTversky>
0.304 

> <ROCS_RefColorTversky>
0.141 

> <ROCS_RefTverskyCombo>
0.446 

> <ROCS_FitTversky>
1.516 

> <ROCS_FitColorTversky>
0.426 

> <ROCS_FitTverskyCombo>
1.942 

> <ROCS_ColorScore>
-4.318

> <ROCS_Overlap>
2116.344

> <ROCS_Rank>
99                  

$$$$
untitled-dbase-231_26
  -OEChem-11112315393D

 27 27  0     0  0  0  0  0  0999 V2000
    8.7627    9.3265   23.7162 C   0  0  0  0  0  0  0  0  0  0  0  0
    9.7068   10.1717   23.1332 C   0  0  0  0  0  0  0  0  0  0  0  0
    8.5496   12.0893   24.0392 C   0  0  0  0  0  0  0  0  0  0  0  0
    7.7119    9.8627   24.4606 C   0  0  0  0  0  0  0  0  0  0  0  0
    9.6003   11.5531   23.2947 C   0  0  0  0  0  0  0  0  0  0  0  0
    7.6054   11.2441   24.6221 C   0  0  0  0  0  0  0  0  0  0  0  0
   10.9478   13.6358   23.1997 C   0  0  0  0  0  0  0  0  0  0  0  0
    6.7183    8.9299   25.0721 C   0  0  0  0  0  0  0  0  0  0  0  0
   11.9904   14.2763   22.3130 C   0  0  0  0  0  0  0  0  0  0  0  0
    6.6689   13.6117   25.4108 N   0  0  0  0  0  0  0  0  0  0  0  0
   10.5455   12.3976   22.7119 N   0  0  0  0  0  0  0  0  0  0  0  0
   10.5460   14.2208   24.2019 O   0  0  0  0  0  0  0  0  0  0  0  0
    5.0508   11.6833   24.8553 O   0  0  0  0  0  0  0  0  0  0  0  0
    6.4584   11.5496   26.9406 O   0  0  0  0  0  0  0  0  0  0  0  0
    6.3006   11.9499   25.5508 S   0  0  0  0  0  0  0  0  0  0  0  0
   11.1440   15.2567   21.1055 Cl  0  0  0  0  0  0  0  0  0  0  0  0
    8.8550    8.2517   23.5839 H   0  0  0  0  0  0  0  0  0  0  0  0
   10.5218    9.7425   22.5557 H   0  0  0  0  0  0  0  0  0  0  0  0
    8.4673   13.1668   24.1642 H   0  0  0  0  0  0  0  0  0  0  0  0
    7.0406    8.6382   26.0782 H   0  0  0  0  0  0  0  0  0  0  0  0
    5.7284    9.3969   25.1435 H   0  0  0  0  0  0  0  0  0  0  0  0
    6.6008    8.0233   24.4657 H   0  0  0  0  0  0  0  0  0  0  0  0
   12.6155   13.5431   21.7970 H   0  0  0  0  0  0  0  0  0  0  0  0
   12.6315   14.9259   22.9155 H   0  0  0  0  0  0  0  0  0  0  0  0
    7.4845   13.9687   25.9235 H   0  0  0  0  0  0  0  0  0  0  0  0
    6.5217   14.0623   24.4995 H   0  0  0  0  0  0  0  0  0  0  0  0
   10.9812   12.0774   21.8490 H   0  0  0  0  0  0  0  0  0  0  0  0
  1  2  2  0  0  0  0
  1  4  1  0  0  0  0
  2  5  1  0  0  0  0
  3  5  2  0  0  0  0
  3  6  1  0  0  0  0
  4  6  2  0  0  0  0
  4  8  1  0  0  0  0
  5 11  1  0  0  0  0
  6 15  1  0  0  0  0
  7  9  1  0  0  0  0
  7 11  1  0  0  0  0
  7 12  2  0  0  0  0
  9 16  1  0  0  0  0
 10 15  1  0  0  0  0
 13 15  2  0  0  0  0
 14 15  2  0  0  0  0
  1 17  1  0  0  0  0
  2 18  1  0  0  0  0
  3 19  1  0  0  0  0
  8 20  1  0  0  0  0
  8 21  1  0  0  0  0
  8 22  1  0  0  0  0
  9 23  1  0  0  0  0
  9 24  1  0  0  0  0
 10 25  1  0  0  0  0
 10 26  1  0  0  0  0
 11 27  1  0  0  0  0
M  END
> <Catalog ID>
Z119989844

> <MW>
262.018

> <MW (desalted)>
262.713

> <ClogP>
0.758

> <logS>
-2.39

> <HBD>
2

> <HBA>
3

> <TPSA>
89.26

> <RotBonds>
3

> <ROCS_ShapeQuery>
A71EV2A-x0451_0A_A71EV2A-x0310_0A_A71EV2A-x0416_0A_peptide

> <ROCS_TanimotoCombo>
0.458 

> <ROCS_ShapeTanimoto>
0.306 

> <ROCS_ColorTanimoto>
0.152 

> <ROCS_RefTversky>
0.268 

> <ROCS_RefColorTversky>
0.164 

> <ROCS_RefTverskyCombo>
0.432 

> <ROCS_FitTversky>
1.864 

> <ROCS_FitColorTversky>
0.684 

> <ROCS_FitTverskyCombo>
2.548 

> <ROCS_ColorScore>
-4.989

> <ROCS_Overlap>
1856.066

> <ROCS_Rank>
100                 

$$$$
untitled-dbase-256_73
  -OEChem-11112315393D

 34 35  0     0  0  0  0  0  0999 V2000
    9.9104   10.4123   23.0094 C   0  0  0  0  0  0  0  0  0  0  0  0
    8.7834    9.6946   23.4126 C   0  0  0  0  0  0  0  0  0  0  0  0
    9.2547   12.3178   24.3847 C   0  0  0  0  0  0  0  0  0  0  0  0
    8.1385   11.6023   24.7814 C   0  0  0  0  0  0  0  0  0  0  0  0
   10.1443   11.7130   23.4910 C   0  0  0  0  0  0  0  0  0  0  0  0
    7.9210   10.3143   24.2950 C   0  0  0  0  0  0  0  0  0  0  0  0
    6.1319   10.7126   25.6901 C   0  0  0  0  0  0  0  0  0  0  0  0
   11.4325   16.3102   20.6564 C   0  0  0  0  0  0  0  0  0  0  0  0
   10.4472   15.6342   21.2550 C   0  0  0  0  0  0  0  0  0  0  0  0
   10.7319   14.7779   22.4373 C   0  0  0  0  0  0  0  0  0  0  0  0
    7.0187   11.9826   25.7193 C   0  0  0  0  0  0  0  0  0  0  0  0
    6.2210   13.1773   25.1980 C   0  0  0  0  0  0  0  0  0  0  0  0
    7.5247   12.2230   27.1411 C   0  0  0  0  0  0  0  0  0  0  0  0
   11.3582   12.4566   23.0413 C   0  0  0  0  0  0  0  0  0  0  0  0
    6.7465    9.7976   24.8289 N   0  0  0  0  0  0  0  0  0  0  0  0
   11.0465   13.4771   22.0738 N   0  0  0  0  0  0  0  0  0  0  0  0
    5.0908   10.5531   26.3100 O   0  0  0  0  0  0  0  0  0  0  0  0
   10.6828   15.2027   23.5873 O   0  0  0  0  0  0  0  0  0  0  0  0
   10.6109    9.9549   22.3146 H   0  0  0  0  0  0  0  0  0  0  0  0
    8.6008    8.6919   23.0434 H   0  0  0  0  0  0  0  0  0  0  0  0
    9.4337   13.3213   24.7575 H   0  0  0  0  0  0  0  0  0  0  0  0
   11.2171   16.9320   19.7936 H   0  0  0  0  0  0  0  0  0  0  0  0
   12.4610   16.2687   20.9976 H   0  0  0  0  0  0  0  0  0  0  0  0
    9.4311   15.7037   20.8820 H   0  0  0  0  0  0  0  0  0  0  0  0
    5.4245   13.4220   25.8984 H   0  0  0  0  0  0  0  0  0  0  0  0
    5.7844   12.9348   24.2309 H   0  0  0  0  0  0  0  0  0  0  0  0
    6.8774   14.0386   25.0881 H   0  0  0  0  0  0  0  0  0  0  0  0
    6.6919   12.4944   27.7873 H   0  0  0  0  0  0  0  0  0  0  0  0
    8.2544   13.0305   27.1406 H   0  0  0  0  0  0  0  0  0  0  0  0
    7.9933   11.3178   27.5231 H   0  0  0  0  0  0  0  0  0  0  0  0
   11.8579   12.9454   23.8886 H   0  0  0  0  0  0  0  0  0  0  0  0
   12.0946   11.7832   22.5828 H   0  0  0  0  0  0  0  0  0  0  0  0
    6.3819    8.8756   24.6208 H   0  0  0  0  0  0  0  0  0  0  0  0
   11.0310   13.2101   21.0915 H   0  0  0  0  0  0  0  0  0  0  0  0
  1  2  2  0  0  0  0
  1  5  1  0  0  0  0
  2  6  1  0  0  0  0
  3  4  1  0  0  0  0
  3  5  2  0  0  0  0
  4  6  2  0  0  0  0
  4 11  1  0  0  0  0
  5 14  1  0  0  0  0
  6 15  1  0  0  0  0
  7 11  1  0  0  0  0
  7 15  1  0  0  0  0
  7 17  2  0  0  0  0
  8  9  2  0  0  0  0
  9 10  1  0  0  0  0
 10 16  1  0  0  0  0
 10 18  2  0  0  0  0
 11 12  1  0  0  0  0
 11 13  1  0  0  0  0
 14 16  1  0  0  0  0
  1 19  1  0  0  0  0
  2 20  1  0  0  0  0
  3 21  1  0  0  0  0
  8 22  1  0  0  0  0
  8 23  1  0  0  0  0
  9 24  1  0  0  0  0
 12 25  1  0  0  0  0
 12 26  1  0  0  0  0
 12 27  1  0  0  0  0
 13 28  1  0  0  0  0
 13 29  1  0  0  0  0
 13 30  1  0  0  0  0
 14 31  1  0  0  0  0
 14 32  1  0  0  0  0
 15 33  1  0  0  0  0
 16 34  1  0  0  0  0
M  END
> <Catalog ID>
Z2285378219

> <MW>
244.289

> <MW (desalted)>
244.289

> <ClogP>
0.788

> <logS>
-2.51

> <HBD>
2

> <HBA>
2

> <TPSA>
58.2

> <RotBonds>
3

> <ROCS_ShapeQuery>
A71EV2A-x0451_0A_A71EV2A-x0310_0A_A71EV2A-x0416_0A_peptide

> <ROCS_TanimotoCombo>
0.458 

> <ROCS_ShapeTanimoto>
0.318 

> <ROCS_ColorTanimoto>
0.140 

> <ROCS_RefTversky>
0.280 

> <ROCS_RefColorTversky>
0.160 

> <ROCS_RefTverskyCombo>
0.440 

> <ROCS_FitTversky>
1.727 

> <ROCS_FitColorTversky>
0.531 

> <ROCS_FitTverskyCombo>
2.258 

> <ROCS_ColorScore>
-4.886

> <ROCS_Overlap>
1942.906

> <ROCS_Rank>
101                 

$$$$
untitled-dbase-289_1271
  -OEChem-11112315393D

 29 29  0     0  0  0  0  0  0999 V2000
    9.5759   10.7097   23.2615 C   0  0  0  0  0  0  0  0  0  0  0  0
    8.5141    9.8871   23.7370 C   0  0  0  0  0  0  0  0  0  0  0  0
    9.5057   11.9890   23.7675 C   0  0  0  0  0  0  0  0  0  0  0  0
    7.6729   10.5691   24.5886 C   0  0  0  0  0  0  0  0  0  0  0  0
   10.4129   13.1398   23.5207 C   0  0  0  0  0  0  0  0  0  0  0  0
   12.9790   14.4214   22.7733 C   0  0  0  0  0  0  0  0  0  0  0  0
    8.3451    8.4651   23.3530 C   0  0  0  0  0  0  0  0  0  0  0  0
    6.2518   10.7580   26.6456 C   0  0  0  0  0  0  0  0  0  0  0  0
    6.4647   10.0801   25.2897 C   0  0  0  0  0  0  0  0  0  0  0  0
   13.7867   15.6143   22.3321 C   0  0  0  0  0  0  0  0  0  0  0  0
   11.0285   13.1625   22.2838 N   0  0  0  0  0  0  0  0  0  0  0  0
   11.8672   14.2081   21.9827 N   0  0  0  0  0  0  0  0  0  0  0  0
   10.5544   13.9930   24.3932 O   0  0  0  0  0  0  0  0  0  0  0  0
   13.2989   13.7450   23.7493 O   0  0  0  0  0  0  0  0  0  0  0  0
    8.1639   12.1943   24.8115 S   0  0  0  0  0  0  0  0  0  0  0  0
   12.9660   16.3442   20.9435 Cl  0  0  0  0  0  0  0  0  0  0  0  0
   10.3524   10.3796   22.5823 H   0  0  0  0  0  0  0  0  0  0  0  0
    8.8798    7.8053   24.0522 H   0  0  0  0  0  0  0  0  0  0  0  0
    7.2850    8.1680   23.3475 H   0  0  0  0  0  0  0  0  0  0  0  0
    8.7275    8.2688   22.3393 H   0  0  0  0  0  0  0  0  0  0  0  0
    7.1290   10.6270   27.2884 H   0  0  0  0  0  0  0  0  0  0  0  0
    5.3850   10.3376   27.1652 H   0  0  0  0  0  0  0  0  0  0  0  0
    6.0841   11.8332   26.5211 H   0  0  0  0  0  0  0  0  0  0  0  0
    5.5597   10.2351   24.6732 H   0  0  0  0  0  0  0  0  0  0  0  0
    6.5144    8.9865   25.4473 H   0  0  0  0  0  0  0  0  0  0  0  0
   13.8335   16.3433   23.1456 H   0  0  0  0  0  0  0  0  0  0  0  0
   14.8032   15.3438   22.0351 H   0  0  0  0  0  0  0  0  0  0  0  0
   10.8643   12.4215   21.6112 H   0  0  0  0  0  0  0  0  0  0  0  0
   11.6728   14.8137   21.1922 H   0  0  0  0  0  0  0  0  0  0  0  0
  1  2  1  0  0  0  0
  1  3  2  0  0  0  0
  2  4  2  0  0  0  0
  2  7  1  0  0  0  0
  3  5  1  0  0  0  0
  3 15  1  0  0  0  0
  4  9  1  0  0  0  0
  4 15  1  0  0  0  0
  5 11  1  0  0  0  0
  5 13  2  0  0  0  0
  6 10  1  0  0  0  0
  6 12  1  0  0  0  0
  6 14  2  0  0  0  0
  8  9  1  0  0  0  0
 10 16  1  0  0  0  0
 11 12  1  0  0  0  0
  1 17  1  0  0  0  0
  7 18  1  0  0  0  0
  7 19  1  0  0  0  0
  7 20  1  0  0  0  0
  8 21  1  0  0  0  0
  8 22  1  0  0  0  0
  8 23  1  0  0  0  0
  9 24  1  0  0  0  0
  9 25  1  0  0  0  0
 10 26  1  0  0  0  0
 10 27  1  0  0  0  0
 11 28  1  0  0  0  0
 12 29  1  0  0  0  0
M  END
> <Catalog ID>
Z1224459565

> <MW>
260.039

> <MW (desalted)>
260.74

> <ClogP>
2.239

> <logS>
-3.635

> <HBD>
2

> <HBA>
2

> <TPSA>
58.2

> <RotBonds>
4

> <ROCS_ShapeQuery>
A71EV2A-x0451_0A_A71EV2A-x0310_0A_A71EV2A-x0416_0A_peptide

> <ROCS_TanimotoCombo>
0.458 

> <ROCS_ShapeTanimoto>
0.285 

> <ROCS_ColorTanimoto>
0.172 

> <ROCS_RefTversky>
0.254 

> <ROCS_RefColorTversky>
0.184 

> <ROCS_RefTverskyCombo>
0.437 

> <ROCS_FitTversky>
1.778 

> <ROCS_FitColorTversky>
0.738 

> <ROCS_FitTverskyCombo>
2.516 

> <ROCS_ColorScore>
-5.590

> <ROCS_Overlap>
1757.476

> <ROCS_Rank>
102                 

$$$$
untitled-dbase-725_1008
  -OEChem-11112315393D

 29 29  0     0  0  0  0  0  0999 V2000
    8.3239   12.0524   24.6380 C   0  0  0  0  0  0  0  0  0  0  0  0
    7.6864   10.7783   24.6625 C   0  0  0  0  0  0  0  0  0  0  0  0
    9.4452   12.0547   23.8379 C   0  0  0  0  0  0  0  0  0  0  0  0
    8.3449    9.8553   23.8798 C   0  0  0  0  0  0  0  0  0  0  0  0
   10.3805   13.1723   23.5476 C   0  0  0  0  0  0  0  0  0  0  0  0
   12.9745   14.3604   22.7439 C   0  0  0  0  0  0  0  0  0  0  0  0
    8.0094    8.4343   23.6381 C   0  0  0  0  0  0  0  0  0  0  0  0
    5.7760   11.7616   25.9548 C   0  0  0  0  0  0  0  0  0  0  0  0
    6.4588   10.4918   25.4427 C   0  0  0  0  0  0  0  0  0  0  0  0
   13.8102   15.5162   22.2583 C   0  0  0  0  0  0  0  0  0  0  0  0
   10.9891   13.1371   22.3075 N   0  0  0  0  0  0  0  0  0  0  0  0
   11.8528   14.1496   21.9667 N   0  0  0  0  0  0  0  0  0  0  0  0
   10.5493   14.0506   24.3899 O   0  0  0  0  0  0  0  0  0  0  0  0
   13.2826   13.7093   23.7407 O   0  0  0  0  0  0  0  0  0  0  0  0
    9.7256   10.5254   23.1204 S   0  0  0  0  0  0  0  0  0  0  0  0
   12.7227   16.7027   21.5210 Cl  0  0  0  0  0  0  0  0  0  0  0  0
    7.9772   12.9237   25.1801 H   0  0  0  0  0  0  0  0  0  0  0  0
    7.3442    8.3298   22.7671 H   0  0  0  0  0  0  0  0  0  0  0  0
    8.9094    7.8266   23.4514 H   0  0  0  0  0  0  0  0  0  0  0  0
    7.5050    7.9790   24.5057 H   0  0  0  0  0  0  0  0  0  0  0  0
    6.4659   12.3577   26.5618 H   0  0  0  0  0  0  0  0  0  0  0  0
    4.9053   11.5181   26.5717 H   0  0  0  0  0  0  0  0  0  0  0  0
    5.4372   12.3856   25.1208 H   0  0  0  0  0  0  0  0  0  0  0  0
    5.7328    9.9199   24.8371 H   0  0  0  0  0  0  0  0  0  0  0  0
    6.6850    9.8396   26.3056 H   0  0  0  0  0  0  0  0  0  0  0  0
   14.3223   15.9772   23.1073 H   0  0  0  0  0  0  0  0  0  0  0  0
   14.5519   15.2122   21.5153 H   0  0  0  0  0  0  0  0  0  0  0  0
   10.8017   12.3783   21.6613 H   0  0  0  0  0  0  0  0  0  0  0  0
   11.6695   14.7330   21.1572 H   0  0  0  0  0  0  0  0  0  0  0  0
  1  2  1  0  0  0  0
  1  3  2  0  0  0  0
  2  4  2  0  0  0  0
  2  9  1  0  0  0  0
  3  5  1  0  0  0  0
  3 15  1  0  0  0  0
  4  7  1  0  0  0  0
  4 15  1  0  0  0  0
  5 11  1  0  0  0  0
  5 13  2  0  0  0  0
  6 10  1  0  0  0  0
  6 12  1  0  0  0  0
  6 14  2  0  0  0  0
  8  9  1  0  0  0  0
 10 16  1  0  0  0  0
 11 12  1  0  0  0  0
  1 17  1  0  0  0  0
  7 18  1  0  0  0  0
  7 19  1  0  0  0  0
  7 20  1  0  0  0  0
  8 21  1  0  0  0  0
  8 22  1  0  0  0  0
  8 23  1  0  0  0  0
  9 24  1  0  0  0  0
  9 25  1  0  0  0  0
 10 26  1  0  0  0  0
 10 27  1  0  0  0  0
 11 28  1  0  0  0  0
 12 29  1  0  0  0  0
M  END
> <Catalog ID>
Z57048955

> <MW>
260.039

> <MW (desalted)>
260.74

> <ClogP>
2.239

> <logS>
-3.87

> <HBD>
2

> <HBA>
2

> <TPSA>
58.2

> <RotBonds>
4

> <ROCS_ShapeQuery>
A71EV2A-x0451_0A_A71EV2A-x0310_0A_A71EV2A-x0416_0A_peptide

> <ROCS_TanimotoCombo>
0.457 

> <ROCS_ShapeTanimoto>
0.285 

> <ROCS_ColorTanimoto>
0.172 

> <ROCS_RefTversky>
0.253 

> <ROCS_RefColorTversky>
0.184 

> <ROCS_RefTverskyCombo>
0.437 

> <ROCS_FitTversky>
1.776 

> <ROCS_FitColorTversky>
0.738 

> <ROCS_FitTverskyCombo>
2.514 

> <ROCS_ColorScore>
-5.590

> <ROCS_Overlap>
1756.187

> <ROCS_Rank>
103                 

$$$$
untitled-dbase-747_973
  -OEChem-11112315393D

 39 41  0     0  0  0  0  0  0999 V2000
    7.5996   10.6375   24.8381 C   0  0  0  0  0  0  0  0  0  0  0  0
    8.4143   11.6578   24.4165 C   0  0  0  0  0  0  0  0  0  0  0  0
   12.8290   16.1102   19.9752 C   0  0  0  0  0  0  0  0  0  0  0  0
   11.7890   16.2672   20.7969 C   0  0  0  0  0  0  0  0  0  0  0  0
   11.8921   15.7649   22.1827 C   0  0  0  0  0  0  0  0  0  0  0  0
    6.4842   10.8191   25.7906 C   0  0  0  0  0  0  0  0  0  0  0  0
    8.3655   13.0691   24.8479 C   0  0  0  0  0  0  0  0  0  0  0  0
    6.6194   12.1771   26.5172 C   0  0  0  0  0  0  0  0  0  0  0  0
    7.0201   13.3270   25.5637 C   0  0  0  0  0  0  0  0  0  0  0  0
    9.8768   12.7050   21.7367 C   0  0  0  0  0  0  0  0  0  0  0  0
   11.5257   12.2673   23.6455 C   0  0  0  0  0  0  0  0  0  0  0  0
   10.9726   13.6652   21.2942 C   0  0  0  0  0  0  0  0  0  0  0  0
   11.5222   13.7928   23.7325 C   0  0  0  0  0  0  0  0  0  0  0  0
   10.4071   11.6857   22.7579 C   0  0  0  0  0  0  0  0  0  0  0  0
    7.9620    9.4743   24.2290 N   0  0  0  0  0  0  0  0  0  0  0  0
    8.9993    9.7442   23.4355 N   0  0  0  0  0  0  0  0  0  0  0  0
    9.2718   11.0602   23.5497 N   0  0  0  0  0  0  0  0  0  0  0  0
   11.4842   14.4519   22.4188 N   0  0  0  0  0  0  0  0  0  0  0  0
   12.3388   16.5262   23.0417 O   0  0  0  0  0  0  0  0  0  0  0  0
   12.8131   16.4576   18.9476 H   0  0  0  0  0  0  0  0  0  0  0  0
   13.7313   15.6210   20.3267 H   0  0  0  0  0  0  0  0  0  0  0  0
   10.8726   16.7500   20.4833 H   0  0  0  0  0  0  0  0  0  0  0  0
    5.5195   10.7674   25.2749 H   0  0  0  0  0  0  0  0  0  0  0  0
    6.5106   10.0086   26.5282 H   0  0  0  0  0  0  0  0  0  0  0  0
    9.1953   13.3125   25.5199 H   0  0  0  0  0  0  0  0  0  0  0  0
    8.4413   13.7202   23.9694 H   0  0  0  0  0  0  0  0  0  0  0  0
    5.6616   12.4314   26.9889 H   0  0  0  0  0  0  0  0  0  0  0  0
    7.3574   12.0863   27.3222 H   0  0  0  0  0  0  0  0  0  0  0  0
    7.0930   14.2544   26.1472 H   0  0  0  0  0  0  0  0  0  0  0  0
    6.2341   13.4822   24.8160 H   0  0  0  0  0  0  0  0  0  0  0  0
    9.0408   13.2740   22.1688 H   0  0  0  0  0  0  0  0  0  0  0  0
    9.4719   12.1793   20.8613 H   0  0  0  0  0  0  0  0  0  0  0  0
   12.5098   11.9248   23.2708 H   0  0  0  0  0  0  0  0  0  0  0  0
   11.4455   11.8461   24.6678 H   0  0  0  0  0  0  0  0  0  0  0  0
   11.8212   13.1085   20.8792 H   0  0  0  0  0  0  0  0  0  0  0  0
   10.5944   14.3164   20.5001 H   0  0  0  0  0  0  0  0  0  0  0  0
   10.6745   14.0939   24.3644 H   0  0  0  0  0  0  0  0  0  0  0  0
   12.4350   14.1484   24.2425 H   0  0  0  0  0  0  0  0  0  0  0  0
   10.8177   10.7986   22.1920 H   0  0  0  0  0  0  0  0  0  0  0  0
  1  2  2  0  0  0  0
  1  6  1  0  0  0  0
  1 15  1  0  0  0  0
  2  7  1  0  0  0  0
  2 17  1  0  0  0  0
  3  4  2  0  0  0  0
  4  5  1  0  0  0  0
  5 18  1  0  0  0  0
  5 19  2  0  0  0  0
  6  8  1  0  0  0  0
  7  9  1  0  0  0  0
  8  9  1  0  0  0  0
 10 12  1  0  0  0  0
 10 14  1  0  0  0  0
 11 13  1  0  0  0  0
 11 14  1  0  0  0  0
 12 18  1  0  0  0  0
 13 18  1  0  0  0  0
 14 17  1  0  0  0  0
 15 16  2  0  0  0  0
 16 17  1  0  0  0  0
  3 20  1  0  0  0  0
  3 21  1  0  0  0  0
  4 22  1  0  0  0  0
  6 23  1  0  0  0  0
  6 24  1  0  0  0  0
  7 25  1  0  0  0  0
  7 26  1  0  0  0  0
  8 27  1  0  0  0  0
  8 28  1  0  0  0  0
  9 29  1  0  0  0  0
  9 30  1  0  0  0  0
 10 31  1  0  0  0  0
 10 32  1  0  0  0  0
 11 33  1  0  0  0  0
 11 34  1  0  0  0  0
 12 35  1  0  0  0  0
 12 36  1  0  0  0  0
 13 37  1  0  0  0  0
 13 38  1  0  0  0  0
 14 39  1  0  0  0  0
M  END
> <Catalog ID>
Z2285377436

> <MW>
260.335

> <MW (desalted)>
260.335

> <ClogP>
0.285

> <logS>
-1.98

> <HBD>
0

> <HBA>
3

> <TPSA>
51.02

> <RotBonds>
2

> <ROCS_ShapeQuery>
A71EV2A-x0451_0A_A71EV2A-x0310_0A_A71EV2A-x0416_0A_peptide

> <ROCS_TanimotoCombo>
0.457 

> <ROCS_ShapeTanimoto>
0.338 

> <ROCS_ColorTanimoto>
0.119 

> <ROCS_RefTversky>
0.295 

> <ROCS_RefColorTversky>
0.136 

> <ROCS_RefTverskyCombo>
0.432 

> <ROCS_FitTversky>
1.753 

> <ROCS_FitColorTversky>
0.485 

> <ROCS_FitTverskyCombo>
2.238 

> <ROCS_ColorScore>
-4.160

> <ROCS_Overlap>
2048.336

> <ROCS_Rank>
104                 

$$$$
untitled-dbase-686_8
  -OEChem-11112315393D

 23 23  0     0  0  0  0  0  0999 V2000
    9.3747    9.9159   22.8630 C   0  0  0  0  0  0  0  0  0  0  0  0
   10.0820   11.1156   22.7850 C   0  0  0  0  0  0  0  0  0  0  0  0
    8.2946    9.7986   23.7379 C   0  0  0  0  0  0  0  0  0  0  0  0
    8.6292   12.0807   24.4569 C   0  0  0  0  0  0  0  0  0  0  0  0
    9.7093   12.1980   23.5820 C   0  0  0  0  0  0  0  0  0  0  0  0
    7.9219   10.8810   24.5348 C   0  0  0  0  0  0  0  0  0  0  0  0
   10.4472   13.4486   23.5002 C   0  0  0  0  0  0  0  0  0  0  0  0
   11.8672   14.8518   22.0103 C   0  0  0  0  0  0  0  0  0  0  0  0
   12.3918   14.8750   20.5969 C   0  0  0  0  0  0  0  0  0  0  0  0
   11.0893   13.7265   22.2790 N   0  0  0  0  0  0  0  0  0  0  0  0
    6.8224   10.7610   25.4254 N   0  3  0  0  0  0  0  0  0  0  0  0
    6.1999    9.6729   25.4798 O   0  5  0  0  0  0  0  0  0  0  0  0
   10.5149   14.2036   24.4855 O   0  0  0  0  0  0  0  0  0  0  0  0
   12.1038   15.7626   22.8016 O   0  0  0  0  0  0  0  0  0  0  0  0
    6.5031   11.7466   26.1333 O   0  0  0  0  0  0  0  0  0  0  0  0
   13.9588   15.6986   20.6150 Cl  0  0  0  0  0  0  0  0  0  0  0  0
    9.6651    9.0731   22.2424 H   0  0  0  0  0  0  0  0  0  0  0  0
   10.9222   11.1956   22.1000 H   0  0  0  0  0  0  0  0  0  0  0  0
    7.7519    8.8579   23.7883 H   0  0  0  0  0  0  0  0  0  0  0  0
    8.3404   12.9266   25.0775 H   0  0  0  0  0  0  0  0  0  0  0  0
   12.5298   13.8495   20.2433 H   0  0  0  0  0  0  0  0  0  0  0  0
   11.7251   15.4013   19.9090 H   0  0  0  0  0  0  0  0  0  0  0  0
   10.9834   13.0447   21.5331 H   0  0  0  0  0  0  0  0  0  0  0  0
  1  2  1  0  0  0  0
  1  3  2  0  0  0  0
  2  5  2  0  0  0  0
  3  6  1  0  0  0  0
  4  5  1  0  0  0  0
  4  6  2  0  0  0  0
  5  7  1  0  0  0  0
  6 11  1  0  0  0  0
  7 10  1  0  0  0  0
  7 13  2  0  0  0  0
  8  9  1  0  0  0  0
  8 10  1  0  0  0  0
  8 14  2  0  0  0  0
  9 16  1  0  0  0  0
 11 12  1  0  0  0  0
 11 15  2  0  0  0  0
  1 17  1  0  0  0  0
  2 18  1  0  0  0  0
  3 19  1  0  0  0  0
  4 20  1  0  0  0  0
  9 21  1  0  0  0  0
  9 22  1  0  0  0  0
 10 23  1  0  0  0  0
M  CHG  2  11   1  12  -1
M  END
> <Catalog ID>
Z56911973

> <MW>
242.009

> <MW (desalted)>
242.616

> <ClogP>
1.459

> <logS>
-3.27

> <HBD>
1

> <HBA>
4

> <TPSA>
89.31

> <RotBonds>
3

> <ROCS_ShapeQuery>
A71EV2A-x0451_0A_A71EV2A-x0310_0A_A71EV2A-x0416_0A_peptide

> <ROCS_TanimotoCombo>
0.457 

> <ROCS_ShapeTanimoto>
0.303 

> <ROCS_ColorTanimoto>
0.154 

> <ROCS_RefTversky>
0.267 

> <ROCS_RefColorTversky>
0.165 

> <ROCS_RefTverskyCombo>
0.433 

> <ROCS_FitTversky>
1.802 

> <ROCS_FitColorTversky>
0.689 

> <ROCS_FitTverskyCombo>
2.491 

> <ROCS_ColorScore>
-5.031

> <ROCS_Overlap>
1852.330

> <ROCS_Rank>
105                 

$$$$
untitled-dbase-833_77
  -OEChem-11112315393D

 24 24  0     0  0  0  0  0  0999 V2000
    6.4213   11.4287   25.8622 C   0  0  0  0  0  0  0  0  0  0  0  0
    8.7608    9.8012   23.4675 C   0  0  0  0  0  0  0  0  0  0  0  0
    7.6957    9.9932   24.3474 C   0  0  0  0  0  0  0  0  0  0  0  0
    9.6430   10.8484   23.2011 C   0  0  0  0  0  0  0  0  0  0  0  0
    8.3947   12.2797   24.6945 C   0  0  0  0  0  0  0  0  0  0  0  0
    7.5126   11.2324   24.9609 C   0  0  0  0  0  0  0  0  0  0  0  0
    9.4599   12.0876   23.8146 C   0  0  0  0  0  0  0  0  0  0  0  0
   10.4015   13.2018   23.5313 C   0  0  0  0  0  0  0  0  0  0  0  0
   13.0087   14.3803   22.7572 C   0  0  0  0  0  0  0  0  0  0  0  0
   13.8535   15.5318   22.2770 C   0  0  0  0  0  0  0  0  0  0  0  0
    5.5349   11.5880   26.5941 N   0  0  0  0  0  0  0  0  0  0  0  0
   11.0269   13.1588   22.2999 N   0  0  0  0  0  0  0  0  0  0  0  0
   11.8974   14.1677   21.9657 N   0  0  0  0  0  0  0  0  0  0  0  0
   10.5606   14.0841   24.3712 O   0  0  0  0  0  0  0  0  0  0  0  0
   13.3017   13.7338   23.7615 O   0  0  0  0  0  0  0  0  0  0  0  0
   15.0239   14.8987   21.1092 Cl  0  0  0  0  0  0  0  0  0  0  0  0
    8.9038    8.8364   22.9901 H   0  0  0  0  0  0  0  0  0  0  0  0
    7.0161    9.1675   24.5444 H   0  0  0  0  0  0  0  0  0  0  0  0
   10.4695   10.6872   22.5140 H   0  0  0  0  0  0  0  0  0  0  0  0
    8.2549   13.2483   25.1704 H   0  0  0  0  0  0  0  0  0  0  0  0
   13.2160   16.2697   21.7825 H   0  0  0  0  0  0  0  0  0  0  0  0
   14.3986   16.0176   23.0903 H   0  0  0  0  0  0  0  0  0  0  0  0
   10.8468   12.3970   21.6552 H   0  0  0  0  0  0  0  0  0  0  0  0
   11.7264   14.7472   21.1507 H   0  0  0  0  0  0  0  0  0  0  0  0
  1  6  1  0  0  0  0
  1 11  3  0  0  0  0
  2  3  1  0  0  0  0
  2  4  2  0  0  0  0
  3  6  2  0  0  0  0
  4  7  1  0  0  0  0
  5  6  1  0  0  0  0
  5  7  2  0  0  0  0
  7  8  1  0  0  0  0
  8 12  1  0  0  0  0
  8 14  2  0  0  0  0
  9 10  1  0  0  0  0
  9 13  1  0  0  0  0
  9 15  2  0  0  0  0
 10 16  1  0  0  0  0
 12 13  1  0  0  0  0
  2 17  1  0  0  0  0
  3 18  1  0  0  0  0
  4 19  1  0  0  0  0
  5 20  1  0  0  0  0
 10 21  1  0  0  0  0
 10 22  1  0  0  0  0
 12 23  1  0  0  0  0
 13 24  1  0  0  0  0
M  END
> <Catalog ID>
Z1262250914

> <MW>
237.031

> <MW (desalted)>
237.642

> <ClogP>
0.825

> <logS>
-2.939

> <HBD>
2

> <HBA>
3

> <TPSA>
81.99

> <RotBonds>
3

> <ROCS_ShapeQuery>
A71EV2A-x0451_0A_A71EV2A-x0310_0A_A71EV2A-x0416_0A_peptide

> <ROCS_TanimotoCombo>
0.457 

> <ROCS_ShapeTanimoto>
0.284 

> <ROCS_ColorTanimoto>
0.173 

> <ROCS_RefTversky>
0.253 

> <ROCS_RefColorTversky>
0.185 

> <ROCS_RefTverskyCombo>
0.438 

> <ROCS_FitTversky>
1.727 

> <ROCS_FitColorTversky>
0.742 

> <ROCS_FitTverskyCombo>
2.469 

> <ROCS_ColorScore>
-5.619

> <ROCS_Overlap>
1756.007

> <ROCS_Rank>
106                 

$$$$
untitled-dbase-918_381
  -OEChem-11112315393D

 23 23  0     0  0  0  0  0  0999 V2000
    6.7496   12.5375   25.3958 C   0  0  0  0  0  0  0  0  0  0  0  0
    8.0125   12.7265   24.7854 C   0  0  0  0  0  0  0  0  0  0  0  0
    6.5332   11.1793   25.4133 C   0  0  0  0  0  0  0  0  0  0  0  0
    8.4780   11.4702   24.4737 C   0  0  0  0  0  0  0  0  0  0  0  0
   11.6323   15.2114   22.1108 C   0  0  0  0  0  0  0  0  0  0  0  0
   10.6815   13.2035   23.2181 C   0  0  0  0  0  0  0  0  0  0  0  0
    9.7356   10.9739   23.8208 C   0  0  0  0  0  0  0  0  0  0  0  0
   12.0278   15.7035   20.7417 C   0  0  0  0  0  0  0  0  0  0  0  0
   11.1422   13.9069   22.0948 N   0  0  0  0  0  0  0  0  0  0  0  0
   10.2596   11.9228   22.8658 N   0  0  0  0  0  0  0  0  0  0  0  0
   11.7288   15.9245   23.1077 O   0  0  0  0  0  0  0  0  0  0  0  0
   10.6540   13.6557   24.3616 O   0  0  0  0  0  0  0  0  0  0  0  0
    7.5821   10.5215   24.8532 O   0  0  0  0  0  0  0  0  0  0  0  0
   10.6215   16.5072   20.0268 Cl  0  0  0  0  0  0  0  0  0  0  0  0
    6.0806   13.2963   25.7750 H   0  0  0  0  0  0  0  0  0  0  0  0
    8.5176   13.6632   24.5972 H   0  0  0  0  0  0  0  0  0  0  0  0
    5.7267   10.5556   25.7699 H   0  0  0  0  0  0  0  0  0  0  0  0
   10.5118   10.7864   24.5706 H   0  0  0  0  0  0  0  0  0  0  0  0
    9.5585   10.0309   23.2930 H   0  0  0  0  0  0  0  0  0  0  0  0
   12.8429   16.4261   20.8371 H   0  0  0  0  0  0  0  0  0  0  0  0
   12.3446   14.8947   20.0785 H   0  0  0  0  0  0  0  0  0  0  0  0
   11.1165   13.4274   21.1992 H   0  0  0  0  0  0  0  0  0  0  0  0
   10.2831   11.6529   21.8875 H   0  0  0  0  0  0  0  0  0  0  0  0
  1  2  1  0  0  0  0
  1  3  2  0  0  0  0
  2  4  2  0  0  0  0
  3 13  1  0  0  0  0
  4  7  1  0  0  0  0
  4 13  1  0  0  0  0
  5  8  1  0  0  0  0
  5  9  1  0  0  0  0
  5 11  2  0  0  0  0
  6  9  1  0  0  0  0
  6 10  1  0  0  0  0
  6 12  2  0  0  0  0
  7 10  1  0  0  0  0
  8 14  1  0  0  0  0
  1 15  1  0  0  0  0
  2 16  1  0  0  0  0
  3 17  1  0  0  0  0
  7 18  1  0  0  0  0
  7 19  1  0  0  0  0
  8 20  1  0  0  0  0
  8 21  1  0  0  0  0
  9 22  1  0  0  0  0
 10 23  1  0  0  0  0
M  END
> <Catalog ID>
Z56907448

> <MW>
216.03

> <MW (desalted)>
216.622

> <ClogP>
1.339

> <logS>
-1.75

> <HBD>
2

> <HBA>
2

> <TPSA>
71.34

> <RotBonds>
3

> <ROCS_ShapeQuery>
A71EV2A-x0451_0A_A71EV2A-x0310_0A_A71EV2A-x0416_0A_peptide

> <ROCS_TanimotoCombo>
0.457 

> <ROCS_ShapeTanimoto>
0.258 

> <ROCS_ColorTanimoto>
0.199 

> <ROCS_RefTversky>
0.233 

> <ROCS_RefColorTversky>
0.206 

> <ROCS_RefTverskyCombo>
0.439 

> <ROCS_FitTversky>
1.728 

> <ROCS_FitColorTversky>
0.859 

> <ROCS_FitTverskyCombo>
2.586 

> <ROCS_ColorScore>
-6.264

> <ROCS_Overlap>
1611.182

> <ROCS_Rank>
107                 

$$$$
untitled-dbase-401_5
  -OEChem-11112315393D

 28 28  0     0  0  0  0  0  0999 V2000
    7.2981   10.2804   24.9216 C   0  0  0  0  0  0  0  0  0  0  0  0
    8.1807    9.5643   24.1131 C   0  0  0  0  0  0  0  0  0  0  0  0
    8.4091   12.3375   24.3128 C   0  0  0  0  0  0  0  0  0  0  0  0
    7.4122   11.6670   25.0215 C   0  0  0  0  0  0  0  0  0  0  0  0
    9.1776   10.2349   23.4044 C   0  0  0  0  0  0  0  0  0  0  0  0
    9.2918   11.6215   23.5042 C   0  0  0  0  0  0  0  0  0  0  0  0
    6.4911   12.4127   25.8643 C   0  0  0  0  0  0  0  0  0  0  0  0
   10.8930   13.4939   23.1991 C   0  0  0  0  0  0  0  0  0  0  0  0
   10.1098    9.4421   22.5468 C   0  0  0  0  0  0  0  0  0  0  0  0
    5.1457   12.2896   27.8308 C   0  0  0  0  0  0  0  0  0  0  0  0
   11.9221   13.9579   22.1946 C   0  0  0  0  0  0  0  0  0  0  0  0
   10.2833   12.3109   22.8014 N   0  0  0  0  0  0  0  0  0  0  0  0
    6.1360   13.5797   25.6521 O   0  0  0  0  0  0  0  0  0  0  0  0
   10.6724   14.1577   24.2085 O   0  0  0  0  0  0  0  0  0  0  0  0
    6.0612   11.6635   26.9255 O   0  0  0  0  0  0  0  0  0  0  0  0
   11.1035   15.0107   21.0297 Cl  0  0  0  0  0  0  0  0  0  0  0  0
    6.5249    9.7476   25.4693 H   0  0  0  0  0  0  0  0  0  0  0  0
    8.0834    8.4842   24.0423 H   0  0  0  0  0  0  0  0  0  0  0  0
    8.4979   13.4191   24.3921 H   0  0  0  0  0  0  0  0  0  0  0  0
    9.7060    9.3504   21.5321 H   0  0  0  0  0  0  0  0  0  0  0  0
   11.0961    9.9181   22.4895 H   0  0  0  0  0  0  0  0  0  0  0  0
   10.2635    8.4357   22.9550 H   0  0  0  0  0  0  0  0  0  0  0  0
    4.8831   11.5889   28.6271 H   0  0  0  0  0  0  0  0  0  0  0  0
    4.2472   12.5950   27.2887 H   0  0  0  0  0  0  0  0  0  0  0  0
    5.6231   13.1705   28.2665 H   0  0  0  0  0  0  0  0  0  0  0  0
   12.3897   13.1306   21.6547 H   0  0  0  0  0  0  0  0  0  0  0  0
   12.7003   14.5296   22.7081 H   0  0  0  0  0  0  0  0  0  0  0  0
   10.5866   11.9094   21.9172 H   0  0  0  0  0  0  0  0  0  0  0  0
  1  2  2  0  0  0  0
  1  4  1  0  0  0  0
  2  5  1  0  0  0  0
  3  4  2  0  0  0  0
  3  6  1  0  0  0  0
  4  7  1  0  0  0  0
  5  6  2  0  0  0  0
  5  9  1  0  0  0  0
  6 12  1  0  0  0  0
  7 13  2  0  0  0  0
  7 15  1  0  0  0  0
  8 11  1  0  0  0  0
  8 12  1  0  0  0  0
  8 14  2  0  0  0  0
 10 15  1  0  0  0  0
 11 16  1  0  0  0  0
  1 17  1  0  0  0  0
  2 18  1  0  0  0  0
  3 19  1  0  0  0  0
  9 20  1  0  0  0  0
  9 21  1  0  0  0  0
  9 22  1  0  0  0  0
 10 23  1  0  0  0  0
 10 24  1  0  0  0  0
 10 25  1  0  0  0  0
 11 26  1  0  0  0  0
 11 27  1  0  0  0  0
 12 28  1  0  0  0  0
M  END
> <Catalog ID>
Z56347374

> <MW>
241.051

> <MW (desalted)>
241.671

> <ClogP>
2.061

> <logS>
-2.77

> <HBD>
1

> <HBA>
2

> <TPSA>
55.4

> <RotBonds>
4

> <ROCS_ShapeQuery>
A71EV2A-x0451_0A_A71EV2A-x0310_0A_A71EV2A-x0416_0A_peptide

> <ROCS_TanimotoCombo>
0.457 

> <ROCS_ShapeTanimoto>
0.319 

> <ROCS_ColorTanimoto>
0.138 

> <ROCS_RefTversky>
0.277 

> <ROCS_RefColorTversky>
0.143 

> <ROCS_RefTverskyCombo>
0.420 

> <ROCS_FitTversky>
1.886 

> <ROCS_FitColorTversky>
0.806 

> <ROCS_FitTverskyCombo>
2.692 

> <ROCS_ColorScore>
-4.342

> <ROCS_Overlap>
1920.312

> <ROCS_Rank>
108                 

$$$$
untitled-dbase-119_144
  -OEChem-11112315393D

 28 29  0     0  0  0  0  0  0999 V2000
    5.7503   10.1263   26.2441 C   0  0  0  0  0  0  0  0  0  0  0  0
    5.7591   11.5131   26.3594 C   0  0  0  0  0  0  0  0  0  0  0  0
    6.6886    9.4867   25.4336 C   0  0  0  0  0  0  0  0  0  0  0  0
    6.7063   12.2658   25.6646 C   0  0  0  0  0  0  0  0  0  0  0  0
    8.6013    9.6014   23.9067 C   0  0  0  0  0  0  0  0  0  0  0  0
    8.6189   12.3806   24.1377 C   0  0  0  0  0  0  0  0  0  0  0  0
    7.6493   10.2285   24.7270 C   0  0  0  0  0  0  0  0  0  0  0  0
    7.6583   11.6388   24.8443 C   0  0  0  0  0  0  0  0  0  0  0  0
    9.5484   10.3541   23.2119 C   0  0  0  0  0  0  0  0  0  0  0  0
    9.5573   11.7410   23.3272 C   0  0  0  0  0  0  0  0  0  0  0  0
   10.5164    9.6561   22.3745 C   0  0  0  0  0  0  0  0  0  0  0  0
   11.0133   13.7338   23.0598 C   0  0  0  0  0  0  0  0  0  0  0  0
   12.0108   14.2887   22.0696 C   0  0  0  0  0  0  0  0  0  0  0  0
   10.4985   12.5139   22.6412 N   0  0  0  0  0  0  0  0  0  0  0  0
   10.3166    8.5859   21.7951 O   0  0  0  0  0  0  0  0  0  0  0  0
   10.7363   14.3645   24.0764 O   0  0  0  0  0  0  0  0  0  0  0  0
   11.7000   10.3204   22.2891 O   0  0  0  0  0  0  0  0  0  0  0  0
   11.1223   15.2926   20.9128 Cl  0  0  0  0  0  0  0  0  0  0  0  0
    5.0122    9.5409   26.7848 H   0  0  0  0  0  0  0  0  0  0  0  0
    5.0286   12.0103   26.9909 H   0  0  0  0  0  0  0  0  0  0  0  0
    6.6626    8.4016   25.3581 H   0  0  0  0  0  0  0  0  0  0  0  0
    6.6950   13.3487   25.7704 H   0  0  0  0  0  0  0  0  0  0  0  0
    8.6029    8.5166   23.8107 H   0  0  0  0  0  0  0  0  0  0  0  0
    8.6343   13.4664   24.2219 H   0  0  0  0  0  0  0  0  0  0  0  0
   12.5436   13.5070   21.5222 H   0  0  0  0  0  0  0  0  0  0  0  0
   12.7398   14.9106   22.5968 H   0  0  0  0  0  0  0  0  0  0  0  0
   10.8373   12.1493   21.7541 H   0  0  0  0  0  0  0  0  0  0  0  0
   11.7083   11.1557   22.8033 H   0  0  0  0  0  0  0  0  0  0  0  0
  1  2  1  0  0  0  0
  1  3  2  0  0  0  0
  2  4  2  0  0  0  0
  3  7  1  0  0  0  0
  4  8  1  0  0  0  0
  5  7  2  0  0  0  0
  5  9  1  0  0  0  0
  6  8  2  0  0  0  0
  6 10  1  0  0  0  0
  7  8  1  0  0  0  0
  9 10  2  0  0  0  0
  9 11  1  0  0  0  0
 10 14  1  0  0  0  0
 11 15  2  0  0  0  0
 11 17  1  0  0  0  0
 12 13  1  0  0  0  0
 12 14  1  0  0  0  0
 12 16  2  0  0  0  0
 13 18  1  0  0  0  0
  1 19  1  0  0  0  0
  2 20  1  0  0  0  0
  3 21  1  0  0  0  0
  4 22  1  0  0  0  0
  5 23  1  0  0  0  0
  6 24  1  0  0  0  0
 13 25  1  0  0  0  0
 13 26  1  0  0  0  0
 14 27  1  0  0  0  0
 17 28  1  0  0  0  0
M  END
> <Catalog ID>
Z157039482

> <MW>
263.035

> <MW (desalted)>
263.676

> <ClogP>
3.615

> <logS>
-4.2

> <HBD>
2

> <HBA>
3

> <TPSA>
66.4

> <RotBonds>
3

> <ROCS_ShapeQuery>
A71EV2A-x0451_0A_A71EV2A-x0310_0A_A71EV2A-x0416_0A_peptide

> <ROCS_TanimotoCombo>
0.457 

> <ROCS_ShapeTanimoto>
0.325 

> <ROCS_ColorTanimoto>
0.131 

> <ROCS_RefTversky>
0.286 

> <ROCS_RefColorTversky>
0.148 

> <ROCS_RefTverskyCombo>
0.433 

> <ROCS_FitTversky>
1.752 

> <ROCS_FitColorTversky>
0.545 

> <ROCS_FitTverskyCombo>
2.297 

> <ROCS_ColorScore>
-4.499

> <ROCS_Overlap>
1980.845

> <ROCS_Rank>
109                 

$$$$
untitled-dbase-49_133
  -OEChem-11112315393D

 35 35  0     0  0  0  0  0  0999 V2000
    8.4324   12.2408   24.6868 C   0  0  0  0  0  0  0  0  0  0  0  0
    9.6819   10.8510   23.1557 C   0  0  0  0  0  0  0  0  0  0  0  0
    7.5618   11.1805   24.9388 C   0  0  0  0  0  0  0  0  0  0  0  0
    8.8113    9.7907   23.4077 C   0  0  0  0  0  0  0  0  0  0  0  0
    9.4924   12.0761   23.7952 C   0  0  0  0  0  0  0  0  0  0  0  0
    7.7513    9.9555   24.2992 C   0  0  0  0  0  0  0  0  0  0  0  0
   10.4011   13.1808   23.5321 C   0  0  0  0  0  0  0  0  0  0  0  0
   13.0111   14.4226   22.7565 C   0  0  0  0  0  0  0  0  0  0  0  0
    5.3910    9.3358   24.9243 C   0  0  0  0  0  0  0  0  0  0  0  0
    7.3189    7.9543   25.7672 C   0  0  0  0  0  0  0  0  0  0  0  0
    6.6210    7.8196   23.3848 C   0  0  0  0  0  0  0  0  0  0  0  0
   13.8417   15.5909   22.2927 C   0  0  0  0  0  0  0  0  0  0  0  0
    6.7920    8.7866   24.5782 C   0  0  0  0  0  0  0  0  0  0  0  0
   11.0374   13.1914   22.2898 N   0  0  0  0  0  0  0  0  0  0  0  0
   11.8961   14.2147   21.9690 N   0  0  0  0  0  0  0  0  0  0  0  0
   10.5774   14.0725   24.3817 O   0  0  0  0  0  0  0  0  0  0  0  0
   13.3173   13.7598   23.7461 O   0  0  0  0  0  0  0  0  0  0  0  0
   13.6180   15.7581   20.5444 Cl  0  0  0  0  0  0  0  0  0  0  0  0
    8.2761   13.1912   25.1904 H   0  0  0  0  0  0  0  0  0  0  0  0
   10.5043   10.7112   22.4589 H   0  0  0  0  0  0  0  0  0  0  0  0
    6.7388   11.3176   25.6351 H   0  0  0  0  0  0  0  0  0  0  0  0
    8.9667    8.8395   22.9053 H   0  0  0  0  0  0  0  0  0  0  0  0
    4.6863    8.5211   25.1280 H   0  0  0  0  0  0  0  0  0  0  0  0
    5.4046    9.9766   25.8127 H   0  0  0  0  0  0  0  0  0  0  0  0
    4.9846    9.9293   24.0968 H   0  0  0  0  0  0  0  0  0  0  0  0
    6.6649    7.1076   26.0028 H   0  0  0  0  0  0  0  0  0  0  0  0
    8.3116    7.5418   25.5519 H   0  0  0  0  0  0  0  0  0  0  0  0
    7.4018    8.5677   26.6722 H   0  0  0  0  0  0  0  0  0  0  0  0
    5.9294    7.0052   23.6321 H   0  0  0  0  0  0  0  0  0  0  0  0
    6.2132    8.3318   22.5054 H   0  0  0  0  0  0  0  0  0  0  0  0
    7.5735    7.3576   23.1000 H   0  0  0  0  0  0  0  0  0  0  0  0
   13.4962   16.5026   22.7878 H   0  0  0  0  0  0  0  0  0  0  0  0
   14.9065   15.4540   22.4976 H   0  0  0  0  0  0  0  0  0  0  0  0
   10.8662   12.4450   21.6251 H   0  0  0  0  0  0  0  0  0  0  0  0
   11.7139   14.8081   21.1664 H   0  0  0  0  0  0  0  0  0  0  0  0
  1  3  2  0  0  0  0
  1  5  1  0  0  0  0
  2  4  1  0  0  0  0
  2  5  2  0  0  0  0
  3  6  1  0  0  0  0
  4  6  2  0  0  0  0
  5  7  1  0  0  0  0
  6 13  1  0  0  0  0
  7 14  1  0  0  0  0
  7 16  2  0  0  0  0
  8 12  1  0  0  0  0
  8 15  1  0  0  0  0
  8 17  2  0  0  0  0
  9 13  1  0  0  0  0
 10 13  1  0  0  0  0
 11 13  1  0  0  0  0
 12 18  1  0  0  0  0
 14 15  1  0  0  0  0
  1 19  1  0  0  0  0
  2 20  1  0  0  0  0
  3 21  1  0  0  0  0
  4 22  1  0  0  0  0
  9 23  1  0  0  0  0
  9 24  1  0  0  0  0
  9 25  1  0  0  0  0
 10 26  1  0  0  0  0
 10 27  1  0  0  0  0
 10 28  1  0  0  0  0
 11 29  1  0  0  0  0
 11 30  1  0  0  0  0
 11 31  1  0  0  0  0
 12 32  1  0  0  0  0
 12 33  1  0  0  0  0
 14 34  1  0  0  0  0
 15 35  1  0  0  0  0
M  END
> <Catalog ID>
Z147433182

> <MW>
268.098

> <MW (desalted)>
268.739

> <ClogP>
2.75

> <logS>
-4.24

> <HBD>
2

> <HBA>
2

> <TPSA>
58.2

> <RotBonds>
4

> <ROCS_ShapeQuery>
A71EV2A-x0451_0A_A71EV2A-x0310_0A_A71EV2A-x0416_0A_peptide

> <ROCS_TanimotoCombo>
0.457 

> <ROCS_ShapeTanimoto>
0.285 

> <ROCS_ColorTanimoto>
0.172 

> <ROCS_RefTversky>
0.257 

> <ROCS_RefColorTversky>
0.183 

> <ROCS_RefTverskyCombo>
0.440 

> <ROCS_FitTversky>
1.632 

> <ROCS_FitColorTversky>
0.737 

> <ROCS_FitTverskyCombo>
2.369 

> <ROCS_ColorScore>
-5.579

> <ROCS_Overlap>
1778.853

> <ROCS_Rank>
110                 

$$$$
untitled-dbase-526_5
  -OEChem-11112315393D

 23 24  0     0  0  0  0  0  0999 V2000
    8.3922   12.6316   24.2395 C   0  0  0  0  0  0  0  0  0  0  0  0
    7.9174    9.8240   24.4701 C   0  0  0  0  0  0  0  0  0  0  0  0
    7.3313   12.1244   24.9548 C   0  0  0  0  0  0  0  0  0  0  0  0
    7.1000   10.7566   25.0671 C   0  0  0  0  0  0  0  0  0  0  0  0
    9.2374   11.7033   23.6236 C   0  0  0  0  0  0  0  0  0  0  0  0
    9.0026   10.3152   23.7374 C   0  0  0  0  0  0  0  0  0  0  0  0
    5.4576   11.8388   26.2393 C   0  0  0  0  0  0  0  0  0  0  0  0
   11.0097   13.3735   23.1418 C   0  0  0  0  0  0  0  0  0  0  0  0
   12.1292   13.5897   22.1502 C   0  0  0  0  0  0  0  0  0  0  0  0
    6.3377   12.7988   25.6646 N   0  0  0  0  0  0  0  0  0  0  0  0
    5.9601   10.5654   25.8481 N   0  0  0  0  0  0  0  0  0  0  0  0
   10.3238   12.1932   22.8908 N   0  0  0  0  0  0  0  0  0  0  0  0
    4.4716   12.0620   26.9269 O   0  0  0  0  0  0  0  0  0  0  0  0
   10.7923   14.2054   24.0186 O   0  0  0  0  0  0  0  0  0  0  0  0
   13.2444   12.2212   22.2878 Cl  0  0  0  0  0  0  0  0  0  0  0  0
   10.1487    9.0498   22.9003 Br  0  0  0  0  0  0  0  0  0  0  0  0
    8.5617   13.6996   24.1604 H   0  0  0  0  0  0  0  0  0  0  0  0
    7.7200    8.7622   24.5676 H   0  0  0  0  0  0  0  0  0  0  0  0
   12.6821   14.5150   22.3310 H   0  0  0  0  0  0  0  0  0  0  0  0
   11.7183   13.6157   21.1370 H   0  0  0  0  0  0  0  0  0  0  0  0
    6.2664   13.8054   25.7492 H   0  0  0  0  0  0  0  0  0  0  0  0
    5.5658    9.6644   26.0886 H   0  0  0  0  0  0  0  0  0  0  0  0
   10.6396   11.6339   22.1028 H   0  0  0  0  0  0  0  0  0  0  0  0
  1  3  2  0  0  0  0
  1  5  1  0  0  0  0
  2  4  2  0  0  0  0
  2  6  1  0  0  0  0
  3  4  1  0  0  0  0
  3 10  1  0  0  0  0
  4 11  1  0  0  0  0
  5  6  2  0  0  0  0
  5 12  1  0  0  0  0
  6 16  1  0  0  0  0
  7 10  1  0  0  0  0
  7 11  1  0  0  0  0
  7 13  2  0  0  0  0
  8  9  1  0  0  0  0
  8 12  1  0  0  0  0
  8 14  2  0  0  0  0
  9 15  1  0  0  0  0
  1 17  1  0  0  0  0
  2 18  1  0  0  0  0
  9 19  1  0  0  0  0
  9 20  1  0  0  0  0
 10 21  1  0  0  0  0
 11 22  1  0  0  0  0
 12 23  1  0  0  0  0
M  END
> <Catalog ID>
Z57055814

> <MW>
302.941

> <MW (desalted)>
304.528

> <ClogP>
1.114

> <logS>
-4.04

> <HBD>
3

> <HBA>
2

> <TPSA>
70.23

> <RotBonds>
2

> <ROCS_ShapeQuery>
A71EV2A-x0451_0A_A71EV2A-x0310_0A_A71EV2A-x0416_0A_peptide

> <ROCS_TanimotoCombo>
0.457 

> <ROCS_ShapeTanimoto>
0.301 

> <ROCS_ColorTanimoto>
0.155 

> <ROCS_RefTversky>
0.266 

> <ROCS_RefColorTversky>
0.179 

> <ROCS_RefTverskyCombo>
0.445 

> <ROCS_FitTversky>
1.782 

> <ROCS_FitColorTversky>
0.539 

> <ROCS_FitTverskyCombo>
2.321 

> <ROCS_ColorScore>
-5.481

> <ROCS_Overlap>
1845.076

> <ROCS_Rank>
111                 

$$$$
untitled-dbase-566_54
  -OEChem-11112315393D

 32 33  0     0  0  0  0  0  0999 V2000
    3.6559   10.7888   26.0977 C   0  0  0  0  0  0  0  0  0  0  0  0
    4.6272   11.6531   26.6027 C   0  0  0  0  0  0  0  0  0  0  0  0
    3.9552    9.9577   25.0182 C   0  0  0  0  0  0  0  0  0  0  0  0
    5.8978   11.6864   26.0282 C   0  0  0  0  0  0  0  0  0  0  0  0
    5.2258    9.9910   24.4436 C   0  0  0  0  0  0  0  0  0  0  0  0
    6.1972   10.8553   24.9487 C   0  0  0  0  0  0  0  0  0  0  0  0
    9.2895   11.5354   23.3824 C   0  0  0  0  0  0  0  0  0  0  0  0
    9.3288   10.1773   23.7510 C   0  0  0  0  0  0  0  0  0  0  0  0
    8.0574   11.9705   23.8054 C   0  0  0  0  0  0  0  0  0  0  0  0
   10.8804   13.4355   23.2362 C   0  0  0  0  0  0  0  0  0  0  0  0
   10.4237    9.2138   23.5389 C   0  0  0  0  0  0  0  0  0  0  0  0
    7.4155   13.2982   23.7127 C   0  0  0  0  0  0  0  0  0  0  0  0
   11.8876   14.0031   22.2631 C   0  0  0  0  0  0  0  0  0  0  0  0
    8.2106    9.7762   24.3615 N   0  0  0  0  0  0  0  0  0  0  0  0
    7.4571   10.8888   24.3797 N   0  0  0  0  0  0  0  0  0  0  0  0
   10.2487   12.2839   22.7438 N   0  0  0  0  0  0  0  0  0  0  0  0
   10.6798   13.9925   24.3121 O   0  0  0  0  0  0  0  0  0  0  0  0
   11.0429   15.1655   21.2282 Cl  0  0  0  0  0  0  0  0  0  0  0  0
    2.6670   10.7612   26.5458 H   0  0  0  0  0  0  0  0  0  0  0  0
    4.3948   12.2993   27.4441 H   0  0  0  0  0  0  0  0  0  0  0  0
    3.1987    9.2838   24.6264 H   0  0  0  0  0  0  0  0  0  0  0  0
    6.6460   12.3642   26.4320 H   0  0  0  0  0  0  0  0  0  0  0  0
    5.4460    9.3372   23.6031 H   0  0  0  0  0  0  0  0  0  0  0  0
   11.1243    9.2112   24.3910 H   0  0  0  0  0  0  0  0  0  0  0  0
   10.0512    8.1823   23.4107 H   0  0  0  0  0  0  0  0  0  0  0  0
   11.0068    9.4404   22.6288 H   0  0  0  0  0  0  0  0  0  0  0  0
    6.8399   13.3950   22.7782 H   0  0  0  0  0  0  0  0  0  0  0  0
    6.7258   13.4823   24.5533 H   0  0  0  0  0  0  0  0  0  0  0  0
    8.1549   14.1162   23.7388 H   0  0  0  0  0  0  0  0  0  0  0  0
   12.3453   13.2368   21.6324 H   0  0  0  0  0  0  0  0  0  0  0  0
   12.6752   14.5229   22.8159 H   0  0  0  0  0  0  0  0  0  0  0  0
   10.5328   11.9672   21.8083 H   0  0  0  0  0  0  0  0  0  0  0  0
  1  2  1  0  0  0  0
  1  3  2  0  0  0  0
  2  4  2  0  0  0  0
  3  5  1  0  0  0  0
  4  6  1  0  0  0  0
  5  6  2  0  0  0  0
  6 15  1  0  0  0  0
  7  8  1  0  0  0  0
  7  9  2  0  0  0  0
  7 16  1  0  0  0  0
  8 11  1  0  0  0  0
  8 14  2  0  0  0  0
  9 12  1  0  0  0  0
  9 15  1  0  0  0  0
 10 13  1  0  0  0  0
 10 16  1  0  0  0  0
 10 17  2  0  0  0  0
 13 18  1  0  0  0  0
 14 15  1  0  0  0  0
  1 19  1  0  0  0  0
  2 20  1  0  0  0  0
  3 21  1  0  0  0  0
  4 22  1  0  0  0  0
  5 23  1  0  0  0  0
 11 24  1  0  0  0  0
 11 25  1  0  0  0  0
 11 26  1  0  0  0  0
 12 27  1  0  0  0  0
 12 28  1  0  0  0  0
 12 29  1  0  0  0  0
 13 30  1  0  0  0  0
 13 31  1  0  0  0  0
 16 32  1  0  0  0  0
M  END
> <Catalog ID>
Z56960241

> <MW>
263.083

> <MW (desalted)>
263.723

> <ClogP>
1.473

> <logS>
-2.53

> <HBD>
1

> <HBA>
2

> <TPSA>
46.92

> <RotBonds>
3

> <ROCS_ShapeQuery>
A71EV2A-x0451_0A_A71EV2A-x0310_0A_A71EV2A-x0416_0A_peptide

> <ROCS_TanimotoCombo>
0.457 

> <ROCS_ShapeTanimoto>
0.290 

> <ROCS_ColorTanimoto>
0.167 

> <ROCS_RefTversky>
0.261 

> <ROCS_RefColorTversky>
0.173 

> <ROCS_RefTverskyCombo>
0.434 

> <ROCS_FitTversky>
1.604 

> <ROCS_FitColorTversky>
0.830 

> <ROCS_FitTverskyCombo>
2.434 

> <ROCS_ColorScore>
-5.258

> <ROCS_Overlap>
1811.293

> <ROCS_Rank>
112                 

$$$$
untitled-dbase-678_44
  -OEChem-11112315393D

 34 36  0     0  0  0  0  0  0999 V2000
    7.2876    9.9360   25.9451 C   0  0  0  0  0  0  0  0  0  0  0  0
    6.3396   10.8417   26.4278 C   0  0  0  0  0  0  0  0  0  0  0  0
    6.9687   12.4756   24.7476 C   0  0  0  0  0  0  0  0  0  0  0  0
    7.9356   11.5807   24.2417 C   0  0  0  0  0  0  0  0  0  0  0  0
    8.8888   11.6353   23.1750 C   0  0  0  0  0  0  0  0  0  0  0  0
    8.0684   10.3330   24.8533 C   0  0  0  0  0  0  0  0  0  0  0  0
    6.1805   12.0933   25.8390 C   0  0  0  0  0  0  0  0  0  0  0  0
    9.5589   10.4229   23.1644 C   0  0  0  0  0  0  0  0  0  0  0  0
   12.2727   15.4246   21.3206 C   0  0  0  0  0  0  0  0  0  0  0  0
   12.3757   14.7512   22.4683 C   0  0  0  0  0  0  0  0  0  0  0  0
   11.1789   14.0753   23.0086 C   0  0  0  0  0  0  0  0  0  0  0  0
    9.1361   12.7609   22.2285 C   0  0  0  0  0  0  0  0  0  0  0  0
   10.6331    9.9288   22.2549 C   0  0  0  0  0  0  0  0  0  0  0  0
   11.7973   10.9140   22.1181 C   0  0  0  0  0  0  0  0  0  0  0  0
   11.4318   12.2232   21.4076 C   0  0  0  0  0  0  0  0  0  0  0  0
    9.0576    9.6543   24.1821 N   0  0  0  0  0  0  0  0  0  0  0  0
   10.5717   13.0901   22.2259 N   0  0  0  0  0  0  0  0  0  0  0  0
   10.7812   14.4276   24.1208 O   0  0  0  0  0  0  0  0  0  0  0  0
    5.2631   12.9422   26.3217 F   0  0  0  0  0  0  0  0  0  0  0  0
    7.4113    8.9606   26.4038 H   0  0  0  0  0  0  0  0  0  0  0  0
    5.7187   10.5646   27.2757 H   0  0  0  0  0  0  0  0  0  0  0  0
    6.8290   13.4558   24.3008 H   0  0  0  0  0  0  0  0  0  0  0  0
   13.1159   15.9411   20.8742 H   0  0  0  0  0  0  0  0  0  0  0  0
   11.3223   15.4697   20.7995 H   0  0  0  0  0  0  0  0  0  0  0  0
   13.3061   14.6831   23.0167 H   0  0  0  0  0  0  0  0  0  0  0  0
    8.7958   12.5239   21.2181 H   0  0  0  0  0  0  0  0  0  0  0  0
    8.5747   13.6490   22.5424 H   0  0  0  0  0  0  0  0  0  0  0  0
   11.0024    8.9648   22.6260 H   0  0  0  0  0  0  0  0  0  0  0  0
   10.2177    9.7426   21.2565 H   0  0  0  0  0  0  0  0  0  0  0  0
   12.1436   11.1668   23.1282 H   0  0  0  0  0  0  0  0  0  0  0  0
   12.6454   10.4372   21.6101 H   0  0  0  0  0  0  0  0  0  0  0  0
   12.3296   12.7821   21.1192 H   0  0  0  0  0  0  0  0  0  0  0  0
   10.9053   11.9748   20.4788 H   0  0  0  0  0  0  0  0  0  0  0  0
    9.3729    8.7223   24.4133 H   0  0  0  0  0  0  0  0  0  0  0  0
  1  2  2  0  0  0  0
  1  6  1  0  0  0  0
  2  7  1  0  0  0  0
  3  4  1  0  0  0  0
  3  7  2  0  0  0  0
  4  5  1  0  0  0  0
  4  6  2  0  0  0  0
  5  8  2  0  0  0  0
  5 12  1  0  0  0  0
  6 16  1  0  0  0  0
  7 19  1  0  0  0  0
  8 13  1  0  0  0  0
  8 16  1  0  0  0  0
  9 10  2  0  0  0  0
 10 11  1  0  0  0  0
 11 17  1  0  0  0  0
 11 18  2  0  0  0  0
 12 17  1  0  0  0  0
 13 14  1  0  0  0  0
 14 15  1  0  0  0  0
 15 17  1  0  0  0  0
  1 20  1  0  0  0  0
  2 21  1  0  0  0  0
  3 22  1  0  0  0  0
  9 23  1  0  0  0  0
  9 24  1  0  0  0  0
 10 25  1  0  0  0  0
 12 26  1  0  0  0  0
 12 27  1  0  0  0  0
 13 28  1  0  0  0  0
 13 29  1  0  0  0  0
 14 30  1  0  0  0  0
 14 31  1  0  0  0  0
 15 32  1  0  0  0  0
 15 33  1  0  0  0  0
 16 34  1  0  0  0  0
M  END
> <Catalog ID>
Z2737383471

> <MW>
258.291

> <MW (desalted)>
258.291

> <ClogP>
2.096

> <logS>
-3.81

> <HBD>
1

> <HBA>
1

> <TPSA>
36.1

> <RotBonds>
1

> <ROCS_ShapeQuery>
A71EV2A-x0451_0A_A71EV2A-x0310_0A_A71EV2A-x0416_0A_peptide

> <ROCS_TanimotoCombo>
0.457 

> <ROCS_ShapeTanimoto>
0.317 

> <ROCS_ColorTanimoto>
0.140 

> <ROCS_RefTversky>
0.282 

> <ROCS_RefColorTversky>
0.152 

> <ROCS_RefTverskyCombo>
0.434 

> <ROCS_FitTversky>
1.648 

> <ROCS_FitColorTversky>
0.632 

> <ROCS_FitTverskyCombo>
2.280 

> <ROCS_ColorScore>
-4.621

> <ROCS_Overlap>
1956.850

> <ROCS_Rank>
113                 

$$$$
untitled-dbase-436_24
  -OEChem-11112315393D

 33 35  0     0  0  0  0  0  0999 V2000
   11.0995    8.1822   22.4616 C   0  0  0  0  0  0  0  0  0  0  0  0
    9.8641    7.5480   22.3283 C   0  0  0  0  0  0  0  0  0  0  0  0
   11.1578    9.5321   22.8021 C   0  0  0  0  0  0  0  0  0  0  0  0
    8.6811    8.2637   22.5267 C   0  0  0  0  0  0  0  0  0  0  0  0
    9.9702   10.2358   23.0144 C   0  0  0  0  0  0  0  0  0  0  0  0
    8.7240    9.6206   22.8663 C   0  0  0  0  0  0  0  0  0  0  0  0
    6.8760   11.9667   26.9822 C   0  0  0  0  0  0  0  0  0  0  0  0
    8.0317   12.2884   26.3841 C   0  0  0  0  0  0  0  0  0  0  0  0
    6.1626   10.6322   25.1206 C   0  0  0  0  0  0  0  0  0  0  0  0
   10.0283   11.6559   23.3813 C   0  0  0  0  0  0  0  0  0  0  0  0
    5.8958   11.1031   26.3508 C   0  0  0  0  0  0  0  0  0  0  0  0
    8.3223   11.7237   25.0115 C   0  0  0  0  0  0  0  0  0  0  0  0
   11.7613   15.5471   21.6802 C   0  0  0  0  0  0  0  0  0  0  0  0
   10.7375   14.7036   21.8410 C   0  0  0  0  0  0  0  0  0  0  0  0
   10.6689   13.8147   23.0303 C   0  0  0  0  0  0  0  0  0  0  0  0
    7.4663   10.4236   23.0346 C   0  0  0  0  0  0  0  0  0  0  0  0
    9.4996   12.0827   24.5683 N   0  0  0  0  0  0  0  0  0  0  0  0
   10.6531   12.5007   22.6283 N   0  0  0  0  0  0  0  0  0  0  0  0
    7.3316   10.9114   24.4103 N   0  0  0  0  0  0  0  0  0  0  0  0
   10.6339   14.2504   24.1760 O   0  0  0  0  0  0  0  0  0  0  0  0
    4.1380   10.6302   27.3151 I   0  0  0  0  0  0  0  0  0  0  0  0
   12.0164    7.6225   22.3014 H   0  0  0  0  0  0  0  0  0  0  0  0
    9.8216    6.4955   22.0629 H   0  0  0  0  0  0  0  0  0  0  0  0
   12.1243   10.0161   22.9102 H   0  0  0  0  0  0  0  0  0  0  0  0
    7.7283    7.7549   22.4055 H   0  0  0  0  0  0  0  0  0  0  0  0
    6.6618   12.3639   27.9696 H   0  0  0  0  0  0  0  0  0  0  0  0
    8.7640   12.9313   26.8581 H   0  0  0  0  0  0  0  0  0  0  0  0
    5.4686    9.9914   24.5871 H   0  0  0  0  0  0  0  0  0  0  0  0
   11.8013   16.1915   20.8083 H   0  0  0  0  0  0  0  0  0  0  0  0
   12.5741   15.6218   22.3941 H   0  0  0  0  0  0  0  0  0  0  0  0
    9.9423   14.6564   21.1048 H   0  0  0  0  0  0  0  0  0  0  0  0
    7.4727   11.2737   22.3398 H   0  0  0  0  0  0  0  0  0  0  0  0
    6.6013    9.8154   22.7399 H   0  0  0  0  0  0  0  0  0  0  0  0
  1  2  1  0  0  0  0
  1  3  2  0  0  0  0
  2  4  2  0  0  0  0
  3  5  1  0  0  0  0
  4  6  1  0  0  0  0
  5  6  2  0  0  0  0
  5 10  1  0  0  0  0
  6 16  1  0  0  0  0
  7  8  2  0  0  0  0
  7 11  1  0  0  0  0
  8 12  1  0  0  0  0
  9 11  2  0  0  0  0
  9 19  1  0  0  0  0
 10 17  1  0  0  0  0
 10 18  2  3  0  0  0
 11 21  1  0  0  0  0
 12 17  2  0  0  0  0
 12 19  1  0  0  0  0
 13 14  2  0  0  0  0
 14 15  1  0  0  0  0
 15 18  1  0  0  0  0
 15 20  2  0  0  0  0
 16 19  1  0  0  0  0
  1 22  1  0  0  0  0
  2 23  1  0  0  0  0
  3 24  1  0  0  0  0
  4 25  1  0  0  0  0
  7 26  1  0  0  0  0
  8 27  1  0  0  0  0
  9 28  1  0  0  0  0
 13 29  1  0  0  0  0
 13 30  1  0  0  0  0
 14 31  1  0  0  0  0
 16 32  1  0  0  0  0
 16 33  1  0  0  0  0
M  END
> <Catalog ID>
Z56782097

> <MW>
389.19

> <MW (desalted)>
389.19

> <ClogP>
5.35

> <logS>
-5.57

> <HBD>
0

> <HBA>
4

> <TPSA>
45.03

> <RotBonds>
1

> <ROCS_ShapeQuery>
A71EV2A-x0451_0A_A71EV2A-x0310_0A_A71EV2A-x0416_0A_peptide

> <ROCS_TanimotoCombo>
0.457 

> <ROCS_ShapeTanimoto>
0.320 

> <ROCS_ColorTanimoto>
0.136 

> <ROCS_RefTversky>
0.287 

> <ROCS_RefColorTversky>
0.156 

> <ROCS_RefTverskyCombo>
0.443 

> <ROCS_FitTversky>
1.571 

> <ROCS_FitColorTversky>
0.518 

> <ROCS_FitTverskyCombo>
2.088 

> <ROCS_ColorScore>
-4.758

> <ROCS_Overlap>
1993.240

> <ROCS_Rank>
114                 

$$$$
untitled-dbase-355_149
  -OEChem-11112315393D

 28 29  0     0  0  0  0  0  0999 V2000
    6.4311   12.9594   25.4426 C   0  0  0  0  0  0  0  0  0  0  0  0
    6.3839   11.7994   26.2344 C   0  0  0  0  0  0  0  0  0  0  0  0
    7.3218   13.0607   24.3656 C   0  0  0  0  0  0  0  0  0  0  0  0
    7.2251   10.7230   25.9628 C   0  0  0  0  0  0  0  0  0  0  0  0
    8.1632   11.9928   24.0883 C   0  0  0  0  0  0  0  0  0  0  0  0
    8.0882   10.8591   24.8947 C   0  0  0  0  0  0  0  0  0  0  0  0
    9.8054   10.6741   23.0578 C   0  0  0  0  0  0  0  0  0  0  0  0
    9.1701   11.8590   23.0273 C   0  0  0  0  0  0  0  0  0  0  0  0
   13.1885   15.4343   23.4440 C   0  0  0  0  0  0  0  0  0  0  0  0
   12.7675   14.1838   23.2313 C   0  0  0  0  0  0  0  0  0  0  0  0
   11.3255   13.8429   23.3595 C   0  0  0  0  0  0  0  0  0  0  0  0
    9.4229   12.9488   22.0457 C   0  0  0  0  0  0  0  0  0  0  0  0
   10.7980   13.3462   22.1750 N   0  0  0  0  0  0  0  0  0  0  0  0
   10.7009   13.9972   24.4041 O   0  0  0  0  0  0  0  0  0  0  0  0
   10.2468    9.5277   25.3760 O   0  0  0  0  0  0  0  0  0  0  0  0
    8.4827    8.5429   23.8262 O   0  0  0  0  0  0  0  0  0  0  0  0
    9.2321    9.6639   24.3526 S   0  0  0  0  0  0  0  0  0  0  0  0
    5.7671   13.7897   25.6690 H   0  0  0  0  0  0  0  0  0  0  0  0
    5.6850   11.7445   27.0645 H   0  0  0  0  0  0  0  0  0  0  0  0
    7.3405   13.9668   23.7683 H   0  0  0  0  0  0  0  0  0  0  0  0
    7.1968    9.8242   26.5670 H   0  0  0  0  0  0  0  0  0  0  0  0
   10.5817   10.3572   22.3754 H   0  0  0  0  0  0  0  0  0  0  0  0
   14.2422   15.6751   23.3497 H   0  0  0  0  0  0  0  0  0  0  0  0
   12.5142   16.2403   23.7118 H   0  0  0  0  0  0  0  0  0  0  0  0
   13.4753   13.4065   22.9646 H   0  0  0  0  0  0  0  0  0  0  0  0
    8.7605   13.7891   22.2646 H   0  0  0  0  0  0  0  0  0  0  0  0
    9.2262   12.5763   21.0379 H   0  0  0  0  0  0  0  0  0  0  0  0
   11.3922   13.2846   21.3488 H   0  0  0  0  0  0  0  0  0  0  0  0
  1  2  1  0  0  0  0
  1  3  2  0  0  0  0
  2  4  2  0  0  0  0
  3  5  1  0  0  0  0
  4  6  1  0  0  0  0
  5  6  2  0  0  0  0
  5  8  1  0  0  0  0
  6 17  1  0  0  0  0
  7  8  2  0  0  0  0
  7 17  1  0  0  0  0
  8 12  1  0  0  0  0
  9 10  2  0  0  0  0
 10 11  1  0  0  0  0
 11 13  1  0  0  0  0
 11 14  2  0  0  0  0
 12 13  1  0  0  0  0
 15 17  2  0  0  0  0
 16 17  2  0  0  0  0
  1 18  1  0  0  0  0
  2 19  1  0  0  0  0
  3 20  1  0  0  0  0
  4 21  1  0  0  0  0
  7 22  1  0  0  0  0
  9 23  1  0  0  0  0
  9 24  1  0  0  0  0
 10 25  1  0  0  0  0
 12 26  1  0  0  0  0
 12 27  1  0  0  0  0
 13 28  1  0  0  0  0
M  END
> <Catalog ID>
Z2285377996

> <MW>
249.286

> <MW (desalted)>
249.286

> <ClogP>
-0.255

> <logS>
-3.07

> <HBD>
1

> <HBA>
3

> <TPSA>
63.24

> <RotBonds>
3

> <ROCS_ShapeQuery>
A71EV2A-x0451_0A_A71EV2A-x0310_0A_A71EV2A-x0416_0A_peptide

> <ROCS_TanimotoCombo>
0.457 

> <ROCS_ShapeTanimoto>
0.295 

> <ROCS_ColorTanimoto>
0.162 

> <ROCS_RefTversky>
0.263 

> <ROCS_RefColorTversky>
0.177 

> <ROCS_RefTverskyCombo>
0.440 

> <ROCS_FitTversky>
1.708 

> <ROCS_FitColorTversky>
0.654 

> <ROCS_FitTverskyCombo>
2.362 

> <ROCS_ColorScore>
-5.392

> <ROCS_Overlap>
1820.792

> <ROCS_Rank>
115                 

$$$$
untitled-dbase-5_26
  -OEChem-11112315393D

 27 27  0     0  0  0  0  0  0999 V2000
    8.7458    9.3266   23.7321 C   0  0  0  0  0  0  0  0  0  0  0  0
    7.7011    9.8793   24.4729 C   0  0  0  0  0  0  0  0  0  0  0  0
    8.5619   12.0938   24.0345 C   0  0  0  0  0  0  0  0  0  0  0  0
    9.6986   10.1575   23.1426 C   0  0  0  0  0  0  0  0  0  0  0  0
    9.6066   11.5411   23.2938 C   0  0  0  0  0  0  0  0  0  0  0  0
    7.6091   11.2629   24.6241 C   0  0  0  0  0  0  0  0  0  0  0  0
   10.9495   13.6269   23.2007 C   0  0  0  0  0  0  0  0  0  0  0  0
   10.8067    9.5377   22.3548 C   0  0  0  0  0  0  0  0  0  0  0  0
   11.9905   14.2706   22.3145 C   0  0  0  0  0  0  0  0  0  0  0  0
    6.6544   13.6207   25.4205 N   0  0  0  0  0  0  0  0  0  0  0  0
   10.5512   12.3896   22.7109 N   0  0  0  0  0  0  0  0  0  0  0  0
   10.5465   14.2100   24.2036 O   0  0  0  0  0  0  0  0  0  0  0  0
    5.0511   11.6826   24.8559 O   0  0  0  0  0  0  0  0  0  0  0  0
    6.4573   11.5514   26.9423 O   0  0  0  0  0  0  0  0  0  0  0  0
    6.3012   11.9541   25.5516 S   0  0  0  0  0  0  0  0  0  0  0  0
   11.3357   15.8143   21.7455 Cl  0  0  0  0  0  0  0  0  0  0  0  0
    8.8085    8.2474   23.6202 H   0  0  0  0  0  0  0  0  0  0  0  0
    6.9643    9.2228   24.9279 H   0  0  0  0  0  0  0  0  0  0  0  0
    8.4890   13.1726   24.1532 H   0  0  0  0  0  0  0  0  0  0  0  0
   10.5135    9.4353   21.3038 H   0  0  0  0  0  0  0  0  0  0  0  0
   11.7175   10.1464   22.4065 H   0  0  0  0  0  0  0  0  0  0  0  0
   11.0626    8.5452   22.7454 H   0  0  0  0  0  0  0  0  0  0  0  0
   12.2478   13.6558   21.4483 H   0  0  0  0  0  0  0  0  0  0  0  0
   12.8974   14.4594   22.8960 H   0  0  0  0  0  0  0  0  0  0  0  0
    6.0428   14.1979   24.8304 H   0  0  0  0  0  0  0  0  0  0  0  0
    7.0047   14.1063   26.2552 H   0  0  0  0  0  0  0  0  0  0  0  0
   10.9875   12.0720   21.8483 H   0  0  0  0  0  0  0  0  0  0  0  0
  1  2  2  0  0  0  0
  1  4  1  0  0  0  0
  2  6  1  0  0  0  0
  3  5  1  0  0  0  0
  3  6  2  0  0  0  0
  4  5  2  0  0  0  0
  4  8  1  0  0  0  0
  5 11  1  0  0  0  0
  6 15  1  0  0  0  0
  7  9  1  0  0  0  0
  7 11  1  0  0  0  0
  7 12  2  0  0  0  0
  9 16  1  0  0  0  0
 10 15  1  0  0  0  0
 13 15  2  0  0  0  0
 14 15  2  0  0  0  0
  1 17  1  0  0  0  0
  2 18  1  0  0  0  0
  3 19  1  0  0  0  0
  8 20  1  0  0  0  0
  8 21  1  0  0  0  0
  8 22  1  0  0  0  0
  9 23  1  0  0  0  0
  9 24  1  0  0  0  0
 10 25  1  0  0  0  0
 10 26  1  0  0  0  0
 11 27  1  0  0  0  0
M  END
> <Catalog ID>
Z445405276

> <MW>
262.018

> <MW (desalted)>
262.713

> <ClogP>
0.108

> <logS>
-2.393

> <HBD>
2

> <HBA>
3

> <TPSA>
89.26

> <RotBonds>
3

> <ROCS_ShapeQuery>
A71EV2A-x0451_0A_A71EV2A-x0310_0A_A71EV2A-x0416_0A_peptide

> <ROCS_TanimotoCombo>
0.456 

> <ROCS_ShapeTanimoto>
0.304 

> <ROCS_ColorTanimoto>
0.152 

> <ROCS_RefTversky>
0.266 

> <ROCS_RefColorTversky>
0.164 

> <ROCS_RefTverskyCombo>
0.430 

> <ROCS_FitTversky>
1.855 

> <ROCS_FitColorTversky>
0.684 

> <ROCS_FitTverskyCombo>
2.539 

> <ROCS_ColorScore>
-4.986

> <ROCS_Overlap>
1846.179

> <ROCS_Rank>
116                 

$$$$
untitled-dbase-430_17
  -OEChem-11112315393D

 31 31  0     0  0  0  0  0  0999 V2000
    8.1229   11.9995   24.1374 C   0  0  0  0  0  0  0  0  0  0  0  0
    7.4965   10.8231   24.5907 C   0  0  0  0  0  0  0  0  0  0  0  0
    9.2465   11.5594   23.4815 C   0  0  0  0  0  0  0  0  0  0  0  0
   10.6903   13.5496   23.1387 C   0  0  0  0  0  0  0  0  0  0  0  0
    6.2455   10.7125   25.3598 C   0  0  0  0  0  0  0  0  0  0  0  0
   11.6148    9.5345   23.6444 C   0  0  0  0  0  0  0  0  0  0  0  0
   10.3010    9.3923   21.4919 C   0  0  0  0  0  0  0  0  0  0  0  0
    9.9078    7.7586   23.3210 C   0  0  0  0  0  0  0  0  0  0  0  0
   11.2024   14.2841   21.9215 C   0  0  0  0  0  0  0  0  0  0  0  0
   10.2280    9.2454   23.0282 C   0  0  0  0  0  0  0  0  0  0  0  0
    8.1665    9.7186   24.2512 N   0  0  0  0  0  0  0  0  0  0  0  0
    9.2255   10.1991   23.5777 N   0  0  0  0  0  0  0  0  0  0  0  0
   10.2346   12.2540   22.8376 N   0  0  0  0  0  0  0  0  0  0  0  0
   10.6860   14.1008   24.2360 O   0  0  0  0  0  0  0  0  0  0  0  0
   12.4681   15.4006   22.4574 Cl  0  0  0  0  0  0  0  0  0  0  0  0
    7.8033   13.0236   24.2685 H   0  0  0  0  0  0  0  0  0  0  0  0
    5.3708   10.6291   24.6922 H   0  0  0  0  0  0  0  0  0  0  0  0
    6.2412    9.8305   26.0248 H   0  0  0  0  0  0  0  0  0  0  0  0
    6.0807   11.5859   26.0160 H   0  0  0  0  0  0  0  0  0  0  0  0
   11.5906    9.4368   24.7359 H   0  0  0  0  0  0  0  0  0  0  0  0
   12.3833    8.8447   23.2793 H   0  0  0  0  0  0  0  0  0  0  0  0
   11.9459   10.5520   23.4060 H   0  0  0  0  0  0  0  0  0  0  0  0
    9.3375    9.1960   21.0098 H   0  0  0  0  0  0  0  0  0  0  0  0
   10.6001   10.4072   21.2055 H   0  0  0  0  0  0  0  0  0  0  0  0
   11.0309    8.6946   21.0651 H   0  0  0  0  0  0  0  0  0  0  0  0
    8.9304    7.4780   22.9102 H   0  0  0  0  0  0  0  0  0  0  0  0
   10.6485    7.0890   22.8687 H   0  0  0  0  0  0  0  0  0  0  0  0
    9.8721    7.5576   24.3980 H   0  0  0  0  0  0  0  0  0  0  0  0
   10.4218   14.8543   21.4115 H   0  0  0  0  0  0  0  0  0  0  0  0
   11.6332   13.5665   21.2176 H   0  0  0  0  0  0  0  0  0  0  0  0
   10.6932   11.7768   22.0483 H   0  0  0  0  0  0  0  0  0  0  0  0
  1  2  1  0  0  0  0
  1  3  2  0  0  0  0
  2  5  1  0  0  0  0
  2 11  2  0  0  0  0
  3 12  1  0  0  0  0
  3 13  1  0  0  0  0
  4  9  1  0  0  0  0
  4 13  1  0  0  0  0
  4 14  2  0  0  0  0
  6 10  1  0  0  0  0
  7 10  1  0  0  0  0
  8 10  1  0  0  0  0
  9 15  1  0  0  0  0
 10 12  1  0  0  0  0
 11 12  1  0  0  0  0
  1 16  1  0  0  0  0
  5 17  1  0  0  0  0
  5 18  1  0  0  0  0
  5 19  1  0  0  0  0
  6 20  1  0  0  0  0
  6 21  1  0  0  0  0
  6 22  1  0  0  0  0
  7 23  1  0  0  0  0
  7 24  1  0  0  0  0
  7 25  1  0  0  0  0
  8 26  1  0  0  0  0
  8 27  1  0  0  0  0
  8 28  1  0  0  0  0
  9 29  1  0  0  0  0
  9 30  1  0  0  0  0
 13 31  1  0  0  0  0
M  END
> <Catalog ID>
Z561567082

> <MW>
229.098

> <MW (desalted)>
229.707

> <ClogP>
1.802

> <logS>
-1.834

> <HBD>
1

> <HBA>
2

> <TPSA>
46.92

> <RotBonds>
3

> <ROCS_ShapeQuery>
A71EV2A-x0451_0A_A71EV2A-x0310_0A_A71EV2A-x0416_0A_peptide

> <ROCS_TanimotoCombo>
0.456 

> <ROCS_ShapeTanimoto>
0.288 

> <ROCS_ColorTanimoto>
0.168 

> <ROCS_RefTversky>
0.255 

> <ROCS_RefColorTversky>
0.174 

> <ROCS_RefTverskyCombo>
0.429 

> <ROCS_FitTversky>
1.814 

> <ROCS_FitColorTversky>
0.834 

> <ROCS_FitTverskyCombo>
2.649 

> <ROCS_ColorScore>
-5.286

> <ROCS_Overlap>
1765.490

> <ROCS_Rank>
117                 

$$$$
untitled-dbase-160_388
  -OEChem-11112315393D

 38 40  0     0  0  0  0  0  0999 V2000
   12.9687   12.2131   24.0252 C   0  0  0  0  0  0  0  0  0  0  0  0
   11.8027   11.4952   24.2913 C   0  0  0  0  0  0  0  0  0  0  0  0
   12.9396   13.2847   23.1327 C   0  0  0  0  0  0  0  0  0  0  0  0
   10.5786   12.9204   22.7722 C   0  0  0  0  0  0  0  0  0  0  0  0
   10.6077   11.8488   23.6648 C   0  0  0  0  0  0  0  0  0  0  0  0
   11.7446   13.6383   22.5062 C   0  0  0  0  0  0  0  0  0  0  0  0
    9.4007   11.1065   23.9407 C   0  0  0  0  0  0  0  0  0  0  0  0
    7.3759   10.5867   24.5647 C   0  0  0  0  0  0  0  0  0  0  0  0
   12.0446   16.0281   21.9048 C   0  0  0  0  0  0  0  0  0  0  0  0
    5.9974   10.7177   25.0989 C   0  0  0  0  0  0  0  0  0  0  0  0
    5.9711   11.2295   26.5382 C   0  0  0  0  0  0  0  0  0  0  0  0
    6.2469   12.7297   26.6718 C   0  0  0  0  0  0  0  0  0  0  0  0
    7.6753   13.1585   26.3270 C   0  0  0  0  0  0  0  0  0  0  0  0
    8.0298   12.9991   24.8509 C   0  0  0  0  0  0  0  0  0  0  0  0
   11.9011   16.9232   20.6958 C   0  0  0  0  0  0  0  0  0  0  0  0
    9.2381    9.8217   23.7216 N   0  0  0  0  0  0  0  0  0  0  0  0
    7.9580    9.4918   24.1158 N   0  0  0  0  0  0  0  0  0  0  0  0
    8.2594   11.6256   24.4672 N   0  0  0  0  0  0  0  0  0  0  0  0
   11.7166   14.7091   21.6124 N   0  0  0  0  0  0  0  0  0  0  0  0
   12.3950   16.4990   22.9835 O   0  0  0  0  0  0  0  0  0  0  0  0
   13.4535   16.9331   19.8440 Cl  0  0  0  0  0  0  0  0  0  0  0  0
   13.8993   11.9375   24.5131 H   0  0  0  0  0  0  0  0  0  0  0  0
   11.8414   10.6624   24.9897 H   0  0  0  0  0  0  0  0  0  0  0  0
   13.8548   13.8362   22.9324 H   0  0  0  0  0  0  0  0  0  0  0  0
    9.6484   13.2006   22.2814 H   0  0  0  0  0  0  0  0  0  0  0  0
    5.4017   11.3669   24.4467 H   0  0  0  0  0  0  0  0  0  0  0  0
    5.5236    9.7285   25.0732 H   0  0  0  0  0  0  0  0  0  0  0  0
    4.9696   11.0408   26.9450 H   0  0  0  0  0  0  0  0  0  0  0  0
    6.6748   10.6646   27.1625 H   0  0  0  0  0  0  0  0  0  0  0  0
    5.5330   13.2933   26.0587 H   0  0  0  0  0  0  0  0  0  0  0  0
    6.0521   13.0162   27.7132 H   0  0  0  0  0  0  0  0  0  0  0  0
    7.7743   14.2198   26.5868 H   0  0  0  0  0  0  0  0  0  0  0  0
    8.3897   12.6114   26.9543 H   0  0  0  0  0  0  0  0  0  0  0  0
    7.2349   13.3895   24.2048 H   0  0  0  0  0  0  0  0  0  0  0  0
    8.9326   13.5802   24.6382 H   0  0  0  0  0  0  0  0  0  0  0  0
   11.6363   17.9505   20.9587 H   0  0  0  0  0  0  0  0  0  0  0  0
   11.1317   16.5184   20.0323 H   0  0  0  0  0  0  0  0  0  0  0  0
   11.4293   14.5057   20.6569 H   0  0  0  0  0  0  0  0  0  0  0  0
  1  2  1  0  0  0  0
  1  3  2  0  0  0  0
  2  5  2  0  0  0  0
  3  6  1  0  0  0  0
  4  5  1  0  0  0  0
  4  6  2  0  0  0  0
  5  7  1  0  0  0  0
  6 19  1  0  0  0  0
  7 16  2  0  0  0  0
  7 18  1  0  0  0  0
  8 10  1  0  0  0  0
  8 17  2  0  0  0  0
  8 18  1  0  0  0  0
  9 15  1  0  0  0  0
  9 19  1  0  0  0  0
  9 20  2  0  0  0  0
 10 11  1  0  0  0  0
 11 12  1  0  0  0  0
 12 13  1  0  0  0  0
 13 14  1  0  0  0  0
 14 18  1  0  0  0  0
 15 21  1  0  0  0  0
 16 17  1  0  0  0  0
  1 22  1  0  0  0  0
  2 23  1  0  0  0  0
  3 24  1  0  0  0  0
  4 25  1  0  0  0  0
 10 26  1  0  0  0  0
 10 27  1  0  0  0  0
 11 28  1  0  0  0  0
 11 29  1  0  0  0  0
 12 30  1  0  0  0  0
 12 31  1  0  0  0  0
 13 32  1  0  0  0  0
 13 33  1  0  0  0  0
 14 34  1  0  0  0  0
 14 35  1  0  0  0  0
 15 36  1  0  0  0  0
 15 37  1  0  0  0  0
 19 38  1  0  0  0  0
M  END
> <Catalog ID>
Z219182106

> <MW>
304.109

> <MW (desalted)>
304.775

> <ClogP>
2.3

> <logS>
-3.57

> <HBD>
1

> <HBA>
3

> <TPSA>
59.81

> <RotBonds>
3

> <ROCS_ShapeQuery>
A71EV2A-x0451_0A_A71EV2A-x0310_0A_A71EV2A-x0416_0A_peptide

> <ROCS_TanimotoCombo>
0.456 

> <ROCS_ShapeTanimoto>
0.339 

> <ROCS_ColorTanimoto>
0.116 

> <ROCS_RefTversky>
0.299 

> <ROCS_RefColorTversky>
0.133 

> <ROCS_RefTverskyCombo>
0.433 

> <ROCS_FitTversky>
1.649 

> <ROCS_FitColorTversky>
0.477 

> <ROCS_FitTverskyCombo>
2.126 

> <ROCS_ColorScore>
-4.065

> <ROCS_Overlap>
2078.092

> <ROCS_Rank>
118                 

$$$$
untitled-dbase-139_153
  -OEChem-11112315393D

 38 40  0     1  0  0  0  0  0999 V2000
    7.5825   10.4747   24.6962 C   0  0  0  0  0  0  0  0  0  0  0  0
    9.1165   11.8081   23.8948 C   0  0  0  0  0  0  0  0  0  0  0  0
    6.4034   10.1720   25.4295 C   0  0  0  0  0  0  0  0  0  0  0  0
    5.7289   11.1671   26.0387 C   0  0  0  0  0  0  0  0  0  0  0  0
    7.2944   12.8380   25.2710 C   0  0  0  0  0  0  0  0  0  0  0  0
    6.1757   12.5596   25.9682 C   0  0  0  0  0  0  0  0  0  0  0  0
   14.1864   14.8338   20.6909 C   0  0  0  0  0  0  0  0  0  0  0  0
   13.9942   15.1858   21.9639 C   0  0  0  0  0  0  0  0  0  0  0  0
   13.2194   14.2876   22.8429 C   0  0  0  0  0  0  0  0  0  0  0  0
    9.8574   15.3664   22.5196 C   0  0  0  0  0  0  0  0  0  0  0  0
    9.0377   14.1182   22.8560 C   0  0  0  0  0  0  0  0  0  0  0  0
   11.1280   15.0088   21.7513 C   0  0  0  0  0  0  0  0  0  0  0  0
   11.1690   12.7617   22.7556 C   0  0  0  0  0  0  0  0  0  0  0  0
    9.9033   13.0645   23.5761 C   0  0  2  0  0  0  0  0  0  0  0  0
    5.3604   13.5920   26.6777 C   0  0  0  0  0  0  0  0  0  0  0  0
    8.4349    9.7421   24.0117 N   0  0  0  0  0  0  0  0  0  0  0  0
    9.4037   10.5859   23.5057 N   0  0  0  0  0  0  0  0  0  0  0  0
    7.9781   11.8011   24.6490 N   0  0  0  0  0  0  0  0  0  0  0  0
   11.9044   14.0066   22.4849 N   0  0  0  0  0  0  0  0  0  0  0  0
   13.7868   13.8358   23.8389 O   0  0  0  0  0  0  0  0  0  0  0  0
    4.2975   13.0325   27.2930 F   0  0  0  0  0  0  0  0  0  0  0  0
    6.0910   14.2286   27.6172 F   0  0  0  0  0  0  0  0  0  0  0  0
    4.8948   14.5234   25.8188 F   0  0  0  0  0  0  0  0  0  0  0  0
    6.0604    9.1455   25.4919 H   0  0  0  0  0  0  0  0  0  0  0  0
    4.8277   10.9469   26.6025 H   0  0  0  0  0  0  0  0  0  0  0  0
    7.6917   13.8410   25.1701 H   0  0  0  0  0  0  0  0  0  0  0  0
   14.7467   15.4516   19.9971 H   0  0  0  0  0  0  0  0  0  0  0  0
   13.7770   13.9016   20.3162 H   0  0  0  0  0  0  0  0  0  0  0  0
   14.3870   16.1069   22.3742 H   0  0  0  0  0  0  0  0  0  0  0  0
    9.2482   16.0553   21.9241 H   0  0  0  0  0  0  0  0  0  0  0  0
   10.1236   15.8917   23.4453 H   0  0  0  0  0  0  0  0  0  0  0  0
    8.1820   14.3986   23.4823 H   0  0  0  0  0  0  0  0  0  0  0  0
    8.6240   13.6979   21.9293 H   0  0  0  0  0  0  0  0  0  0  0  0
   10.8810   14.5854   20.7708 H   0  0  0  0  0  0  0  0  0  0  0  0
   11.7189   15.9139   21.5788 H   0  0  0  0  0  0  0  0  0  0  0  0
   11.7873   12.0149   23.2570 H   0  0  0  0  0  0  0  0  0  0  0  0
   10.9044   12.3293   21.7810 H   0  0  0  0  0  0  0  0  0  0  0  0
   10.2234   13.4914   24.5575 H   0  0  0  0  0  0  0  0  0  0  0  0
  1  3  1  0  0  0  0
  1 16  2  0  0  0  0
  1 18  1  0  0  0  0
  2 14  1  0  0  0  0
  2 17  2  0  0  0  0
  2 18  1  0  0  0  0
  3  4  2  0  0  0  0
  4  6  1  0  0  0  0
  5  6  2  0  0  0  0
  5 18  1  0  0  0  0
  6 15  1  0  0  0  0
  7  8  2  0  0  0  0
  8  9  1  0  0  0  0
  9 19  1  0  0  0  0
  9 20  2  0  0  0  0
 10 11  1  0  0  0  0
 10 12  1  0  0  0  0
 11 14  1  0  0  0  0
 12 19  1  0  0  0  0
 13 14  1  0  0  0  0
 13 19  1  0  0  0  0
 15 21  1  0  0  0  0
 15 22  1  0  0  0  0
 15 23  1  0  0  0  0
 16 17  1  0  0  0  0
  3 24  1  0  0  0  0
  4 25  1  0  0  0  0
  5 26  1  0  0  0  0
  7 27  1  0  0  0  0
  7 28  1  0  0  0  0
  8 29  1  0  0  0  0
 10 30  1  0  0  0  0
 10 31  1  0  0  0  0
 11 32  1  0  0  0  0
 11 33  1  0  0  0  0
 12 34  1  0  0  0  0
 12 35  1  0  0  0  0
 13 36  1  0  0  0  0
 13 37  1  0  0  0  0
 14 38  1  0  0  0  0
M  END
> <Catalog ID>
Z2285377314

> <MW>
324.301

> <MW (desalted)>
324.301

> <ClogP>
1.46

> <logS>
-3.644

> <HBD>
0

> <HBA>
3

> <TPSA>
50.5

> <RotBonds>
3

> <ROCS_ShapeQuery>
A71EV2A-x0451_0A_A71EV2A-x0310_0A_A71EV2A-x0416_0A_peptide

> <ROCS_TanimotoCombo>
0.455 

> <ROCS_ShapeTanimoto>
0.339 

> <ROCS_ColorTanimoto>
0.117 

> <ROCS_RefTversky>
0.303 

> <ROCS_RefColorTversky>
0.134 

> <ROCS_RefTverskyCombo>
0.437 

> <ROCS_FitTversky>
1.537 

> <ROCS_FitColorTversky>
0.477 

> <ROCS_FitTverskyCombo>
2.014 

> <ROCS_ColorScore>
-4.076

> <ROCS_Overlap>
2105.422

> <ROCS_Rank>
119                 

$$$$
untitled-dbase-199_7
  -OEChem-11112315393D

 25 26  0     0  0  0  0  0  0999 V2000
    7.7838   12.9559   25.2175 C   0  0  0  0  0  0  0  0  0  0  0  0
    6.5963   12.6817   25.9035 C   0  0  0  0  0  0  0  0  0  0  0  0
    6.6454   10.3729   25.1585 C   0  0  0  0  0  0  0  0  0  0  0  0
    7.8226   10.6532   24.4813 C   0  0  0  0  0  0  0  0  0  0  0  0
    8.3890   11.9292   24.5075 C   0  0  0  0  0  0  0  0  0  0  0  0
    6.0305   11.3996   25.8744 C   0  0  0  0  0  0  0  0  0  0  0  0
   10.3996   13.0456   23.5468 C   0  0  0  0  0  0  0  0  0  0  0  0
    8.6350    9.7050   23.6619 C   0  0  0  0  0  0  0  0  0  0  0  0
    9.7893   10.5943   23.1873 C   0  0  0  0  0  0  0  0  0  0  0  0
   11.1366   13.0571   22.2282 C   0  0  0  0  0  0  0  0  0  0  0  0
    9.5746   11.9468   23.7436 N   0  0  0  0  0  0  0  0  0  0  0  0
    4.8242   11.1454   26.5796 N   0  3  0  0  0  0  0  0  0  0  0  0
    4.2853   12.0806   27.2192 O   0  5  0  0  0  0  0  0  0  0  0  0
   10.5669   13.9736   24.3384 O   0  0  0  0  0  0  0  0  0  0  0  0
    4.3308    9.9923   26.5439 O   0  0  0  0  0  0  0  0  0  0  0  0
   11.3351   14.7467   21.7800 Cl  0  0  0  0  0  0  0  0  0  0  0  0
    8.1918   13.9581   25.2610 H   0  0  0  0  0  0  0  0  0  0  0  0
    6.1155   13.4816   26.4627 H   0  0  0  0  0  0  0  0  0  0  0  0
    6.2187    9.3748   25.1275 H   0  0  0  0  0  0  0  0  0  0  0  0
    9.0004    8.8743   24.2732 H   0  0  0  0  0  0  0  0  0  0  0  0
    8.0548    9.3247   22.8157 H   0  0  0  0  0  0  0  0  0  0  0  0
   10.7561   10.2136   23.5348 H   0  0  0  0  0  0  0  0  0  0  0  0
    9.8219   10.6579   22.0940 H   0  0  0  0  0  0  0  0  0  0  0  0
   10.5358   12.5424   21.4884 H   0  0  0  0  0  0  0  0  0  0  0  0
   12.1043   12.5906   22.3656 H   0  0  0  0  0  0  0  0  0  0  0  0
  1  2  2  0  0  0  0
  1  5  1  0  0  0  0
  2  6  1  0  0  0  0
  3  4  1  0  0  0  0
  3  6  2  0  0  0  0
  4  5  2  0  0  0  0
  4  8  1  0  0  0  0
  5 11  1  0  0  0  0
  6 12  1  0  0  0  0
  7 10  1  0  0  0  0
  7 11  1  0  0  0  0
  7 14  2  0  0  0  0
  8  9  1  0  0  0  0
  9 11  1  0  0  0  0
 10 16  1  0  0  0  0
 12 13  1  0  0  0  0
 12 15  2  0  0  0  0
  1 17  1  0  0  0  0
  2 18  1  0  0  0  0
  3 19  1  0  0  0  0
  8 20  1  0  0  0  0
  8 21  1  0  0  0  0
  9 22  1  0  0  0  0
  9 23  1  0  0  0  0
 10 24  1  0  0  0  0
 10 25  1  0  0  0  0
M  CHG  2  12   1  13  -1
M  END
> <Catalog ID>
Z165156694

> <MW>
240.03

> <MW (desalted)>
240.643

> <ClogP>
1.718

> <logS>
-3.31

> <HBD>
0

> <HBA>
3

> <TPSA>
63.45

> <RotBonds>
2

> <ROCS_ShapeQuery>
A71EV2A-x0451_0A_A71EV2A-x0310_0A_A71EV2A-x0416_0A_peptide

> <ROCS_TanimotoCombo>
0.455 

> <ROCS_ShapeTanimoto>
0.292 

> <ROCS_ColorTanimoto>
0.163 

> <ROCS_RefTversky>
0.260 

> <ROCS_RefColorTversky>
0.170 

> <ROCS_RefTverskyCombo>
0.430 

> <ROCS_FitTversky>
1.725 

> <ROCS_FitColorTversky>
0.811 

> <ROCS_FitTverskyCombo>
2.535 

> <ROCS_ColorScore>
-5.161

> <ROCS_Overlap>
1802.368

> <ROCS_Rank>
120                 

$$$$
untitled-dbase-541_37
  -OEChem-11112315393D

 24 24  0     0  0  0  0  0  0999 V2000
    7.7027    9.8801   24.4721 C   0  0  0  0  0  0  0  0  0  0  0  0
    8.7444    9.3235   23.7300 C   0  0  0  0  0  0  0  0  0  0  0  0
    8.5700   12.0915   24.0309 C   0  0  0  0  0  0  0  0  0  0  0  0
    9.6117   11.5350   23.2888 C   0  0  0  0  0  0  0  0  0  0  0  0
    7.6155   11.2642   24.6225 C   0  0  0  0  0  0  0  0  0  0  0  0
    9.6989   10.1509   23.1384 C   0  0  0  0  0  0  0  0  0  0  0  0
   10.9432   13.6284   23.2041 C   0  0  0  0  0  0  0  0  0  0  0  0
   11.9797   14.2819   22.3197 C   0  0  0  0  0  0  0  0  0  0  0  0
    6.6688   13.6257   25.4173 N   0  0  0  0  0  0  0  0  0  0  0  0
   10.5517   12.3920   22.7084 N   0  0  0  0  0  0  0  0  0  0  0  0
   10.5383   14.2045   24.2102 O   0  0  0  0  0  0  0  0  0  0  0  0
    5.0589   11.6928   24.8536 O   0  0  0  0  0  0  0  0  0  0  0  0
    6.4642   11.5580   26.9404 O   0  0  0  0  0  0  0  0  0  0  0  0
    6.3098   11.9604   25.5494 S   0  0  0  0  0  0  0  0  0  0  0  0
   10.9725    9.4199   22.2281 Cl  0  0  0  0  0  0  0  0  0  0  0  0
   11.1242   15.2628   21.1190 Cl  0  0  0  0  0  0  0  0  0  0  0  0
    6.9640    9.2264   24.9276 H   0  0  0  0  0  0  0  0  0  0  0  0
    8.7976    8.2428   23.6222 H   0  0  0  0  0  0  0  0  0  0  0  0
    8.4991   13.1706   24.1493 H   0  0  0  0  0  0  0  0  0  0  0  0
   12.6096   13.5566   21.7987 H   0  0  0  0  0  0  0  0  0  0  0  0
   12.6167   14.9330   22.9251 H   0  0  0  0  0  0  0  0  0  0  0  0
    7.4808   13.9860   25.9333 H   0  0  0  0  0  0  0  0  0  0  0  0
    6.5195   14.0803   24.5083 H   0  0  0  0  0  0  0  0  0  0  0  0
   10.9886   12.0812   21.8442 H   0  0  0  0  0  0  0  0  0  0  0  0
  1  2  2  0  0  0  0
  1  5  1  0  0  0  0
  2  6  1  0  0  0  0
  3  4  1  0  0  0  0
  3  5  2  0  0  0  0
  4  6  2  0  0  0  0
  4 10  1  0  0  0  0
  5 14  1  0  0  0  0
  6 15  1  0  0  0  0
  7  8  1  0  0  0  0
  7 10  1  0  0  0  0
  7 11  2  0  0  0  0
  8 16  1  0  0  0  0
  9 14  1  0  0  0  0
 12 14  2  0  0  0  0
 13 14  2  0  0  0  0
  1 17  1  0  0  0  0
  2 18  1  0  0  0  0
  3 19  1  0  0  0  0
  8 20  1  0  0  0  0
  8 21  1  0  0  0  0
  9 22  1  0  0  0  0
  9 23  1  0  0  0  0
 10 24  1  0  0  0  0
M  END
> <Catalog ID>
Z445406220

> <MW>
281.963

> <MW (desalted)>
283.132

> <ClogP>
0.286

> <logS>
-2.858

> <HBD>
2

> <HBA>
3

> <TPSA>
89.26

> <RotBonds>
3

> <ROCS_ShapeQuery>
A71EV2A-x0451_0A_A71EV2A-x0310_0A_A71EV2A-x0416_0A_peptide

> <ROCS_TanimotoCombo>
0.455 

> <ROCS_ShapeTanimoto>
0.303 

> <ROCS_ColorTanimoto>
0.152 

> <ROCS_RefTversky>
0.266 

> <ROCS_RefColorTversky>
0.164 

> <ROCS_RefTverskyCombo>
0.429 

> <ROCS_FitTversky>
1.862 

> <ROCS_FitColorTversky>
0.684 

> <ROCS_FitTverskyCombo>
2.545 

> <ROCS_ColorScore>
-4.983

> <ROCS_Overlap>
1840.796

> <ROCS_Rank>
121                 

$$$$
untitled-dbase-51_1210
  -OEChem-11112315393D

 34 35  0     1  0  0  0  0  0999 V2000
   13.2650   15.4667   21.6228 C   0  0  0  0  0  0  0  0  0  0  0  0
   12.8353   14.9934   22.7965 C   0  0  0  0  0  0  0  0  0  0  0  0
   11.4385   14.5047   22.9452 C   0  0  0  0  0  0  0  0  0  0  0  0
    6.5425   11.8868   26.2470 C   0  0  0  0  0  0  0  0  0  0  0  0
    7.9900   11.3880   26.1080 C   0  0  0  0  0  0  0  0  0  0  0  0
    6.1781   11.0107   25.0373 C   0  0  0  0  0  0  0  0  0  0  0  0
   10.2538   10.8630   23.6180 C   0  0  0  0  0  0  0  0  0  0  0  0
    8.0197   12.0943   23.5813 C   0  0  0  0  0  0  0  0  0  0  0  0
    9.3243    9.6874   23.3572 C   0  0  0  0  0  0  0  0  0  0  0  0
    9.5431   12.2116   23.4103 C   0  0  2  0  0  0  0  0  0  0  0  0
    7.6808   11.0250   24.6223 C   0  0  0  0  0  0  0  0  0  0  0  0
    9.8744   12.8072   22.0410 C   0  0  0  0  0  0  0  0  0  0  0  0
   11.1478   13.4433   22.0869 N   0  0  0  0  0  0  0  0  0  0  0  0
   10.6469   15.0000   23.7409 O   0  0  0  0  0  0  0  0  0  0  0  0
    8.1753    9.7259   24.2027 O   0  0  0  0  0  0  0  0  0  0  0  0
   14.2851   15.8226   21.5224 H   0  0  0  0  0  0  0  0  0  0  0  0
   12.6311   15.5137   20.7442 H   0  0  0  0  0  0  0  0  0  0  0  0
   13.5023   14.9634   23.6512 H   0  0  0  0  0  0  0  0  0  0  0  0
    6.0417   11.6317   27.1845 H   0  0  0  0  0  0  0  0  0  0  0  0
    6.4266   12.9613   26.0654 H   0  0  0  0  0  0  0  0  0  0  0  0
    8.7582   12.1480   26.2767 H   0  0  0  0  0  0  0  0  0  0  0  0
    8.2166   10.5188   26.7374 H   0  0  0  0  0  0  0  0  0  0  0  0
    5.8057   10.0162   25.3112 H   0  0  0  0  0  0  0  0  0  0  0  0
    5.4738   11.4624   24.3327 H   0  0  0  0  0  0  0  0  0  0  0  0
   10.6612   10.7975   24.6382 H   0  0  0  0  0  0  0  0  0  0  0  0
   11.1108   10.8018   22.9277 H   0  0  0  0  0  0  0  0  0  0  0  0
    7.6043   13.0704   23.8660 H   0  0  0  0  0  0  0  0  0  0  0  0
    7.5604   11.8264   22.6193 H   0  0  0  0  0  0  0  0  0  0  0  0
    8.9746    9.7040   22.3133 H   0  0  0  0  0  0  0  0  0  0  0  0
    9.8460    8.7269   23.5043 H   0  0  0  0  0  0  0  0  0  0  0  0
    9.9253   12.9192   24.1733 H   0  0  0  0  0  0  0  0  0  0  0  0
    9.8811   11.9869   21.3251 H   0  0  0  0  0  0  0  0  0  0  0  0
    9.0937   13.5284   21.8050 H   0  0  0  0  0  0  0  0  0  0  0  0
   11.8771   13.1276   21.4384 H   0  0  0  0  0  0  0  0  0  0  0  0
  1  2  2  0  0  0  0
  2  3  1  0  0  0  0
  3 13  1  0  0  0  0
  3 14  2  0  0  0  0
  4  5  1  0  0  0  0
  4  6  1  0  0  0  0
  5 11  1  0  0  0  0
  6 11  1  0  0  0  0
  7  9  1  0  0  0  0
  7 10  1  0  0  0  0
  8 10  1  0  0  0  0
  8 11  1  0  0  0  0
  9 15  1  0  0  0  0
 10 12  1  0  0  0  0
 11 15  1  0  0  0  0
 12 13  1  0  0  0  0
  1 16  1  0  0  0  0
  1 17  1  0  0  0  0
  2 18  1  0  0  0  0
  4 19  1  0  0  0  0
  4 20  1  0  0  0  0
  5 21  1  0  0  0  0
  5 22  1  0  0  0  0
  6 23  1  0  0  0  0
  6 24  1  0  0  0  0
  7 25  1  0  0  0  0
  7 26  1  0  0  0  0
  8 27  1  0  0  0  0
  8 28  1  0  0  0  0
  9 29  1  0  0  0  0
  9 30  1  0  0  0  0
 10 31  1  0  0  0  0
 12 32  1  0  0  0  0
 12 33  1  0  0  0  0
 13 34  1  0  0  0  0
M  END
> <Catalog ID>
Z2285378227

> <MW>
209.285

> <MW (desalted)>
209.285

> <ClogP>
0.541

> <logS>
-1.83

> <HBD>
1

> <HBA>
2

> <TPSA>
38.33

> <RotBonds>
3

> <ROCS_ShapeQuery>
A71EV2A-x0451_0A_A71EV2A-x0310_0A_A71EV2A-x0416_0A_peptide

> <ROCS_TanimotoCombo>
0.455 

> <ROCS_ShapeTanimoto>
0.278 

> <ROCS_ColorTanimoto>
0.177 

> <ROCS_RefTversky>
0.248 

> <ROCS_RefColorTversky>
0.187 

> <ROCS_RefTverskyCombo>
0.435 

> <ROCS_FitTversky>
1.771 

> <ROCS_FitColorTversky>
0.779 

> <ROCS_FitTverskyCombo>
2.550 

> <ROCS_ColorScore>
-5.675

> <ROCS_Overlap>
1717.927

> <ROCS_Rank>
122                 

$$$$
untitled-dbase-141_102
  -OEChem-11112315393D

 28 28  0     0  0  0  0  0  0999 V2000
    8.2952   12.2344   24.5874 C   0  0  0  0  0  0  0  0  0  0  0  0
    8.9403   11.1196   24.0247 C   0  0  0  0  0  0  0  0  0  0  0  0
    7.1779   11.7022   25.1744 C   0  0  0  0  0  0  0  0  0  0  0  0
   11.8849   14.6534   21.3792 C   0  0  0  0  0  0  0  0  0  0  0  0
   10.8213   14.6591   22.1884 C   0  0  0  0  0  0  0  0  0  0  0  0
   10.6023   13.5474   23.1518 C   0  0  0  0  0  0  0  0  0  0  0  0
   11.4462   10.8931   24.1840 C   0  0  0  0  0  0  0  0  0  0  0  0
   10.2283    9.9526   22.1981 C   0  0  0  0  0  0  0  0  0  0  0  0
   10.2534   11.0943   23.2311 C   0  0  0  0  0  0  0  0  0  0  0  0
    6.0592   12.2733   25.9342 C   0  0  0  0  0  0  0  0  0  0  0  0
    8.2741    9.9829   24.2458 N   0  0  0  0  0  0  0  0  0  0  0  0
   10.4781   12.3379   22.5043 N   0  0  0  0  0  0  0  0  0  0  0  0
   10.5428   13.7264   24.3640 O   0  0  0  0  0  0  0  0  0  0  0  0
    7.1541   10.3592   24.9774 O   0  0  0  0  0  0  0  0  0  0  0  0
    6.1238   13.6363   26.1078 F   0  0  0  0  0  0  0  0  0  0  0  0
    4.8221   12.0663   25.3698 F   0  0  0  0  0  0  0  0  0  0  0  0
    5.9463   11.7686   27.2072 F   0  0  0  0  0  0  0  0  0  0  0  0
    8.5966   13.2715   24.5692 H   0  0  0  0  0  0  0  0  0  0  0  0
   12.0374   15.4674   20.6783 H   0  0  0  0  0  0  0  0  0  0  0  0
   12.6217   13.8577   21.3882 H   0  0  0  0  0  0  0  0  0  0  0  0
   10.1077   15.4750   22.1478 H   0  0  0  0  0  0  0  0  0  0  0  0
   12.3927   10.8730   23.6303 H   0  0  0  0  0  0  0  0  0  0  0  0
   11.5134   11.7116   24.9112 H   0  0  0  0  0  0  0  0  0  0  0  0
   11.3762    9.9557   24.7463 H   0  0  0  0  0  0  0  0  0  0  0  0
   11.1615    9.9223   21.6227 H   0  0  0  0  0  0  0  0  0  0  0  0
    9.4094   10.0867   21.4806 H   0  0  0  0  0  0  0  0  0  0  0  0
   10.1004    8.9704   22.6660 H   0  0  0  0  0  0  0  0  0  0  0  0
   10.5078   12.2786   21.4964 H   0  0  0  0  0  0  0  0  0  0  0  0
  1  2  1  0  0  0  0
  1  3  2  0  0  0  0
  2  9  1  0  0  0  0
  2 11  2  0  0  0  0
  3 10  1  0  0  0  0
  3 14  1  0  0  0  0
  4  5  2  0  0  0  0
  5  6  1  0  0  0  0
  6 12  1  0  0  0  0
  6 13  2  0  0  0  0
  7  9  1  0  0  0  0
  8  9  1  0  0  0  0
  9 12  1  0  0  0  0
 10 15  1  0  0  0  0
 10 16  1  0  0  0  0
 10 17  1  0  0  0  0
 11 14  1  0  0  0  0
  1 18  1  0  0  0  0
  4 19  1  0  0  0  0
  4 20  1  0  0  0  0
  5 21  1  0  0  0  0
  7 22  1  0  0  0  0
  7 23  1  0  0  0  0
  7 24  1  0  0  0  0
  8 25  1  0  0  0  0
  8 26  1  0  0  0  0
  8 27  1  0  0  0  0
 12 28  1  0  0  0  0
M  END
> <Catalog ID>
Z2737383551

> <MW>
248.202

> <MW (desalted)>
248.202

> <ClogP>
1.026

> <logS>
-2.64

> <HBD>
1

> <HBA>
2

> <TPSA>
55.13

> <RotBonds>
4

> <ROCS_ShapeQuery>
A71EV2A-x0451_0A_A71EV2A-x0310_0A_A71EV2A-x0416_0A_peptide

> <ROCS_TanimotoCombo>
0.455 

> <ROCS_ShapeTanimoto>
0.309 

> <ROCS_ColorTanimoto>
0.146 

> <ROCS_RefTversky>
0.273 

> <ROCS_RefColorTversky>
0.158 

> <ROCS_RefTverskyCombo>
0.431 

> <ROCS_FitTversky>
1.749 

> <ROCS_FitColorTversky>
0.660 

> <ROCS_FitTverskyCombo>
2.409 

> <ROCS_ColorScore>
-4.811

> <ROCS_Overlap>
1890.429

> <ROCS_Rank>
123                 

$$$$
untitled-dbase-29_0
  -OEChem-11112315393D

 25 26  0     0  0  0  0  0  0999 V2000
    6.8902   12.8999   26.1525 C   0  0  0  0  0  0  0  0  0  0  0  0
    6.2758   11.6633   26.3072 C   0  0  0  0  0  0  0  0  0  0  0  0
    7.9629   13.0523   25.2657 C   0  0  0  0  0  0  0  0  0  0  0  0
    6.7340   10.5749   25.5749 C   0  0  0  0  0  0  0  0  0  0  0  0
    8.4541   11.9661   24.5240 C   0  0  0  0  0  0  0  0  0  0  0  0
    7.8176   10.7217   24.7000 C   0  0  0  0  0  0  0  0  0  0  0  0
   11.9887   14.1732   21.9483 C   0  0  0  0  0  0  0  0  0  0  0  0
   10.8325   13.5167   22.0649 C   0  0  0  0  0  0  0  0  0  0  0  0
   10.2956   13.2484   23.4192 C   0  0  0  0  0  0  0  0  0  0  0  0
    9.7384   10.8918   22.7325 C   0  0  0  0  0  0  0  0  0  0  0  0
    9.5078    9.6293   23.5357 C   0  0  0  0  0  0  0  0  0  0  0  0
    9.5225   12.0880   23.5633 N   0  0  0  0  0  0  0  0  0  0  0  0
   10.5786   14.0606   24.2986 O   0  0  0  0  0  0  0  0  0  0  0  0
    8.1751    9.5786   24.0290 O   0  0  0  0  0  0  0  0  0  0  0  0
    6.5280   13.7579   26.7121 H   0  0  0  0  0  0  0  0  0  0  0  0
    5.4393   11.5502   26.9899 H   0  0  0  0  0  0  0  0  0  0  0  0
    8.3601   14.0556   25.1640 H   0  0  0  0  0  0  0  0  0  0  0  0
    6.2492    9.6090   25.6920 H   0  0  0  0  0  0  0  0  0  0  0  0
   12.4320   14.3991   20.9842 H   0  0  0  0  0  0  0  0  0  0  0  0
   12.5200   14.5014   22.8353 H   0  0  0  0  0  0  0  0  0  0  0  0
   10.2734   13.1738   21.2042 H   0  0  0  0  0  0  0  0  0  0  0  0
   10.7597   10.8721   22.3413 H   0  0  0  0  0  0  0  0  0  0  0  0
    9.0392   10.9573   21.8902 H   0  0  0  0  0  0  0  0  0  0  0  0
    9.6531    8.7533   22.8945 H   0  0  0  0  0  0  0  0  0  0  0  0
   10.2161    9.5403   24.3695 H   0  0  0  0  0  0  0  0  0  0  0  0
  1  2  1  0  0  0  0
  1  3  2  0  0  0  0
  2  4  2  0  0  0  0
  3  5  1  0  0  0  0
  4  6  1  0  0  0  0
  5  6  2  0  0  0  0
  5 12  1  0  0  0  0
  6 14  1  0  0  0  0
  7  8  2  0  0  0  0
  8  9  1  0  0  0  0
  9 12  1  0  0  0  0
  9 13  2  0  0  0  0
 10 11  1  0  0  0  0
 10 12  1  0  0  0  0
 11 14  1  0  0  0  0
  1 15  1  0  0  0  0
  2 16  1  0  0  0  0
  3 17  1  0  0  0  0
  4 18  1  0  0  0  0
  7 19  1  0  0  0  0
  7 20  1  0  0  0  0
  8 21  1  0  0  0  0
 10 22  1  0  0  0  0
 10 23  1  0  0  0  0
 11 24  1  0  0  0  0
 11 25  1  0  0  0  0
M  END
> <Catalog ID>
Z440634772

> <MW>
189.079

> <MW (desalted)>
189.211

> <ClogP>
2.227

> <logS>
-2.807

> <HBD>
0

> <HBA>
2

> <TPSA>
29.54

> <RotBonds>
1

> <ROCS_ShapeQuery>
A71EV2A-x0451_0A_A71EV2A-x0310_0A_A71EV2A-x0416_0A_peptide

> <ROCS_TanimotoCombo>
0.455 

> <ROCS_ShapeTanimoto>
0.296 

> <ROCS_ColorTanimoto>
0.159 

> <ROCS_RefTversky>
0.260 

> <ROCS_RefColorTversky>
0.166 

> <ROCS_RefTverskyCombo>
0.426 

> <ROCS_FitTversky>
1.870 

> <ROCS_FitColorTversky>
0.795 

> <ROCS_FitTverskyCombo>
2.665 

> <ROCS_ColorScore>
-5.043

> <ROCS_Overlap>
1800.107

> <ROCS_Rank>
124                 

$$$$
untitled-dbase-764_78
  -OEChem-11112315393D

 26 26  0     0  0  0  0  0  0999 V2000
    8.6043    9.4717   23.7820 C   0  0  0  0  0  0  0  0  0  0  0  0
    7.6611   10.0665   24.6200 C   0  0  0  0  0  0  0  0  0  0  0  0
    9.5518   10.2595   23.1284 C   0  0  0  0  0  0  0  0  0  0  0  0
    8.6129   12.2370   24.1507 C   0  0  0  0  0  0  0  0  0  0  0  0
    7.6653   11.4491   24.8043 C   0  0  0  0  0  0  0  0  0  0  0  0
    9.5561   11.6422   23.3127 C   0  0  0  0  0  0  0  0  0  0  0  0
    6.6814   12.0679   25.6782 C   0  0  0  0  0  0  0  0  0  0  0  0
   11.0316   13.6295   23.1233 C   0  0  0  0  0  0  0  0  0  0  0  0
    5.3929   14.1552   26.1961 C   0  0  0  0  0  0  0  0  0  0  0  0
   12.0362   14.2120   22.1564 C   0  0  0  0  0  0  0  0  0  0  0  0
   10.5042   12.4300   22.6591 N   0  0  0  0  0  0  0  0  0  0  0  0
    6.3359   13.3968   25.4060 N   0  0  0  0  0  0  0  0  0  0  0  0
    6.1964   11.4336   26.6320 O   0  0  0  0  0  0  0  0  0  0  0  0
   10.7588   14.2239   24.1627 O   0  0  0  0  0  0  0  0  0  0  0  0
   11.5660   13.7136   20.5236 Cl  0  0  0  0  0  0  0  0  0  0  0  0
    8.6013    8.3951   23.6386 H   0  0  0  0  0  0  0  0  0  0  0  0
    6.9270    9.4426   25.1231 H   0  0  0  0  0  0  0  0  0  0  0  0
   10.2820    9.7854   22.4772 H   0  0  0  0  0  0  0  0  0  0  0  0
    8.6156   13.3157   24.2936 H   0  0  0  0  0  0  0  0  0  0  0  0
    4.3925   14.0811   25.7448 H   0  0  0  0  0  0  0  0  0  0  0  0
    5.3642   13.7521   27.2192 H   0  0  0  0  0  0  0  0  0  0  0  0
    5.7044   15.2097   26.2261 H   0  0  0  0  0  0  0  0  0  0  0  0
   13.0565   13.8709   22.3493 H   0  0  0  0  0  0  0  0  0  0  0  0
   12.0108   15.3036   22.2184 H   0  0  0  0  0  0  0  0  0  0  0  0
   10.8411   12.0952   21.7584 H   0  0  0  0  0  0  0  0  0  0  0  0
    6.8082   13.8879   24.6540 H   0  0  0  0  0  0  0  0  0  0  0  0
  1  2  2  0  0  0  0
  1  3  1  0  0  0  0
  2  5  1  0  0  0  0
  3  6  2  0  0  0  0
  4  5  2  0  0  0  0
  4  6  1  0  0  0  0
  5  7  1  0  0  0  0
  6 11  1  0  0  0  0
  7 12  1  0  0  0  0
  7 13  2  0  0  0  0
  8 10  1  0  0  0  0
  8 11  1  0  0  0  0
  8 14  2  0  0  0  0
  9 12  1  0  0  0  0
 10 15  1  0  0  0  0
  1 16  1  0  0  0  0
  2 17  1  0  0  0  0
  3 18  1  0  0  0  0
  4 19  1  0  0  0  0
  9 20  1  0  0  0  0
  9 21  1  0  0  0  0
  9 22  1  0  0  0  0
 10 23  1  0  0  0  0
 10 24  1  0  0  0  0
 11 25  1  0  0  0  0
 12 26  1  0  0  0  0
M  END
> <Catalog ID>
Z104510222

> <MW>
226.051

> <MW (desalted)>
226.66

> <ClogP>
0.787

> <logS>
-2.43

> <HBD>
2

> <HBA>
2

> <TPSA>
58.2

> <RotBonds>
3

> <ROCS_ShapeQuery>
A71EV2A-x0451_0A_A71EV2A-x0310_0A_A71EV2A-x0416_0A_peptide

> <ROCS_TanimotoCombo>
0.455 

> <ROCS_ShapeTanimoto>
0.295 

> <ROCS_ColorTanimoto>
0.159 

> <ROCS_RefTversky>
0.260 

> <ROCS_RefColorTversky>
0.166 

> <ROCS_RefTverskyCombo>
0.426 

> <ROCS_FitTversky>
1.851 

> <ROCS_FitColorTversky>
0.796 

> <ROCS_FitTverskyCombo>
2.647 

> <ROCS_ColorScore>
-5.046

> <ROCS_Overlap>
1801.176

> <ROCS_Rank>
125                 

$$$$
untitled-dbase-74_66
  -OEChem-11112315393D

 34 35  0     0  0  0  0  0  0999 V2000
    6.2490   12.4880   26.3275 C   0  0  0  0  0  0  0  0  0  0  0  0
    6.2625   11.1527   26.7201 C   0  0  0  0  0  0  0  0  0  0  0  0
    6.9354   12.8856   25.1788 C   0  0  0  0  0  0  0  0  0  0  0  0
    6.9696   10.2164   25.9696 C   0  0  0  0  0  0  0  0  0  0  0  0
    7.6574   11.9562   24.4145 C   0  0  0  0  0  0  0  0  0  0  0  0
    7.6822   10.6190   24.8351 C   0  0  0  0  0  0  0  0  0  0  0  0
   13.0168   12.0657   23.4473 C   0  0  0  0  0  0  0  0  0  0  0  0
   12.1046   12.8426   22.8594 C   0  0  0  0  0  0  0  0  0  0  0  0
   10.7871   13.0100   23.5053 C   0  0  0  0  0  0  0  0  0  0  0  0
    8.3384   12.4011   23.1493 C   0  0  0  0  0  0  0  0  0  0  0  0
   10.1311   10.7207   22.8683 C   0  0  0  0  0  0  0  0  0  0  0  0
    9.7541    9.7444   24.0019 C   0  0  0  0  0  0  0  0  0  0  0  0
   10.4687   10.0608   25.3289 C   0  0  0  0  0  0  0  0  0  0  0  0
   10.2009    8.3349   23.5648 C   0  0  0  0  0  0  0  0  0  0  0  0
    9.7756   12.1094   23.1687 N   0  0  0  0  0  0  0  0  0  0  0  0
   10.6577   13.9445   24.2983 O   0  0  0  0  0  0  0  0  0  0  0  0
    8.3213    9.6276   24.1406 O   0  0  0  0  0  0  0  0  0  0  0  0
    5.6950   13.2197   26.9083 H   0  0  0  0  0  0  0  0  0  0  0  0
    5.7194   10.8409   27.6073 H   0  0  0  0  0  0  0  0  0  0  0  0
    6.8940   13.9300   24.8790 H   0  0  0  0  0  0  0  0  0  0  0  0
    6.9710    9.1740   26.2776 H   0  0  0  0  0  0  0  0  0  0  0  0
   14.0015   11.9041   23.0216 H   0  0  0  0  0  0  0  0  0  0  0  0
   12.7864   11.5692   24.3841 H   0  0  0  0  0  0  0  0  0  0  0  0
   12.2971   13.3544   21.9255 H   0  0  0  0  0  0  0  0  0  0  0  0
    7.8855   11.8839   22.2938 H   0  0  0  0  0  0  0  0  0  0  0  0
    8.1726   13.4659   22.9629 H   0  0  0  0  0  0  0  0  0  0  0  0
   11.2065   10.6541   22.6668 H   0  0  0  0  0  0  0  0  0  0  0  0
    9.6139   10.4507   21.9390 H   0  0  0  0  0  0  0  0  0  0  0  0
   10.1611    9.3412   26.0797 H   0  0  0  0  0  0  0  0  0  0  0  0
   10.1999   11.0616   25.6486 H   0  0  0  0  0  0  0  0  0  0  0  0
   11.5412    9.9991   25.1796 H   0  0  0  0  0  0  0  0  0  0  0  0
    9.9481    7.6253   24.3441 H   0  0  0  0  0  0  0  0  0  0  0  0
   11.2725    8.3372   23.4026 H   0  0  0  0  0  0  0  0  0  0  0  0
    9.6901    8.0702   22.6461 H   0  0  0  0  0  0  0  0  0  0  0  0
  1  2  1  0  0  0  0
  1  3  2  0  0  0  0
  2  4  2  0  0  0  0
  3  5  1  0  0  0  0
  4  6  1  0  0  0  0
  5  6  2  0  0  0  0
  5 10  1  0  0  0  0
  6 17  1  0  0  0  0
  7  8  2  0  0  0  0
  8  9  1  0  0  0  0
  9 15  1  0  0  0  0
  9 16  2  0  0  0  0
 10 15  1  0  0  0  0
 11 12  1  0  0  0  0
 11 15  1  0  0  0  0
 12 13  1  0  0  0  0
 12 14  1  0  0  0  0
 12 17  1  0  0  0  0
  1 18  1  0  0  0  0
  2 19  1  0  0  0  0
  3 20  1  0  0  0  0
  4 21  1  0  0  0  0
  7 22  1  0  0  0  0
  7 23  1  0  0  0  0
  8 24  1  0  0  0  0
 10 25  1  0  0  0  0
 10 26  1  0  0  0  0
 11 27  1  0  0  0  0
 11 28  1  0  0  0  0
 13 29  1  0  0  0  0
 13 30  1  0  0  0  0
 13 31  1  0  0  0  0
 14 32  1  0  0  0  0
 14 33  1  0  0  0  0
 14 34  1  0  0  0  0
M  END
> <Catalog ID>
Z2737383535

> <MW>
231.29

> <MW (desalted)>
231.29

> <ClogP>
2.251

> <logS>
-3.28

> <HBD>
0

> <HBA>
2

> <TPSA>
29.54

> <RotBonds>
1

> <ROCS_ShapeQuery>
A71EV2A-x0451_0A_A71EV2A-x0310_0A_A71EV2A-x0416_0A_peptide

> <ROCS_TanimotoCombo>
0.454 

> <ROCS_ShapeTanimoto>
0.305 

> <ROCS_ColorTanimoto>
0.150 

> <ROCS_RefTversky>
0.270 

> <ROCS_RefColorTversky>
0.162 

> <ROCS_RefTverskyCombo>
0.431 

> <ROCS_FitTversky>
1.730 

> <ROCS_FitColorTversky>
0.674 

> <ROCS_FitTverskyCombo>
2.404 

> <ROCS_ColorScore>
-4.913

> <ROCS_Overlap>
1871.690

> <ROCS_Rank>
126                 

$$$$
untitled-dbase-31_14
  -OEChem-11112315393D

 23 23  0     0  0  0  0  0  0999 V2000
    9.2466   10.1489   23.3783 C   0  0  0  0  0  0  0  0  0  0  0  0
    8.3592   12.1345   24.4303 C   0  0  0  0  0  0  0  0  0  0  0  0
    8.3722    9.3613   24.1271 C   0  0  0  0  0  0  0  0  0  0  0  0
    7.4847   11.3470   25.1791 C   0  0  0  0  0  0  0  0  0  0  0  0
    9.2402   11.5355   23.5300 C   0  0  0  0  0  0  0  0  0  0  0  0
    7.4912    9.9604   25.0275 C   0  0  0  0  0  0  0  0  0  0  0  0
   12.2423   15.2248   22.1074 C   0  0  0  0  0  0  0  0  0  0  0  0
   10.6924   13.5630   23.1262 C   0  0  0  0  0  0  0  0  0  0  0  0
   13.0585   15.4353   20.8573 C   0  0  0  0  0  0  0  0  0  0  0  0
   10.1267   12.3341   22.7704 N   0  0  0  0  0  0  0  0  0  0  0  0
   11.5227   14.0310   22.0877 N   0  0  0  0  0  0  0  0  0  0  0  0
   12.2535   16.0352   23.0318 O   0  0  0  0  0  0  0  0  0  0  0  0
   10.5163   14.1749   24.1766 O   0  0  0  0  0  0  0  0  0  0  0  0
   13.8802   16.9969   21.0020 Cl  0  0  0  0  0  0  0  0  0  0  0  0
    6.3064    8.8931   26.0418 Br  0  0  0  0  0  0  0  0  0  0  0  0
    9.9291    9.6718   22.6798 H   0  0  0  0  0  0  0  0  0  0  0  0
    8.3458   13.2140   24.5563 H   0  0  0  0  0  0  0  0  0  0  0  0
    8.3894    8.2824   23.9973 H   0  0  0  0  0  0  0  0  0  0  0  0
    6.8045   11.8288   25.8765 H   0  0  0  0  0  0  0  0  0  0  0  0
   12.3937   15.4593   19.9895 H   0  0  0  0  0  0  0  0  0  0  0  0
   13.8097   14.6558   20.7084 H   0  0  0  0  0  0  0  0  0  0  0  0
   10.3837   11.9714   21.8559 H   0  0  0  0  0  0  0  0  0  0  0  0
   11.6032   13.4511   21.2572 H   0  0  0  0  0  0  0  0  0  0  0  0
  1  3  2  0  0  0  0
  1  5  1  0  0  0  0
  2  4  1  0  0  0  0
  2  5  2  0  0  0  0
  3  6  1  0  0  0  0
  4  6  2  0  0  0  0
  5 10  1  0  0  0  0
  6 15  1  0  0  0  0
  7  9  1  0  0  0  0
  7 11  1  0  0  0  0
  7 12  2  0  0  0  0
  8 10  1  0  0  0  0
  8 11  1  0  0  0  0
  8 13  2  0  0  0  0
  9 14  1  0  0  0  0
  1 16  1  0  0  0  0
  2 17  1  0  0  0  0
  3 18  1  0  0  0  0
  4 19  1  0  0  0  0
  9 20  1  0  0  0  0
  9 21  1  0  0  0  0
 10 22  1  0  0  0  0
 11 23  1  0  0  0  0
M  END
> <Catalog ID>
Z90123297

> <MW>
289.946

> <MW (desalted)>
291.529

> <ClogP>
3.379

> <logS>
-3.61

> <HBD>
2

> <HBA>
2

> <TPSA>
58.2

> <RotBonds>
2

> <ROCS_ShapeQuery>
A71EV2A-x0451_0A_A71EV2A-x0310_0A_A71EV2A-x0416_0A_peptide

> <ROCS_TanimotoCombo>
0.454 

> <ROCS_ShapeTanimoto>
0.275 

> <ROCS_ColorTanimoto>
0.179 

> <ROCS_RefTversky>
0.246 

> <ROCS_RefColorTversky>
0.188 

> <ROCS_RefTverskyCombo>
0.434 

> <ROCS_FitTversky>
1.766 

> <ROCS_FitColorTversky>
0.784 

> <ROCS_FitTverskyCombo>
2.550 

> <ROCS_ColorScore>
-5.720

> <ROCS_Overlap>
1703.735

> <ROCS_Rank>
127                 

$$$$
untitled-dbase-291_118
  -OEChem-11112315393D

 29 31  0     0  0  0  0  0  0999 V2000
    6.5756   12.3925   25.8270 C   0  0  0  0  0  0  0  0  0  0  0  0
    6.1487   11.0685   25.9083 C   0  0  0  0  0  0  0  0  0  0  0  0
    7.7438   12.7271   25.1326 C   0  0  0  0  0  0  0  0  0  0  0  0
    6.8729   10.0391   25.3003 C   0  0  0  0  0  0  0  0  0  0  0  0
    9.9383   10.3723   23.4008 C   0  0  0  0  0  0  0  0  0  0  0  0
   11.2592   12.9753   22.2670 C   0  0  0  0  0  0  0  0  0  0  0  0
    8.4905   11.7062   24.5117 C   0  0  0  0  0  0  0  0  0  0  0  0
    9.6898   11.6807   23.7461 C   0  0  0  0  0  0  0  0  0  0  0  0
    8.0388   10.3884   24.6097 C   0  0  0  0  0  0  0  0  0  0  0  0
   10.4901   12.8363   23.4034 C   0  0  0  0  0  0  0  0  0  0  0  0
   11.2847   14.8443   23.7864 C   0  0  0  0  0  0  0  0  0  0  0  0
   12.4114   17.0563   23.7972 C   0  0  0  0  0  0  0  0  0  0  0  0
   12.5221   18.2717   24.6883 C   0  0  0  0  0  0  0  0  0  0  0  0
   10.5038   13.9069   24.2760 N   0  0  0  0  0  0  0  0  0  0  0  0
    8.9370    9.6004   23.9260 N   0  0  0  0  0  0  0  0  0  0  0  0
   11.5730   16.0654   24.3359 N   0  0  0  0  0  0  0  0  0  0  0  0
   13.0348   17.0069   22.7403 O   0  0  0  0  0  0  0  0  0  0  0  0
   12.0339   14.5053   22.2801 S   0  0  0  0  0  0  0  0  0  0  0  0
   12.3281   17.7324   26.3638 Cl  0  0  0  0  0  0  0  0  0  0  0  0
    5.9952   13.1760   26.3074 H   0  0  0  0  0  0  0  0  0  0  0  0
    5.2386   10.8311   26.4532 H   0  0  0  0  0  0  0  0  0  0  0  0
    8.0608   13.7649   25.0798 H   0  0  0  0  0  0  0  0  0  0  0  0
    6.5399    9.0089   25.3644 H   0  0  0  0  0  0  0  0  0  0  0  0
   10.7364    9.9177   22.8297 H   0  0  0  0  0  0  0  0  0  0  0  0
   11.4009   12.2775   21.4532 H   0  0  0  0  0  0  0  0  0  0  0  0
   11.7626   19.0269   24.4706 H   0  0  0  0  0  0  0  0  0  0  0  0
   13.5120   18.7213   24.5697 H   0  0  0  0  0  0  0  0  0  0  0  0
    8.8676    8.5969   23.8273 H   0  0  0  0  0  0  0  0  0  0  0  0
   11.1284   16.2800   25.2394 H   0  0  0  0  0  0  0  0  0  0  0  0
  1  2  1  0  0  0  0
  1  3  2  0  0  0  0
  2  4  2  0  0  0  0
  3  7  1  0  0  0  0
  4  9  1  0  0  0  0
  5  8  2  0  0  0  0
  5 15  1  0  0  0  0
  6 10  2  0  0  0  0
  6 18  1  0  0  0  0
  7  8  1  0  0  0  0
  7  9  2  0  0  0  0
  8 10  1  0  0  0  0
  9 15  1  0  0  0  0
 10 14  1  0  0  0  0
 11 14  2  0  0  0  0
 11 16  1  0  0  0  0
 11 18  1  0  0  0  0
 12 13  1  0  0  0  0
 12 16  1  0  0  0  0
 12 17  2  0  0  0  0
 13 19  1  0  0  0  0
  1 20  1  0  0  0  0
  2 21  1  0  0  0  0
  3 22  1  0  0  0  0
  4 23  1  0  0  0  0
  5 24  1  0  0  0  0
  6 25  1  0  0  0  0
 13 26  1  0  0  0  0
 13 27  1  0  0  0  0
 15 28  1  0  0  0  0
 16 29  1  0  0  0  0
M  END
> <Catalog ID>
Z199464142

> <MW>
291.023

> <MW (desalted)>
291.756

> <ClogP>
3.254

> <logS>
-4.9

> <HBD>
2

> <HBA>
2

> <TPSA>
57.78

> <RotBonds>
3

> <ROCS_ShapeQuery>
A71EV2A-x0451_0A_A71EV2A-x0310_0A_A71EV2A-x0416_0A_peptide

> <ROCS_TanimotoCombo>
0.454 

> <ROCS_ShapeTanimoto>
0.303 

> <ROCS_ColorTanimoto>
0.151 

> <ROCS_RefTversky>
0.272 

> <ROCS_RefColorTversky>
0.166 

> <ROCS_RefTverskyCombo>
0.438 

> <ROCS_FitTversky>
1.606 

> <ROCS_FitColorTversky>
0.615 

> <ROCS_FitTverskyCombo>
2.221 

> <ROCS_ColorScore>
-5.072

> <ROCS_Overlap>
1887.675

> <ROCS_Rank>
128                 

$$$$
untitled-dbase-197_134
  -OEChem-11112315393D

 28 29  0     1  0  0  0  0  0999 V2000
   10.2463   11.6311   22.8473 C   0  0  0  0  0  0  0  0  0  0  0  0
    9.7754   10.3534   23.1590 C   0  0  0  0  0  0  0  0  0  0  0  0
    8.4492   12.6536   24.1331 C   0  0  0  0  0  0  0  0  0  0  0  0
    9.5871   12.7746   23.3317 C   0  0  0  0  0  0  0  0  0  0  0  0
    8.6501   10.2614   23.9520 C   0  0  0  0  0  0  0  0  0  0  0  0
    8.0049   11.3807   24.4261 C   0  0  0  0  0  0  0  0  0  0  0  0
   12.2961   15.0600   22.2863 C   0  0  0  0  0  0  0  0  0  0  0  0
    6.9555    9.6278   25.1390 C   0  0  0  0  0  0  0  0  0  0  0  0
    9.0881   14.9955   22.2311 C   0  0  0  0  0  0  0  0  0  0  0  0
   13.5055   14.7640   21.4366 C   0  0  0  0  0  0  0  0  0  0  0  0
   10.1079   14.1294   22.9846 C   0  0  2  0  0  0  0  0  0  0  0  0
   11.3464   14.0605   22.2282 N   0  0  0  0  0  0  0  0  0  0  0  0
   12.2108   16.0866   22.9580 O   0  0  0  0  0  0  0  0  0  0  0  0
    8.0509    9.1088   24.3573 O   0  0  0  0  0  0  0  0  0  0  0  0
    6.9207   11.0690   25.1873 O   0  0  0  0  0  0  0  0  0  0  0  0
   13.2123   15.4284   19.8218 Cl  0  0  0  0  0  0  0  0  0  0  0  0
   11.1320   11.7348   22.2253 H   0  0  0  0  0  0  0  0  0  0  0  0
   10.2814    9.4693   22.7884 H   0  0  0  0  0  0  0  0  0  0  0  0
    7.9319   13.5276   24.5142 H   0  0  0  0  0  0  0  0  0  0  0  0
    6.0149    9.2691   24.7054 H   0  0  0  0  0  0  0  0  0  0  0  0
    7.0416    9.2444   26.1619 H   0  0  0  0  0  0  0  0  0  0  0  0
    8.7753   14.5057   21.3025 H   0  0  0  0  0  0  0  0  0  0  0  0
    8.1936   15.1743   22.8384 H   0  0  0  0  0  0  0  0  0  0  0  0
    9.5029   15.9763   21.9727 H   0  0  0  0  0  0  0  0  0  0  0  0
   14.4195   15.2088   21.8376 H   0  0  0  0  0  0  0  0  0  0  0  0
   13.6392   13.6815   21.3595 H   0  0  0  0  0  0  0  0  0  0  0  0
   10.3766   14.6806   23.9028 H   0  0  0  0  0  0  0  0  0  0  0  0
   11.5178   13.2550   21.6409 H   0  0  0  0  0  0  0  0  0  0  0  0
  1  2  2  0  0  0  0
  1  4  1  0  0  0  0
  2  5  1  0  0  0  0
  3  4  2  0  0  0  0
  3  6  1  0  0  0  0
  4 11  1  0  0  0  0
  5  6  2  0  0  0  0
  5 14  1  0  0  0  0
  6 15  1  0  0  0  0
  7 10  1  0  0  0  0
  7 12  1  0  0  0  0
  7 13  2  0  0  0  0
  8 14  1  0  0  0  0
  8 15  1  0  0  0  0
  9 11  1  0  0  0  0
 10 16  1  0  0  0  0
 11 12  1  0  0  0  0
  1 17  1  0  0  0  0
  2 18  1  0  0  0  0
  3 19  1  0  0  0  0
  8 20  1  0  0  0  0
  8 21  1  0  0  0  0
  9 22  1  0  0  0  0
  9 23  1  0  0  0  0
  9 24  1  0  0  0  0
 10 25  1  0  0  0  0
 10 26  1  0  0  0  0
 11 27  1  0  0  0  0
 12 28  1  0  0  0  0
M  END
> <Catalog ID>
Z56347110

> <MW>
241.051

> <MW (desalted)>
241.671

> <ClogP>
1.837

> <logS>
-2.94

> <HBD>
1

> <HBA>
3

> <TPSA>
47.56

> <RotBonds>
3

> <ROCS_ShapeQuery>
A71EV2A-x0451_0A_A71EV2A-x0310_0A_A71EV2A-x0416_0A_peptide

> <ROCS_TanimotoCombo>
0.454 

> <ROCS_ShapeTanimoto>
0.293 

> <ROCS_ColorTanimoto>
0.161 

> <ROCS_RefTversky>
0.260 

> <ROCS_RefColorTversky>
0.172 

> <ROCS_RefTverskyCombo>
0.432 

> <ROCS_FitTversky>
1.743 

> <ROCS_FitColorTversky>
0.715 

> <ROCS_FitTverskyCombo>
2.458 

> <ROCS_ColorScore>
-5.229

> <ROCS_Overlap>
1804.947

> <ROCS_Rank>
129                 

$$$$
untitled-dbase-838_29
  -OEChem-11112315393D

 25 25  0     0  0  0  0  0  0999 V2000
    9.2220   11.5030   23.5382 C   0  0  0  0  0  0  0  0  0  0  0  0
    8.2350   12.0089   24.4052 C   0  0  0  0  0  0  0  0  0  0  0  0
    8.9983   10.1481   23.5167 C   0  0  0  0  0  0  0  0  0  0  0  0
   10.8321   13.3710   23.2537 C   0  0  0  0  0  0  0  0  0  0  0  0
    8.0098   13.4112   24.7991 C   0  0  0  0  0  0  0  0  0  0  0  0
    9.6885    9.0559   22.8030 C   0  0  0  0  0  0  0  0  0  0  0  0
    7.3140    8.6644   24.6473 C   0  0  0  0  0  0  0  0  0  0  0  0
   11.8655   13.8396   22.2557 C   0  0  0  0  0  0  0  0  0  0  0  0
    7.4431   11.0532   24.8987 N   0  0  0  0  0  0  0  0  0  0  0  0
    7.9323    9.9331   24.3398 N   0  0  0  0  0  0  0  0  0  0  0  0
   10.2015   12.1829   22.8554 N   0  0  0  0  0  0  0  0  0  0  0  0
   10.6123   14.0264   24.2687 O   0  0  0  0  0  0  0  0  0  0  0  0
   11.0541   14.9067   21.0988 Cl  0  0  0  0  0  0  0  0  0  0  0  0
    7.3108   13.9128   24.1087 H   0  0  0  0  0  0  0  0  0  0  0  0
    7.5905   13.4952   25.8171 H   0  0  0  0  0  0  0  0  0  0  0  0
    8.9464   13.9962   24.8083 H   0  0  0  0  0  0  0  0  0  0  0  0
   10.5125    8.6440   23.4084 H   0  0  0  0  0  0  0  0  0  0  0  0
    9.0051    8.2251   22.5576 H   0  0  0  0  0  0  0  0  0  0  0  0
   10.1145    9.3936   21.8426 H   0  0  0  0  0  0  0  0  0  0  0  0
    7.8160    8.2485   25.5249 H   0  0  0  0  0  0  0  0  0  0  0  0
    6.2507    8.8175   24.8518 H   0  0  0  0  0  0  0  0  0  0  0  0
    7.4209    7.9933   23.7905 H   0  0  0  0  0  0  0  0  0  0  0  0
   12.3305   13.0152   21.7092 H   0  0  0  0  0  0  0  0  0  0  0  0
   12.6450   14.4031   22.7761 H   0  0  0  0  0  0  0  0  0  0  0  0
   10.5035   11.7791   21.9599 H   0  0  0  0  0  0  0  0  0  0  0  0
  1  2  1  0  0  0  0
  1  3  2  0  0  0  0
  1 11  1  0  0  0  0
  2  5  1  0  0  0  0
  2  9  2  0  0  0  0
  3  6  1  0  0  0  0
  3 10  1  0  0  0  0
  4  8  1  0  0  0  0
  4 11  1  0  0  0  0
  4 12  2  0  0  0  0
  7 10  1  0  0  0  0
  8 13  1  0  0  0  0
  9 10  1  0  0  0  0
  5 14  1  0  0  0  0
  5 15  1  0  0  0  0
  5 16  1  0  0  0  0
  6 17  1  0  0  0  0
  6 18  1  0  0  0  0
  6 19  1  0  0  0  0
  7 20  1  0  0  0  0
  7 21  1  0  0  0  0
  7 22  1  0  0  0  0
  8 23  1  0  0  0  0
  8 24  1  0  0  0  0
 11 25  1  0  0  0  0
M  END
> <Catalog ID>
Z94598470

> <MW>
237.044

> <MW (desalted)>
201.653

> <ClogP>
-0.466

> <logS>
-1.189

> <HBD>
1

> <HBA>
2

> <TPSA>
46.92

> <RotBonds>
2

> <ROCS_ShapeQuery>
A71EV2A-x0451_0A_A71EV2A-x0310_0A_A71EV2A-x0416_0A_peptide

> <ROCS_TanimotoCombo>
0.454 

> <ROCS_ShapeTanimoto>
0.282 

> <ROCS_ColorTanimoto>
0.172 

> <ROCS_RefTversky>
0.248 

> <ROCS_RefColorTversky>
0.173 

> <ROCS_RefTverskyCombo>
0.421 

> <ROCS_FitTversky>
1.918 

> <ROCS_FitColorTversky>
0.974 

> <ROCS_FitTverskyCombo>
2.892 

> <ROCS_ColorScore>
-5.244

> <ROCS_Overlap>
1718.065

> <ROCS_Rank>
130                 

$$$$
untitled-dbase-184_4
  -OEChem-11112315393D

 27 28  0     0  0  0  0  0  0999 V2000
    8.5348   10.5801   23.8768 C   0  0  0  0  0  0  0  0  0  0  0  0
    8.6868   11.9221   24.2553 C   0  0  0  0  0  0  0  0  0  0  0  0
    7.3591   10.1440   24.4315 C   0  0  0  0  0  0  0  0  0  0  0  0
    7.5977   12.2441   25.0236 C   0  0  0  0  0  0  0  0  0  0  0  0
    9.5252    9.9419   23.0576 C   0  0  0  0  0  0  0  0  0  0  0  0
    9.8279   12.6824   23.8347 C   0  0  0  0  0  0  0  0  0  0  0  0
    6.0603   13.6005   26.4233 C   0  0  0  0  0  0  0  0  0  0  0  0
    6.6283    8.8689   24.4255 C   0  0  0  0  0  0  0  0  0  0  0  0
    9.3880    8.5055   22.6400 C   0  0  0  0  0  0  0  0  0  0  0  0
    5.9632   15.0050   26.9724 C   0  0  0  0  0  0  0  0  0  0  0  0
   10.5656   10.6232   22.6696 N   0  0  0  0  0  0  0  0  0  0  0  0
   10.7091   11.9443   23.0457 N   0  0  0  0  0  0  0  0  0  0  0  0
    7.2204   13.3972   25.6536 N   0  0  0  0  0  0  0  0  0  0  0  0
   10.0047   13.8574   24.1400 O   0  0  0  0  0  0  0  0  0  0  0  0
    5.1704   12.7856   26.6512 O   0  0  0  0  0  0  0  0  0  0  0  0
    6.7774   11.1584   25.1370 O   0  0  0  0  0  0  0  0  0  0  0  0
    7.6113   15.6061   27.2127 Cl  0  0  0  0  0  0  0  0  0  0  0  0
    6.9352    8.2239   25.2680 H   0  0  0  0  0  0  0  0  0  0  0  0
    5.5343    9.0113   24.5008 H   0  0  0  0  0  0  0  0  0  0  0  0
    6.7919    8.2953   23.4943 H   0  0  0  0  0  0  0  0  0  0  0  0
    8.8479    8.4537   21.6982 H   0  0  0  0  0  0  0  0  0  0  0  0
    8.8438    7.9573   23.4051 H   0  0  0  0  0  0  0  0  0  0  0  0
   10.3762    8.0685   22.5203 H   0  0  0  0  0  0  0  0  0  0  0  0
    5.4284   15.0513   27.9244 H   0  0  0  0  0  0  0  0  0  0  0  0
    5.4513   15.6447   26.2479 H   0  0  0  0  0  0  0  0  0  0  0  0
   11.5391   12.4261   22.7146 H   0  0  0  0  0  0  0  0  0  0  0  0
    7.8538   14.2043   25.5541 H   0  0  0  0  0  0  0  0  0  0  0  0
  1  2  1  0  0  0  0
  1  3  2  0  0  0  0
  1  5  1  0  0  0  0
  2  4  2  0  0  0  0
  2  6  1  0  0  0  0
  3  8  1  0  0  0  0
  3 16  1  0  0  0  0
  4 13  1  0  0  0  0
  4 16  1  0  0  0  0
  5  9  1  0  0  0  0
  5 11  2  0  0  0  0
  6 12  1  0  0  0  0
  6 14  2  0  0  0  0
  7 10  1  0  0  0  0
  7 13  1  0  0  0  0
  7 15  2  0  0  0  0
 10 17  1  0  0  0  0
 11 12  1  0  0  0  0
  8 18  1  0  0  0  0
  8 19  1  0  0  0  0
  8 20  1  0  0  0  0
  9 21  1  0  0  0  0
  9 22  1  0  0  0  0
  9 23  1  0  0  0  0
 10 24  1  0  0  0  0
 10 25  1  0  0  0  0
 12 26  1  0  0  0  0
 13 27  1  0  0  0  0
M  END
> <Catalog ID>
Z85921951

> <MW>
255.041

> <MW (desalted)>
255.658

> <ClogP>
0.266

> <logS>
-2.74

> <HBD>
2

> <HBA>
3

> <TPSA>
83.7

> <RotBonds>
2

> <ROCS_ShapeQuery>
A71EV2A-x0451_0A_A71EV2A-x0310_0A_A71EV2A-x0416_0A_peptide

> <ROCS_TanimotoCombo>
0.454 

> <ROCS_ShapeTanimoto>
0.288 

> <ROCS_ColorTanimoto>
0.166 

> <ROCS_RefTversky>
0.259 

> <ROCS_RefColorTversky>
0.185 

> <ROCS_RefTverskyCombo>
0.444 

> <ROCS_FitTversky>
1.639 

> <ROCS_FitColorTversky>
0.614 

> <ROCS_FitTverskyCombo>
2.253 

> <ROCS_ColorScore>
-5.655

> <ROCS_Overlap>
1793.076

> <ROCS_Rank>
131                 

$$$$
untitled-dbase-945_45
  -OEChem-11112315393D

 25 25  0     0  0  0  0  0  0999 V2000
    7.3011   10.2865   24.9249 C   0  0  0  0  0  0  0  0  0  0  0  0
    8.1793    9.5637   24.1175 C   0  0  0  0  0  0  0  0  0  0  0  0
    8.4188   12.3368   24.3055 C   0  0  0  0  0  0  0  0  0  0  0  0
    7.4208   11.6730   25.0189 C   0  0  0  0  0  0  0  0  0  0  0  0
    9.2972   11.6141   23.4982 C   0  0  0  0  0  0  0  0  0  0  0  0
    9.1774   10.2275   23.4042 C   0  0  0  0  0  0  0  0  0  0  0  0
    6.5048   12.4268   25.8605 C   0  0  0  0  0  0  0  0  0  0  0  0
   10.8911   13.4935   23.1980 C   0  0  0  0  0  0  0  0  0  0  0  0
    5.1635   12.3186   27.8305 C   0  0  0  0  0  0  0  0  0  0  0  0
   11.9181   13.9643   22.1945 C   0  0  0  0  0  0  0  0  0  0  0  0
   10.2864   12.3097   22.7966 N   0  0  0  0  0  0  0  0  0  0  0  0
    6.1546   13.5944   25.6437 O   0  0  0  0  0  0  0  0  0  0  0  0
   10.6685   14.1533   24.2094 O   0  0  0  0  0  0  0  0  0  0  0  0
    6.0741   11.6843   26.9259 O   0  0  0  0  0  0  0  0  0  0  0  0
   10.2440    9.2935   22.4168 Cl  0  0  0  0  0  0  0  0  0  0  0  0
   11.9825   15.7320   22.2764 Cl  0  0  0  0  0  0  0  0  0  0  0  0
    6.5268    9.7593   25.4766 H   0  0  0  0  0  0  0  0  0  0  0  0
    8.0708    8.4839   24.0552 H   0  0  0  0  0  0  0  0  0  0  0  0
    8.5108   13.4186   24.3803 H   0  0  0  0  0  0  0  0  0  0  0  0
    4.8996   11.6227   28.6306 H   0  0  0  0  0  0  0  0  0  0  0  0
    4.2652   12.6256   27.2890 H   0  0  0  0  0  0  0  0  0  0  0  0
    5.6458   13.1993   28.2611 H   0  0  0  0  0  0  0  0  0  0  0  0
   11.6770   13.6671   21.1707 H   0  0  0  0  0  0  0  0  0  0  0  0
   12.8985   13.5581   22.4589 H   0  0  0  0  0  0  0  0  0  0  0  0
   10.5909   11.9124   21.9113 H   0  0  0  0  0  0  0  0  0  0  0  0
  1  2  2  0  0  0  0
  1  4  1  0  0  0  0
  2  6  1  0  0  0  0
  3  4  2  0  0  0  0
  3  5  1  0  0  0  0
  4  7  1  0  0  0  0
  5  6  2  0  0  0  0
  5 11  1  0  0  0  0
  6 15  1  0  0  0  0
  7 12  2  0  0  0  0
  7 14  1  0  0  0  0
  8 10  1  0  0  0  0
  8 11  1  0  0  0  0
  8 13  2  0  0  0  0
  9 14  1  0  0  0  0
 10 16  1  0  0  0  0
  1 17  1  0  0  0  0
  2 18  1  0  0  0  0
  3 19  1  0  0  0  0
  9 20  1  0  0  0  0
  9 21  1  0  0  0  0
  9 22  1  0  0  0  0
 10 23  1  0  0  0  0
 10 24  1  0  0  0  0
 11 25  1  0  0  0  0
M  END
> <Catalog ID>
Z57834461

> <MW>
260.996

> <MW (desalted)>
262.089

> <ClogP>
2.165

> <logS>
-3.24

> <HBD>
1

> <HBA>
2

> <TPSA>
55.4

> <RotBonds>
4

> <ROCS_ShapeQuery>
A71EV2A-x0451_0A_A71EV2A-x0310_0A_A71EV2A-x0416_0A_peptide

> <ROCS_TanimotoCombo>
0.453 

> <ROCS_ShapeTanimoto>
0.315 

> <ROCS_ColorTanimoto>
0.139 

> <ROCS_RefTversky>
0.274 

> <ROCS_RefColorTversky>
0.143 

> <ROCS_RefTverskyCombo>
0.418 

> <ROCS_FitTversky>
1.880 

> <ROCS_FitColorTversky>
0.807 

> <ROCS_FitTverskyCombo>
2.687 

> <ROCS_ColorScore>
-4.345

> <ROCS_Overlap>
1901.647

> <ROCS_Rank>
132                 

$$$$
untitled-dbase-792_3392
  -OEChem-11112315393D

 39 40  0     0  0  0  0  0  0999 V2000
    8.3646    9.5092   23.9753 C   0  0  0  0  0  0  0  0  0  0  0  0
    9.3290   10.2468   23.2887 C   0  0  0  0  0  0  0  0  0  0  0  0
    8.4750   12.2807   24.2742 C   0  0  0  0  0  0  0  0  0  0  0  0
    7.4553   10.1573   24.8113 C   0  0  0  0  0  0  0  0  0  0  0  0
    9.3843   11.6325   23.4382 C   0  0  0  0  0  0  0  0  0  0  0  0
    7.5105   11.5431   24.9607 C   0  0  0  0  0  0  0  0  0  0  0  0
   15.6227   16.7599   20.0550 C   0  0  0  0  0  0  0  0  0  0  0  0
   14.5761   17.2932   19.4212 C   0  0  0  0  0  0  0  0  0  0  0  0
   13.4377   16.4216   19.0652 C   0  0  0  0  0  0  0  0  0  0  0  0
   10.9580   13.5774   23.1415 C   0  0  0  0  0  0  0  0  0  0  0  0
   12.1350   14.4781   19.8241 C   0  0  0  0  0  0  0  0  0  0  0  0
   12.4958   16.3495   21.4306 C   0  0  0  0  0  0  0  0  0  0  0  0
   12.3220   13.4881   20.9649 C   0  0  0  0  0  0  0  0  0  0  0  0
   12.6216   15.3245   22.5574 C   0  0  0  0  0  0  0  0  0  0  0  0
    6.4377    9.3308   25.5293 C   0  0  0  0  0  0  0  0  0  0  0  0
   12.7687   15.7724   20.1037 N   0  0  0  0  0  0  0  0  0  0  0  0
   11.9054   14.0938   22.2332 N   0  0  0  0  0  0  0  0  0  0  0  0
   10.3636   12.3819   22.7397 N   0  0  0  0  0  0  0  0  0  0  0  0
   13.1429   16.3276   17.8726 O   0  0  0  0  0  0  0  0  0  0  0  0
   10.6753   14.1666   24.1880 O   0  0  0  0  0  0  0  0  0  0  0  0
    6.4017   12.3792   25.9859 Cl  0  0  0  0  0  0  0  0  0  0  0  0
    8.3303    8.4300   23.8515 H   0  0  0  0  0  0  0  0  0  0  0  0
   10.0320    9.7313   22.6395 H   0  0  0  0  0  0  0  0  0  0  0  0
    8.5216   13.3620   24.3872 H   0  0  0  0  0  0  0  0  0  0  0  0
   16.4875   17.3485   20.3423 H   0  0  0  0  0  0  0  0  0  0  0  0
   15.6293   15.7034   20.3011 H   0  0  0  0  0  0  0  0  0  0  0  0
   14.5325   18.3423   19.1592 H   0  0  0  0  0  0  0  0  0  0  0  0
   12.5883   14.0933   18.9004 H   0  0  0  0  0  0  0  0  0  0  0  0
   11.0658   14.6110   19.6191 H   0  0  0  0  0  0  0  0  0  0  0  0
   11.4811   16.7532   21.4095 H   0  0  0  0  0  0  0  0  0  0  0  0
   13.1914   17.1727   21.6014 H   0  0  0  0  0  0  0  0  0  0  0  0
   11.7095   12.6095   20.8015 H   0  0  0  0  0  0  0  0  0  0  0  0
   13.3625   13.1997   21.0393 H   0  0  0  0  0  0  0  0  0  0  0  0
   13.6705   15.0574   22.7147 H   0  0  0  0  0  0  0  0  0  0  0  0
   12.2519   15.7560   23.4898 H   0  0  0  0  0  0  0  0  0  0  0  0
    6.8278    9.0106   26.5018 H   0  0  0  0  0  0  0  0  0  0  0  0
    5.5124    9.8964   25.6916 H   0  0  0  0  0  0  0  0  0  0  0  0
    6.1707    8.4400   24.9479 H   0  0  0  0  0  0  0  0  0  0  0  0
   10.6746   11.9859   21.8108 H   0  0  0  0  0  0  0  0  0  0  0  0
  1  2  2  0  0  0  0
  1  4  1  0  0  0  0
  2  5  1  0  0  0  0
  3  5  2  0  0  0  0
  3  6  1  0  0  0  0
  4  6  2  0  0  0  0
  4 15  1  0  0  0  0
  5 18  1  0  0  0  0
  6 21  1  0  0  0  0
  7  8  2  0  0  0  0
  8  9  1  0  0  0  0
  9 16  1  0  0  0  0
  9 19  2  0  0  0  0
 10 17  1  0  0  0  0
 10 18  1  0  0  0  0
 10 20  2  0  0  0  0
 11 13  1  0  0  0  0
 11 16  1  0  0  0  0
 12 14  1  0  0  0  0
 12 16  1  0  0  0  0
 13 17  1  0  0  0  0
 14 17  1  0  0  0  0
  1 22  1  0  0  0  0
  2 23  1  0  0  0  0
  3 24  1  0  0  0  0
  7 25  1  0  0  0  0
  7 26  1  0  0  0  0
  8 27  1  0  0  0  0
 11 28  1  0  0  0  0
 11 29  1  0  0  0  0
 12 30  1  0  0  0  0
 12 31  1  0  0  0  0
 13 32  1  0  0  0  0
 13 33  1  0  0  0  0
 14 34  1  0  0  0  0
 14 35  1  0  0  0  0
 15 36  1  0  0  0  0
 15 37  1  0  0  0  0
 15 38  1  0  0  0  0
 18 39  1  0  0  0  0
M  END
> <Catalog ID>
Z1937966177

> <MW>
307.775

> <MW (desalted)>
307.775

> <ClogP>
2.647

> <logS>
-4.095

> <HBD>
1

> <HBA>
2

> <TPSA>
52.65

> <RotBonds>
2

> <ROCS_ShapeQuery>
A71EV2A-x0451_0A_A71EV2A-x0310_0A_A71EV2A-x0416_0A_peptide

> <ROCS_TanimotoCombo>
0.453 

> <ROCS_ShapeTanimoto>
0.325 

> <ROCS_ColorTanimoto>
0.128 

> <ROCS_RefTversky>
0.289 

> <ROCS_RefColorTversky>
0.140 

> <ROCS_RefTverskyCombo>
0.430 

> <ROCS_FitTversky>
1.624 

> <ROCS_FitColorTversky>
0.586 

> <ROCS_FitTverskyCombo>
2.210 

> <ROCS_ColorScore>
-4.272

> <ROCS_Overlap>
2007.259

> <ROCS_Rank>
133                 

$$$$
untitled-dbase-244_206
  -OEChem-11112315393D

 33 34  0     1  0  0  0  0  0999 V2000
   11.3732   15.1359   23.3997 C   0  0  0  0  0  0  0  0  0  0  0  0
   11.5719   14.5557   22.1691 C   0  0  0  0  0  0  0  0  0  0  0  0
   10.4404   13.2261   23.5139 C   0  0  0  0  0  0  0  0  0  0  0  0
    5.3088   12.5561   27.3258 C   0  0  0  0  0  0  0  0  0  0  0  0
    5.9225   12.4350   26.1468 C   0  0  0  0  0  0  0  0  0  0  0  0
    6.4382   11.1101   25.7433 C   0  0  0  0  0  0  0  0  0  0  0  0
    8.6004    9.8509   23.0502 C   0  0  0  0  0  0  0  0  0  0  0  0
    9.7033   10.8954   22.8620 C   0  0  0  0  0  0  0  0  0  0  0  0
    8.0965    9.7921   24.4862 C   0  0  0  0  0  0  0  0  0  0  0  0
    8.2629   12.2875   24.4300 C   0  0  0  0  0  0  0  0  0  0  0  0
    9.6924   11.9816   23.9533 C   0  0  2  0  0  0  0  0  0  0  0  0
   12.2527   15.0196   20.9510 C   0  0  0  0  0  0  0  0  0  0  0  0
   10.6685   14.3030   24.2324 N   0  0  0  0  0  0  0  0  0  0  0  0
   10.9691   13.3326   22.2576 N   0  0  0  0  0  0  0  0  0  0  0  0
    7.5613   11.0873   24.9170 N   0  0  0  0  0  0  0  0  0  0  0  0
    5.8450   10.1104   26.1505 O   0  0  0  0  0  0  0  0  0  0  0  0
   12.8009   16.2762   21.0499 F   0  0  0  0  0  0  0  0  0  0  0  0
   13.3001   14.2259   20.5488 F   0  0  0  0  0  0  0  0  0  0  0  0
   11.4271   15.0864   19.8559 F   0  0  0  0  0  0  0  0  0  0  0  0
   11.7013   16.1107   23.7309 H   0  0  0  0  0  0  0  0  0  0  0  0
    4.9095   13.5018   27.6767 H   0  0  0  0  0  0  0  0  0  0  0  0
    5.1943   11.6915   27.9710 H   0  0  0  0  0  0  0  0  0  0  0  0
    6.0556   13.2736   25.4758 H   0  0  0  0  0  0  0  0  0  0  0  0
    7.7633   10.0783   22.3732 H   0  0  0  0  0  0  0  0  0  0  0  0
    8.9799    8.8604   22.7519 H   0  0  0  0  0  0  0  0  0  0  0  0
   10.6858   10.3893   22.8403 H   0  0  0  0  0  0  0  0  0  0  0  0
    9.5898   11.3611   21.8643 H   0  0  0  0  0  0  0  0  0  0  0  0
    7.2883    9.0520   24.5849 H   0  0  0  0  0  0  0  0  0  0  0  0
    8.9100    9.4664   25.1489 H   0  0  0  0  0  0  0  0  0  0  0  0
    8.2701   13.0932   25.1831 H   0  0  0  0  0  0  0  0  0  0  0  0
    7.6542   12.6925   23.5966 H   0  0  0  0  0  0  0  0  0  0  0  0
   10.2673   11.5804   24.8373 H   0  0  0  0  0  0  0  0  0  0  0  0
   10.9223   12.6340   21.5274 H   0  0  0  0  0  0  0  0  0  0  0  0
  1  2  2  0  0  0  0
  1 13  1  0  0  0  0
  2 12  1  0  0  0  0
  2 14  1  0  0  0  0
  3 11  1  0  0  0  0
  3 13  2  0  0  0  0
  3 14  1  0  0  0  0
  4  5  2  0  0  0  0
  5  6  1  0  0  0  0
  6 15  1  0  0  0  0
  6 16  2  0  0  0  0
  7  8  1  0  0  0  0
  7  9  1  0  0  0  0
  8 11  1  0  0  0  0
  9 15  1  0  0  0  0
 10 11  1  0  0  0  0
 10 15  1  0  0  0  0
 12 17  1  0  0  0  0
 12 18  1  0  0  0  0
 12 19  1  0  0  0  0
  1 20  1  0  0  0  0
  4 21  1  0  0  0  0
  4 22  1  0  0  0  0
  5 23  1  0  0  0  0
  7 24  1  0  0  0  0
  7 25  1  0  0  0  0
  8 26  1  0  0  0  0
  8 27  1  0  0  0  0
  9 28  1  0  0  0  0
  9 29  1  0  0  0  0
 10 30  1  0  0  0  0
 10 31  1  0  0  0  0
 11 32  1  0  0  0  0
 14 33  1  0  0  0  0
M  END
> <Catalog ID>
Z2737383459

> <MW>
273.254

> <MW (desalted)>
273.254

> <ClogP>
1.247

> <logS>
-2.93

> <HBD>
1

> <HBA>
2

> <TPSA>
48.99

> <RotBonds>
3

> <ROCS_ShapeQuery>
A71EV2A-x0451_0A_A71EV2A-x0310_0A_A71EV2A-x0416_0A_peptide

> <ROCS_TanimotoCombo>
0.452 

> <ROCS_ShapeTanimoto>
0.325 

> <ROCS_ColorTanimoto>
0.127 

> <ROCS_RefTversky>
0.287 

> <ROCS_RefColorTversky>
0.143 

> <ROCS_RefTverskyCombo>
0.430 

> <ROCS_FitTversky>
1.698 

> <ROCS_FitColorTversky>
0.529 

> <ROCS_FitTverskyCombo>
2.227 

> <ROCS_ColorScore>
-4.359

> <ROCS_Overlap>
1990.217

> <ROCS_Rank>
134                 

$$$$
untitled-dbase-407_3
  -OEChem-11112315393D

 30 31  0     1  0  0  0  0  0999 V2000
    6.6569   11.4457   26.1227 C   0  0  0  0  0  0  0  0  0  0  0  0
    7.0325   12.7192   25.7422 C   0  0  0  0  0  0  0  0  0  0  0  0
    7.2962   10.3489   25.5517 C   0  0  0  0  0  0  0  0  0  0  0  0
    8.0475   12.8824   24.8000 C   0  0  0  0  0  0  0  0  0  0  0  0
    8.3309   10.4889   24.5951 C   0  0  0  0  0  0  0  0  0  0  0  0
    8.7280   11.7850   24.2149 C   0  0  0  0  0  0  0  0  0  0  0  0
    9.8394    8.8855   23.2951 C   0  0  0  0  0  0  0  0  0  0  0  0
   10.5890   13.1962   23.4369 C   0  0  0  0  0  0  0  0  0  0  0  0
   10.6683    9.9165   22.5919 C   0  0  0  0  0  0  0  0  0  0  0  0
    9.9235   11.1480   22.1150 C   0  0  1  0  0  0  0  0  0  0  0  0
   11.7350   13.3691   22.4681 C   0  0  0  0  0  0  0  0  0  0  0  0
    8.6545   10.8772   21.2990 C   0  0  0  0  0  0  0  0  0  0  0  0
    8.8528    9.2465   24.1653 N   0  0  0  0  0  0  0  0  0  0  0  0
    9.7359   12.0868   23.2326 N   0  0  0  0  0  0  0  0  0  0  0  0
   10.0981    7.6890   23.1125 O   0  0  0  0  0  0  0  0  0  0  0  0
   10.4783   14.0143   24.3558 O   0  0  0  0  0  0  0  0  0  0  0  0
    8.9382   10.0600   20.2760 F   0  0  0  0  0  0  0  0  0  0  0  0
    7.7285   10.3015   22.0772 F   0  0  0  0  0  0  0  0  0  0  0  0
    8.1693   12.0298   20.8185 F   0  0  0  0  0  0  0  0  0  0  0  0
   11.1207   14.3362   21.1330 Cl  0  0  0  0  0  0  0  0  0  0  0  0
    5.8669   11.3000   26.8527 H   0  0  0  0  0  0  0  0  0  0  0  0
    6.5338   13.5876   26.1616 H   0  0  0  0  0  0  0  0  0  0  0  0
    6.9737    9.3580   25.8708 H   0  0  0  0  0  0  0  0  0  0  0  0
    8.2664   13.9036   24.4934 H   0  0  0  0  0  0  0  0  0  0  0  0
   11.5057   10.1885   23.2463 H   0  0  0  0  0  0  0  0  0  0  0  0
   11.1121    9.4242   21.7157 H   0  0  0  0  0  0  0  0  0  0  0  0
   10.5999   11.6110   21.3928 H   0  0  0  0  0  0  0  0  0  0  0  0
   12.0412   12.3929   22.1125 H   0  0  0  0  0  0  0  0  0  0  0  0
   12.5396   13.8925   22.9698 H   0  0  0  0  0  0  0  0  0  0  0  0
    8.3923    8.4488   24.5996 H   0  0  0  0  0  0  0  0  0  0  0  0
  1  2  1  0  0  0  0
  1  3  2  0  0  0  0
  2  4  2  0  0  0  0
  3  5  1  0  0  0  0
  4  6  1  0  0  0  0
  5  6  2  0  0  0  0
  5 13  1  0  0  0  0
  6 14  1  0  0  0  0
  7  9  1  0  0  0  0
  7 13  1  0  0  0  0
  7 15  2  0  0  0  0
  8 11  1  0  0  0  0
  8 14  1  0  0  0  0
  8 16  2  0  0  0  0
  9 10  1  0  0  0  0
 10 12  1  0  0  0  0
 10 14  1  0  0  0  0
 11 20  1  0  0  0  0
 12 17  1  0  0  0  0
 12 18  1  0  0  0  0
 12 19  1  0  0  0  0
  1 21  1  0  0  0  0
  2 22  1  0  0  0  0
  3 23  1  0  0  0  0
  4 24  1  0  0  0  0
  9 25  1  0  0  0  0
  9 26  1  0  0  0  0
 10 27  1  0  0  0  0
 11 28  1  0  0  0  0
 11 29  1  0  0  0  0
 13 30  1  0  0  0  0
M  END
> <Catalog ID>
Z223437772

> <MW>
306.038

> <MW (desalted)>
306.668

> <ClogP>
1.992

> <logS>
-3.86

> <HBD>
1

> <HBA>
2

> <TPSA>
49.41

> <RotBonds>
2

> <ROCS_ShapeQuery>
A71EV2A-x0451_0A_A71EV2A-x0310_0A_A71EV2A-x0416_0A_peptide

> <ROCS_TanimotoCombo>
0.452 

> <ROCS_ShapeTanimoto>
0.314 

> <ROCS_ColorTanimoto>
0.138 

> <ROCS_RefTversky>
0.281 

> <ROCS_RefColorTversky>
0.147 

> <ROCS_RefTverskyCombo>
0.428 

> <ROCS_FitTversky>
1.588 

> <ROCS_FitColorTversky>
0.703 

> <ROCS_FitTverskyCombo>
2.292 

> <ROCS_ColorScore>
-4.457

> <ROCS_Overlap>
1950.793

> <ROCS_Rank>
135                 

$$$$
untitled-dbase-700_88
  -OEChem-11112315393D

 36 38  0     1  0  0  0  0  0999 V2000
    9.5905    9.9806   22.8724 C   0  0  0  0  0  0  0  0  0  0  0  0
   10.0997   11.2727   22.7382 C   0  0  0  0  0  0  0  0  0  0  0  0
    8.5289    9.7338   23.7432 C   0  0  0  0  0  0  0  0  0  0  0  0
    9.5564   12.3200   23.4825 C   0  0  0  0  0  0  0  0  0  0  0  0
    7.9753   10.7833   24.4771 C   0  0  0  0  0  0  0  0  0  0  0  0
    8.5035   12.0717   24.3633 C   0  0  0  0  0  0  0  0  0  0  0  0
   12.9166   11.1784   24.8162 C   0  0  0  0  0  0  0  0  0  0  0  0
   12.1794   12.2910   24.8055 C   0  0  0  0  0  0  0  0  0  0  0  0
   12.5285   13.3725   23.8524 C   0  0  0  0  0  0  0  0  0  0  0  0
   10.3735   14.2614   20.9697 C   0  0  0  0  0  0  0  0  0  0  0  0
    9.4509   14.4920   22.1630 C   0  0  0  0  0  0  0  0  0  0  0  0
   11.7571   14.2169   21.5996 C   0  0  0  0  0  0  0  0  0  0  0  0
    6.2231   11.6575   25.7224 C   0  0  0  0  0  0  0  0  0  0  0  0
    7.2078   12.7170   26.1776 C   0  0  0  0  0  0  0  0  0  0  0  0
   10.1193   13.7198   23.3059 C   0  0  2  0  0  0  0  0  0  0  0  0
   11.5395   13.7052   22.9500 N   0  0  0  0  0  0  0  0  0  0  0  0
   13.6469   13.8550   23.9597 O   0  0  0  0  0  0  0  0  0  0  0  0
    6.9205   10.4828   25.2988 O   0  0  0  0  0  0  0  0  0  0  0  0
    8.0256   13.1364   25.0817 O   0  0  0  0  0  0  0  0  0  0  0  0
   10.0241    9.1647   22.3016 H   0  0  0  0  0  0  0  0  0  0  0  0
   10.9189   11.4532   22.0467 H   0  0  0  0  0  0  0  0  0  0  0  0
    8.1485    8.7219   23.8525 H   0  0  0  0  0  0  0  0  0  0  0  0
   12.7107   10.3534   25.4898 H   0  0  0  0  0  0  0  0  0  0  0  0
   13.7553   11.0748   24.1359 H   0  0  0  0  0  0  0  0  0  0  0  0
   11.3354   12.4312   25.4681 H   0  0  0  0  0  0  0  0  0  0  0  0
   10.1426   13.3006   20.4949 H   0  0  0  0  0  0  0  0  0  0  0  0
   10.2819   15.0490   20.2165 H   0  0  0  0  0  0  0  0  0  0  0  0
    9.4391   15.5630   22.4019 H   0  0  0  0  0  0  0  0  0  0  0  0
    8.4233   14.1790   21.9517 H   0  0  0  0  0  0  0  0  0  0  0  0
   12.4432   13.5734   21.0416 H   0  0  0  0  0  0  0  0  0  0  0  0
   12.1897   15.2198   21.6842 H   0  0  0  0  0  0  0  0  0  0  0  0
    5.5269   11.3817   26.5241 H   0  0  0  0  0  0  0  0  0  0  0  0
    5.6386   12.0222   24.8721 H   0  0  0  0  0  0  0  0  0  0  0  0
    6.6949   13.5954   26.5883 H   0  0  0  0  0  0  0  0  0  0  0  0
    7.8688   12.3145   26.9515 H   0  0  0  0  0  0  0  0  0  0  0  0
    9.9939   14.2516   24.2772 H   0  0  0  0  0  0  0  0  0  0  0  0
  1  2  2  0  0  0  0
  1  3  1  0  0  0  0
  2  4  1  0  0  0  0
  3  5  2  0  0  0  0
  4  6  2  0  0  0  0
  4 15  1  0  0  0  0
  5  6  1  0  0  0  0
  5 18  1  0  0  0  0
  6 19  1  0  0  0  0
  7  8  2  0  0  0  0
  8  9  1  0  0  0  0
  9 16  1  0  0  0  0
  9 17  2  0  0  0  0
 10 11  1  0  0  0  0
 10 12  1  0  0  0  0
 11 15  1  0  0  0  0
 12 16  1  0  0  0  0
 13 14  1  0  0  0  0
 13 18  1  0  0  0  0
 14 19  1  0  0  0  0
 15 16  1  0  0  0  0
  1 20  1  0  0  0  0
  2 21  1  0  0  0  0
  3 22  1  0  0  0  0
  7 23  1  0  0  0  0
  7 24  1  0  0  0  0
  8 25  1  0  0  0  0
 10 26  1  0  0  0  0
 10 27  1  0  0  0  0
 11 28  1  0  0  0  0
 11 29  1  0  0  0  0
 12 30  1  0  0  0  0
 12 31  1  0  0  0  0
 13 32  1  0  0  0  0
 13 33  1  0  0  0  0
 14 34  1  0  0  0  0
 14 35  1  0  0  0  0
 15 36  1  0  0  0  0
M  END
> <Catalog ID>
Z1938145906

> <MW>
259.3

> <MW (desalted)>
259.3

> <ClogP>
1.649

> <logS>
-3.332

> <HBD>
0

> <HBA>
3

> <TPSA>
38.77

> <RotBonds>
2

> <ROCS_ShapeQuery>
A71EV2A-x0451_0A_A71EV2A-x0310_0A_A71EV2A-x0416_0A_peptide

> <ROCS_TanimotoCombo>
0.451 

> <ROCS_ShapeTanimoto>
0.333 

> <ROCS_ColorTanimoto>
0.119 

> <ROCS_RefTversky>
0.292 

> <ROCS_RefColorTversky>
0.135 

> <ROCS_RefTverskyCombo>
0.427 

> <ROCS_FitTversky>
1.708 

> <ROCS_FitColorTversky>
0.498 

> <ROCS_FitTverskyCombo>
2.207 

> <ROCS_ColorScore>
-4.108

> <ROCS_Overlap>
2028.556

> <ROCS_Rank>
136                 

$$$$
untitled-dbase-670_7
  -OEChem-11112315393D

 27 28  0     0  0  0  0  0  0999 V2000
    8.5478   10.2261   23.7279 C   0  0  0  0  0  0  0  0  0  0  0  0
    7.4652   10.1781   24.6290 C   0  0  0  0  0  0  0  0  0  0  0  0
    7.1800   11.4042   25.1636 C   0  0  0  0  0  0  0  0  0  0  0  0
    9.0378   11.5187   23.6252 C   0  0  0  0  0  0  0  0  0  0  0  0
    9.0948    9.1117   23.0009 C   0  0  0  0  0  0  0  0  0  0  0  0
   10.8730   13.1400   23.2178 C   0  0  0  0  0  0  0  0  0  0  0  0
    6.5459    9.1379   25.1498 C   0  0  0  0  0  0  0  0  0  0  0  0
    6.0459   11.3982   26.1159 C   0  0  0  0  0  0  0  0  0  0  0  0
    5.8738    9.8659   26.3573 C   0  0  0  0  0  0  0  0  0  0  0  0
   11.9165   13.4357   22.1656 C   0  0  0  0  0  0  0  0  0  0  0  0
    8.5174    7.8508   23.1868 N   0  0  0  0  0  0  0  0  0  0  0  0
   10.0666   12.0375   22.8857 N   0  0  0  0  0  0  0  0  0  0  0  0
   10.0723    9.2379   22.2292 O   0  0  0  0  0  0  0  0  0  0  0  0
   10.7883   13.8462   24.2189 O   0  0  0  0  0  0  0  0  0  0  0  0
    8.1714   12.6372   24.6225 S   0  0  0  0  0  0  0  0  0  0  0  0
   11.2085   14.5728   21.0074 Cl  0  0  0  0  0  0  0  0  0  0  0  0
    5.8002    8.8205   24.4154 H   0  0  0  0  0  0  0  0  0  0  0  0
    7.1104    8.2657   25.4958 H   0  0  0  0  0  0  0  0  0  0  0  0
    6.3167   11.9048   27.0478 H   0  0  0  0  0  0  0  0  0  0  0  0
    5.1331   11.8400   25.7078 H   0  0  0  0  0  0  0  0  0  0  0  0
    4.8024    9.6255   26.3659 H   0  0  0  0  0  0  0  0  0  0  0  0
    6.2899    9.5471   27.3181 H   0  0  0  0  0  0  0  0  0  0  0  0
   12.2413   12.5411   21.6283 H   0  0  0  0  0  0  0  0  0  0  0  0
   12.7871   13.9007   22.6367 H   0  0  0  0  0  0  0  0  0  0  0  0
    7.7343    7.7580   23.8247 H   0  0  0  0  0  0  0  0  0  0  0  0
    8.8580    7.0263   22.7029 H   0  0  0  0  0  0  0  0  0  0  0  0
   10.2715   11.5704   21.9910 H   0  0  0  0  0  0  0  0  0  0  0  0
  1  2  1  0  0  0  0
  1  4  2  0  0  0  0
  1  5  1  0  0  0  0
  2  3  2  0  0  0  0
  2  7  1  0  0  0  0
  3  8  1  0  0  0  0
  3 15  1  0  0  0  0
  4 12  1  0  0  0  0
  4 15  1  0  0  0  0
  5 11  1  0  0  0  0
  5 13  2  0  0  0  0
  6 10  1  0  0  0  0
  6 12  1  0  0  0  0
  6 14  2  0  0  0  0
  7  9  1  0  0  0  0
  8  9  1  0  0  0  0
 10 16  1  0  0  0  0
  7 17  1  0  0  0  0
  7 18  1  0  0  0  0
  8 19  1  0  0  0  0
  8 20  1  0  0  0  0
  9 21  1  0  0  0  0
  9 22  1  0  0  0  0
 10 23  1  0  0  0  0
 10 24  1  0  0  0  0
 11 25  1  0  0  0  0
 11 26  1  0  0  0  0
 12 27  1  0  0  0  0
M  END
> <Catalog ID>
Z56887705

> <MW>
258.023

> <MW (desalted)>
258.725

> <ClogP>
1.739

> <logS>
-3.47

> <HBD>
2

> <HBA>
2

> <TPSA>
72.19

> <RotBonds>
3

> <ROCS_ShapeQuery>
A71EV2A-x0451_0A_A71EV2A-x0310_0A_A71EV2A-x0416_0A_peptide

> <ROCS_TanimotoCombo>
0.451 

> <ROCS_ShapeTanimoto>
0.304 

> <ROCS_ColorTanimoto>
0.147 

> <ROCS_RefTversky>
0.267 

> <ROCS_RefColorTversky>
0.159 

> <ROCS_RefTverskyCombo>
0.427 

> <ROCS_FitTversky>
1.823 

> <ROCS_FitColorTversky>
0.662 

> <ROCS_FitTverskyCombo>
2.484 

> <ROCS_ColorScore>
-4.843

> <ROCS_Overlap>
1853.257

> <ROCS_Rank>
137                 

$$$$
untitled-dbase-703_36
  -OEChem-11112315393D

 36 38  0     0  0  0  0  0  0999 V2000
    7.8823   10.5897   24.8499 C   0  0  0  0  0  0  0  0  0  0  0  0
    8.8525   11.5655   23.1557 C   0  0  0  0  0  0  0  0  0  0  0  0
   13.5577   12.6805   23.4576 C   0  0  0  0  0  0  0  0  0  0  0  0
   12.7829   13.7692   23.4291 C   0  0  0  0  0  0  0  0  0  0  0  0
   11.3013   13.6393   23.4418 C   0  0  0  0  0  0  0  0  0  0  0  0
    7.1501   10.4539   26.1351 C   0  0  0  0  0  0  0  0  0  0  0  0
    6.3820   11.7332   26.4844 C   0  0  0  0  0  0  0  0  0  0  0  0
    8.8998   13.9710   20.4891 C   0  0  0  0  0  0  0  0  0  0  0  0
    7.2524   12.9755   26.2698 C   0  0  0  0  0  0  0  0  0  0  0  0
    8.5990   13.9936   21.9982 C   0  0  0  0  0  0  0  0  0  0  0  0
    9.0941   12.4496   20.6138 C   0  0  0  0  0  0  0  0  0  0  0  0
    7.7066   13.0801   24.8124 C   0  0  0  0  0  0  0  0  0  0  0  0
    9.4141   12.6583   22.1373 C   0  0  0  0  0  0  0  0  0  0  0  0
    8.4019    9.6483   24.0899 N   0  0  0  0  0  0  0  0  0  0  0  0
    9.0155   10.2680   23.0157 N   0  0  0  0  0  0  0  0  0  0  0  0
    8.1532   11.8077   24.2916 N   0  0  0  0  0  0  0  0  0  0  0  0
   10.8527   12.9236   22.3556 N   0  0  0  0  0  0  0  0  0  0  0  0
   10.6036   14.1259   24.3258 O   0  0  0  0  0  0  0  0  0  0  0  0
   14.6377   12.7833   23.4469 H   0  0  0  0  0  0  0  0  0  0  0  0
   13.1521   11.6754   23.4925 H   0  0  0  0  0  0  0  0  0  0  0  0
   13.2291   14.7571   23.3949 H   0  0  0  0  0  0  0  0  0  0  0  0
    6.4465    9.6172   26.0488 H   0  0  0  0  0  0  0  0  0  0  0  0
    7.8485   10.2100   26.9428 H   0  0  0  0  0  0  0  0  0  0  0  0
    5.4755   11.7975   25.8723 H   0  0  0  0  0  0  0  0  0  0  0  0
    6.0602   11.6958   27.5332 H   0  0  0  0  0  0  0  0  0  0  0  0
    8.0846   14.2944   19.8371 H   0  0  0  0  0  0  0  0  0  0  0  0
    9.8123   14.5113   20.2126 H   0  0  0  0  0  0  0  0  0  0  0  0
    6.6760   13.8691   26.5406 H   0  0  0  0  0  0  0  0  0  0  0  0
    8.1273   12.9448   26.9285 H   0  0  0  0  0  0  0  0  0  0  0  0
    8.9931   14.8610   22.5362 H   0  0  0  0  0  0  0  0  0  0  0  0
    7.5311   13.8989   22.2304 H   0  0  0  0  0  0  0  0  0  0  0  0
    8.1784   11.8780   20.4183 H   0  0  0  0  0  0  0  0  0  0  0  0
    9.8978   12.0333   19.9993 H   0  0  0  0  0  0  0  0  0  0  0  0
    6.8883   13.4433   24.1822 H   0  0  0  0  0  0  0  0  0  0  0  0
    8.5537   13.7698   24.7238 H   0  0  0  0  0  0  0  0  0  0  0  0
   11.4890   12.5811   21.6519 H   0  0  0  0  0  0  0  0  0  0  0  0
  1  6  1  0  0  0  0
  1 14  2  0  0  0  0
  1 16  1  0  0  0  0
  2 13  1  0  0  0  0
  2 15  2  0  0  0  0
  2 16  1  0  0  0  0
  3  4  2  0  0  0  0
  4  5  1  0  0  0  0
  5 17  1  0  0  0  0
  5 18  2  0  0  0  0
  6  7  1  0  0  0  0
  7  9  1  0  0  0  0
  8 10  1  0  0  0  0
  8 11  1  0  0  0  0
  9 12  1  0  0  0  0
 10 13  1  0  0  0  0
 11 13  1  0  0  0  0
 12 16  1  0  0  0  0
 13 17  1  0  0  0  0
 14 15  1  0  0  0  0
  3 19  1  0  0  0  0
  3 20  1  0  0  0  0
  4 21  1  0  0  0  0
  6 22  1  0  0  0  0
  6 23  1  0  0  0  0
  7 24  1  0  0  0  0
  7 25  1  0  0  0  0
  8 26  1  0  0  0  0
  8 27  1  0  0  0  0
  9 28  1  0  0  0  0
  9 29  1  0  0  0  0
 10 30  1  0  0  0  0
 10 31  1  0  0  0  0
 11 32  1  0  0  0  0
 11 33  1  0  0  0  0
 12 34  1  0  0  0  0
 12 35  1  0  0  0  0
 17 36  1  0  0  0  0
M  END
> <Catalog ID>
Z2285378239

> <MW>
246.308

> <MW (desalted)>
246.308

> <ClogP>
-0.292

> <logS>
-1.761

> <HBD>
1

> <HBA>
3

> <TPSA>
59.81

> <RotBonds>
3

> <ROCS_ShapeQuery>
A71EV2A-x0451_0A_A71EV2A-x0310_0A_A71EV2A-x0416_0A_peptide

> <ROCS_TanimotoCombo>
0.451 

> <ROCS_ShapeTanimoto>
0.278 

> <ROCS_ColorTanimoto>
0.173 

> <ROCS_RefTversky>
0.253 

> <ROCS_RefColorTversky>
0.193 

> <ROCS_RefTverskyCombo>
0.446 

> <ROCS_FitTversky>
1.551 

> <ROCS_FitColorTversky>
0.622 

> <ROCS_FitTverskyCombo>
2.173 

> <ROCS_ColorScore>
-5.902

> <ROCS_Overlap>
1754.927

> <ROCS_Rank>
138                 

$$$$
untitled-dbase-194_25
  -OEChem-11112315393D

 25 26  0     0  0  0  0  0  0999 V2000
    6.2755   11.8273   25.8611 C   0  0  0  0  0  0  0  0  0  0  0  0
    6.7507   12.9483   25.1871 C   0  0  0  0  0  0  0  0  0  0  0  0
    9.7361    9.1108   23.7835 C   0  0  0  0  0  0  0  0  0  0  0  0
    6.8959   10.5904   25.6837 C   0  0  0  0  0  0  0  0  0  0  0  0
    7.8483   12.8367   24.3331 C   0  0  0  0  0  0  0  0  0  0  0  0
    8.6386    9.2225   24.6375 C   0  0  0  0  0  0  0  0  0  0  0  0
   10.2113   10.2318   23.1094 C   0  0  0  0  0  0  0  0  0  0  0  0
    8.0018   10.4596   24.8280 C   0  0  0  0  0  0  0  0  0  0  0  0
    8.4851   11.5996   24.1425 C   0  0  0  0  0  0  0  0  0  0  0  0
    9.5909   11.4688   23.2868 C   0  0  0  0  0  0  0  0  0  0  0  0
   10.6223   13.7225   23.1465 C   0  0  0  0  0  0  0  0  0  0  0  0
   11.0995   14.6910   22.0893 C   0  0  0  0  0  0  0  0  0  0  0  0
   10.1126   12.5614   22.5837 N   0  0  0  0  0  0  0  0  0  0  0  0
   10.6965   14.0207   24.3355 O   0  0  0  0  0  0  0  0  0  0  0  0
   12.4342   15.6285   22.7786 Cl  0  0  0  0  0  0  0  0  0  0  0  0
    5.4209   11.9149   26.5257 H   0  0  0  0  0  0  0  0  0  0  0  0
    6.2671   13.9109   25.3260 H   0  0  0  0  0  0  0  0  0  0  0  0
   10.2194    8.1480   23.6452 H   0  0  0  0  0  0  0  0  0  0  0  0
    6.5073    9.7275   26.2206 H   0  0  0  0  0  0  0  0  0  0  0  0
    8.1889   13.7363   23.8254 H   0  0  0  0  0  0  0  0  0  0  0  0
    8.2843    8.3330   25.1544 H   0  0  0  0  0  0  0  0  0  0  0  0
   11.0675   10.1296   22.4472 H   0  0  0  0  0  0  0  0  0  0  0  0
   10.3167   15.3798   21.7618 H   0  0  0  0  0  0  0  0  0  0  0  0
   11.4647   14.1329   21.2225 H   0  0  0  0  0  0  0  0  0  0  0  0
   10.1185   12.4982   21.5695 H   0  0  0  0  0  0  0  0  0  0  0  0
  1  2  1  0  0  0  0
  1  4  2  0  0  0  0
  2  5  2  0  0  0  0
  3  6  1  0  0  0  0
  3  7  2  0  0  0  0
  4  8  1  0  0  0  0
  5  9  1  0  0  0  0
  6  8  2  0  0  0  0
  7 10  1  0  0  0  0
  8  9  1  0  0  0  0
  9 10  2  0  0  0  0
 10 13  1  0  0  0  0
 11 12  1  0  0  0  0
 11 13  1  0  0  0  0
 11 14  2  0  0  0  0
 12 15  1  0  0  0  0
  1 16  1  0  0  0  0
  2 17  1  0  0  0  0
  3 18  1  0  0  0  0
  4 19  1  0  0  0  0
  5 20  1  0  0  0  0
  6 21  1  0  0  0  0
  7 22  1  0  0  0  0
 12 23  1  0  0  0  0
 12 24  1  0  0  0  0
 13 25  1  0  0  0  0
M  END
> <Catalog ID>
Z56862401

> <MW>
219.045

> <MW (desalted)>
219.667

> <ClogP>
2.948

> <logS>
-4.08

> <HBD>
1

> <HBA>
1

> <TPSA>
29.1

> <RotBonds>
2

> <ROCS_ShapeQuery>
A71EV2A-x0451_0A_A71EV2A-x0310_0A_A71EV2A-x0416_0A_peptide

> <ROCS_TanimotoCombo>
0.451 

> <ROCS_ShapeTanimoto>
0.308 

> <ROCS_ColorTanimoto>
0.142 

> <ROCS_RefTversky>
0.269 

> <ROCS_RefColorTversky>
0.147 

> <ROCS_RefTverskyCombo>
0.416 

> <ROCS_FitTversky>
1.876 

> <ROCS_FitColorTversky>
0.826 

> <ROCS_FitTverskyCombo>
2.702 

> <ROCS_ColorScore>
-4.454

> <ROCS_Overlap>
1867.283

> <ROCS_Rank>
139                 

$$$$
untitled-dbase-836_1051
  -OEChem-11112315393D

 40 42  0     0  0  0  0  0  0999 V2000
   13.5531   16.6025   18.2917 C   0  0  0  0  0  0  0  0  0  0  0  0
   14.5745   16.2817   19.1809 C   0  0  0  0  0  0  0  0  0  0  0  0
   12.2483   16.1781   18.5440 C   0  0  0  0  0  0  0  0  0  0  0  0
   14.2949   15.5352   20.3260 C   0  0  0  0  0  0  0  0  0  0  0  0
   10.6410   14.9906   19.9614 C   0  0  0  0  0  0  0  0  0  0  0  0
   10.3614   14.2441   21.1064 C   0  0  0  0  0  0  0  0  0  0  0  0
   12.6876   14.3476   21.7434 C   0  0  0  0  0  0  0  0  0  0  0  0
   11.9486   15.4260   19.6916 C   0  0  0  0  0  0  0  0  0  0  0  0
   12.9873   15.0997   20.5959 C   0  0  0  0  0  0  0  0  0  0  0  0
   11.3827   13.9232   21.9957 C   0  0  0  0  0  0  0  0  0  0  0  0
    7.2240    9.6387   25.2412 C   0  0  0  0  0  0  0  0  0  0  0  0
    9.5457   10.0070   24.2692 C   0  0  0  0  0  0  0  0  0  0  0  0
    8.0257   11.9117   24.6809 C   0  0  0  0  0  0  0  0  0  0  0  0
    9.8689   10.5665   22.8879 C   0  0  0  0  0  0  0  0  0  0  0  0
    8.3456   12.4680   23.2989 C   0  0  0  0  0  0  0  0  0  0  0  0
    7.5419    8.1679   25.3384 C   0  0  0  0  0  0  0  0  0  0  0  0
    8.2232   10.4603   24.7207 N   0  0  0  0  0  0  0  0  0  0  0  0
    9.7122   12.0488   22.8761 N   0  0  0  0  0  0  0  0  0  0  0  0
    6.1198   10.0430   25.6142 O   0  0  0  0  0  0  0  0  0  0  0  0
   12.1521   12.1033   23.6896 O   0  0  0  0  0  0  0  0  0  0  0  0
   10.5515   13.8882   24.4639 O   0  0  0  0  0  0  0  0  0  0  0  0
   11.0265   12.9787   23.4437 S   0  0  0  0  0  0  0  0  0  0  0  0
    7.0002    7.4348   23.8328 Cl  0  0  0  0  0  0  0  0  0  0  0  0
   13.7714   17.1844   17.4009 H   0  0  0  0  0  0  0  0  0  0  0  0
   15.5897   16.6135   18.9843 H   0  0  0  0  0  0  0  0  0  0  0  0
   11.4655   16.4407   17.8353 H   0  0  0  0  0  0  0  0  0  0  0  0
   15.1089   15.2963   21.0071 H   0  0  0  0  0  0  0  0  0  0  0  0
    9.8270   15.2307   19.2809 H   0  0  0  0  0  0  0  0  0  0  0  0
    9.3417   13.9179   21.2936 H   0  0  0  0  0  0  0  0  0  0  0  0
   13.4785   14.0915   22.4463 H   0  0  0  0  0  0  0  0  0  0  0  0
    9.5103    8.9107   24.2391 H   0  0  0  0  0  0  0  0  0  0  0  0
   10.3354   10.2871   24.9691 H   0  0  0  0  0  0  0  0  0  0  0  0
    8.6425   12.4105   25.4355 H   0  0  0  0  0  0  0  0  0  0  0  0
    6.9755   12.0989   24.9372 H   0  0  0  0  0  0  0  0  0  0  0  0
   10.8945   10.2978   22.5914 H   0  0  0  0  0  0  0  0  0  0  0  0
    9.1791   10.1233   22.1547 H   0  0  0  0  0  0  0  0  0  0  0  0
    7.6085   12.0813   22.5802 H   0  0  0  0  0  0  0  0  0  0  0  0
    8.2755   13.5665   23.2965 H   0  0  0  0  0  0  0  0  0  0  0  0
    6.9976    7.7451   26.1751 H   0  0  0  0  0  0  0  0  0  0  0  0
    8.6136    8.0464   25.4472 H   0  0  0  0  0  0  0  0  0  0  0  0
  1  2  1  0  0  0  0
  1  3  2  0  0  0  0
  2  4  2  0  0  0  0
  3  8  1  0  0  0  0
  4  9  1  0  0  0  0
  5  6  2  0  0  0  0
  5  8  1  0  0  0  0
  6 10  1  0  0  0  0
  7  9  1  0  0  0  0
  7 10  2  0  0  0  0
  8  9  2  0  0  0  0
 10 22  1  0  0  0  0
 11 16  1  0  0  0  0
 11 17  1  0  0  0  0
 11 19  2  0  0  0  0
 12 14  1  0  0  0  0
 12 17  1  0  0  0  0
 13 15  1  0  0  0  0
 13 17  1  0  0  0  0
 14 18  1  0  0  0  0
 15 18  1  0  0  0  0
 16 23  1  0  0  0  0
 18 22  1  0  0  0  0
 20 22  2  0  0  0  0
 21 22  2  0  0  0  0
  1 24  1  0  0  0  0
  2 25  1  0  0  0  0
  3 26  1  0  0  0  0
  4 27  1  0  0  0  0
  5 28  1  0  0  0  0
  6 29  1  0  0  0  0
  7 30  1  0  0  0  0
 12 31  1  0  0  0  0
 12 32  1  0  0  0  0
 13 33  1  0  0  0  0
 13 34  1  0  0  0  0
 14 35  1  0  0  0  0
 14 36  1  0  0  0  0
 15 37  1  0  0  0  0
 15 38  1  0  0  0  0
 16 39  1  0  0  0  0
 16 40  1  0  0  0  0
M  END
> <Catalog ID>
Z56896883

> <MW>
352.065

> <MW (desalted)>
352.836

> <ClogP>
2.651

> <logS>
-4.63

> <HBD>
0

> <HBA>
3

> <TPSA>
57.69

> <RotBonds>
2

> <ROCS_ShapeQuery>
A71EV2A-x0451_0A_A71EV2A-x0310_0A_A71EV2A-x0416_0A_peptide

> <ROCS_TanimotoCombo>
0.451 

> <ROCS_ShapeTanimoto>
0.321 

> <ROCS_ColorTanimoto>
0.130 

> <ROCS_RefTversky>
0.289 

> <ROCS_RefColorTversky>
0.143 

> <ROCS_RefTverskyCombo>
0.432 

> <ROCS_FitTversky>
1.522 

> <ROCS_FitColorTversky>
0.595 

> <ROCS_FitTverskyCombo>
2.117 

> <ROCS_ColorScore>
-4.343

> <ROCS_Overlap>
2006.392

> <ROCS_Rank>
140                 

$$$$
untitled-dbase-15_107
  -OEChem-11112315393D

 23 23  0     0  0  0  0  0  0999 V2000
    7.5505   11.1897   24.9459 C   0  0  0  0  0  0  0  0  0  0  0  0
    8.4248   12.2459   24.6897 C   0  0  0  0  0  0  0  0  0  0  0  0
    7.7374    9.9605   24.3136 C   0  0  0  0  0  0  0  0  0  0  0  0
    9.6729   10.8437   23.1687 C   0  0  0  0  0  0  0  0  0  0  0  0
    9.4859   12.0729   23.8011 C   0  0  0  0  0  0  0  0  0  0  0  0
    8.7986    9.7875   23.4250 C   0  0  0  0  0  0  0  0  0  0  0  0
   10.4165   13.1989   23.5282 C   0  0  0  0  0  0  0  0  0  0  0  0
   13.0093   14.4101   22.7558 C   0  0  0  0  0  0  0  0  0  0  0  0
   13.8416   15.5753   22.2872 C   0  0  0  0  0  0  0  0  0  0  0  0
   11.0350   13.1786   22.2927 N   0  0  0  0  0  0  0  0  0  0  0  0
   11.8951   14.1994   21.9679 N   0  0  0  0  0  0  0  0  0  0  0  0
   10.5732   14.0705   24.3796 O   0  0  0  0  0  0  0  0  0  0  0  0
   13.3136   13.7520   23.7491 O   0  0  0  0  0  0  0  0  0  0  0  0
    9.0289    8.2703   22.6455 Cl  0  0  0  0  0  0  0  0  0  0  0  0
   12.7525   16.7617   21.5519 Cl  0  0  0  0  0  0  0  0  0  0  0  0
    6.7245   11.3245   25.6380 H   0  0  0  0  0  0  0  0  0  0  0  0
    8.2687   13.1990   25.1884 H   0  0  0  0  0  0  0  0  0  0  0  0
    7.0481    9.1466   24.5231 H   0  0  0  0  0  0  0  0  0  0  0  0
   10.5019   10.7115   22.4764 H   0  0  0  0  0  0  0  0  0  0  0  0
   14.3441   16.0318   23.1443 H   0  0  0  0  0  0  0  0  0  0  0  0
   14.5910   15.2826   21.5473 H   0  0  0  0  0  0  0  0  0  0  0  0
   10.8574   12.4245   21.6383 H   0  0  0  0  0  0  0  0  0  0  0  0
   11.7145   14.7889   21.1622 H   0  0  0  0  0  0  0  0  0  0  0  0
  1  2  2  0  0  0  0
  1  3  1  0  0  0  0
  2  5  1  0  0  0  0
  3  6  2  0  0  0  0
  4  5  2  0  0  0  0
  4  6  1  0  0  0  0
  5  7  1  0  0  0  0
  6 14  1  0  0  0  0
  7 10  1  0  0  0  0
  7 12  2  0  0  0  0
  8  9  1  0  0  0  0
  8 11  1  0  0  0  0
  8 13  2  0  0  0  0
  9 15  1  0  0  0  0
 10 11  1  0  0  0  0
  1 16  1  0  0  0  0
  2 17  1  0  0  0  0
  3 18  1  0  0  0  0
  4 19  1  0  0  0  0
  9 20  1  0  0  0  0
  9 21  1  0  0  0  0
 10 22  1  0  0  0  0
 11 23  1  0  0  0  0
M  END
> <Catalog ID>
Z56968577

> <MW>
245.996

> <MW (desalted)>
247.078

> <ClogP>
1.839

> <logS>
-3.39

> <HBD>
2

> <HBA>
2

> <TPSA>
58.2

> <RotBonds>
3

> <ROCS_ShapeQuery>
A71EV2A-x0451_0A_A71EV2A-x0310_0A_A71EV2A-x0416_0A_peptide

> <ROCS_TanimotoCombo>
0.451 

> <ROCS_ShapeTanimoto>
0.273 

> <ROCS_ColorTanimoto>
0.178 

> <ROCS_RefTversky>
0.244 

> <ROCS_RefColorTversky>
0.184 

> <ROCS_RefTverskyCombo>
0.428 

> <ROCS_FitTversky>
1.753 

> <ROCS_FitColorTversky>
0.842 

> <ROCS_FitTverskyCombo>
2.596 

> <ROCS_ColorScore>
-5.579

> <ROCS_Overlap>
1692.735

> <ROCS_Rank>
141                 

$$$$
untitled-dbase-236_3
  -OEChem-11112315393D

 30 31  0     1  0  0  0  0  0999 V2000
    6.6581   11.4458   26.1287 C   0  0  0  0  0  0  0  0  0  0  0  0
    7.0336   12.7194   25.7484 C   0  0  0  0  0  0  0  0  0  0  0  0
    7.2954   10.3491   25.5551 C   0  0  0  0  0  0  0  0  0  0  0  0
    8.0464   12.8828   24.8039 C   0  0  0  0  0  0  0  0  0  0  0  0
    8.3279   10.4893   24.5961 C   0  0  0  0  0  0  0  0  0  0  0  0
    8.7248   11.7855   24.2161 C   0  0  0  0  0  0  0  0  0  0  0  0
    9.8322    8.8861   23.2910 C   0  0  0  0  0  0  0  0  0  0  0  0
   10.5847   13.1963   23.4348 C   0  0  0  0  0  0  0  0  0  0  0  0
   10.6600    9.9172   22.5867 C   0  0  0  0  0  0  0  0  0  0  0  0
    9.9148   11.1496   22.1128 C   0  0  1  0  0  0  0  0  0  0  0  0
    8.6436   10.8803   21.2996 C   0  0  0  0  0  0  0  0  0  0  0  0
   11.7284   13.3693   22.4634 C   0  0  0  0  0  0  0  0  0  0  0  0
    8.8479    9.2470   24.1640 N   0  0  0  0  0  0  0  0  0  0  0  0
    9.7305   12.0876   23.2316 N   0  0  0  0  0  0  0  0  0  0  0  0
   10.0897    7.6896   23.1068 O   0  0  0  0  0  0  0  0  0  0  0  0
   10.4768   14.0136   24.3547 O   0  0  0  0  0  0  0  0  0  0  0  0
   11.1116   14.3380   21.1306 Cl  0  0  0  0  0  0  0  0  0  0  0  0
    5.8699   11.3000   26.8605 H   0  0  0  0  0  0  0  0  0  0  0  0
    6.5364   13.5877   26.1697 H   0  0  0  0  0  0  0  0  0  0  0  0
    6.9730    9.3582   25.8742 H   0  0  0  0  0  0  0  0  0  0  0  0
    8.2652   13.9042   24.4976 H   0  0  0  0  0  0  0  0  0  0  0  0
   11.4992   10.1881   23.2393 H   0  0  0  0  0  0  0  0  0  0  0  0
   11.1013    9.4255   21.7091 H   0  0  0  0  0  0  0  0  0  0  0  0
   10.5897   11.6129   21.3893 H   0  0  0  0  0  0  0  0  0  0  0  0
    7.8970   10.4131   21.9364 H   0  0  0  0  0  0  0  0  0  0  0  0
    8.8764   10.2176   20.4702 H   0  0  0  0  0  0  0  0  0  0  0  0
    8.2534   11.8185   20.9139 H   0  0  0  0  0  0  0  0  0  0  0  0
   12.0332   12.3932   22.1062 H   0  0  0  0  0  0  0  0  0  0  0  0
   12.5346   13.8918   22.9635 H   0  0  0  0  0  0  0  0  0  0  0  0
    8.3880    8.4492   24.5987 H   0  0  0  0  0  0  0  0  0  0  0  0
  1  2  1  0  0  0  0
  1  3  2  0  0  0  0
  2  4  2  0  0  0  0
  3  5  1  0  0  0  0
  4  6  1  0  0  0  0
  5  6  2  0  0  0  0
  5 13  1  0  0  0  0
  6 14  1  0  0  0  0
  7  9  1  0  0  0  0
  7 13  1  0  0  0  0
  7 15  2  0  0  0  0
  8 12  1  0  0  0  0
  8 14  1  0  0  0  0
  8 16  2  0  0  0  0
  9 10  1  0  0  0  0
 10 11  1  0  0  0  0
 10 14  1  0  0  0  0
 12 17  1  0  0  0  0
  1 18  1  0  0  0  0
  2 19  1  0  0  0  0
  3 20  1  0  0  0  0
  4 21  1  0  0  0  0
  9 22  1  0  0  0  0
  9 23  1  0  0  0  0
 10 24  1  0  0  0  0
 11 25  1  0  0  0  0
 11 26  1  0  0  0  0
 11 27  1  0  0  0  0
 12 28  1  0  0  0  0
 12 29  1  0  0  0  0
 13 30  1  0  0  0  0
M  END
> <Catalog ID>
Z57981111

> <MW>
252.067

> <MW (desalted)>
252.697

> <ClogP>
1.468

> <logS>
-2.76

> <HBD>
1

> <HBA>
2

> <TPSA>
49.41

> <RotBonds>
1

> <ROCS_ShapeQuery>
A71EV2A-x0451_0A_A71EV2A-x0310_0A_A71EV2A-x0416_0A_peptide

> <ROCS_TanimotoCombo>
0.450 

> <ROCS_ShapeTanimoto>
0.312 

> <ROCS_ColorTanimoto>
0.138 

> <ROCS_RefTversky>
0.275 

> <ROCS_RefColorTversky>
0.147 

> <ROCS_RefTverskyCombo>
0.422 

> <ROCS_FitTversky>
1.772 

> <ROCS_FitColorTversky>
0.703 

> <ROCS_FitTverskyCombo>
2.475 

> <ROCS_ColorScore>
-4.457

> <ROCS_Overlap>
1905.328

> <ROCS_Rank>
142                 

$$$$
untitled-dbase-445_37
  -OEChem-11112315393D

 20 20  0     0  0  0  0  0  0999 V2000
    8.0592   10.8895   25.1200 C   0  0  0  0  0  0  0  0  0  0  0  0
    9.3312   11.3824   23.5216 C   0  0  0  0  0  0  0  0  0  0  0  0
   10.7924   13.3634   23.2006 C   0  0  0  0  0  0  0  0  0  0  0  0
    7.3990   11.0737   26.4184 C   0  0  0  0  0  0  0  0  0  0  0  0
   11.7359   13.9241   22.1619 C   0  0  0  0  0  0  0  0  0  0  0  0
    6.2472   12.0799   26.3851 C   0  0  0  0  0  0  0  0  0  0  0  0
    7.9472    9.9081   24.2557 N   0  0  0  0  0  0  0  0  0  0  0  0
    8.7841   10.2324   23.2042 N   0  0  0  0  0  0  0  0  0  0  0  0
   10.2523   12.1479   22.8013 N   0  0  0  0  0  0  0  0  0  0  0  0
   10.5728   13.9867   24.2357 O   0  0  0  0  0  0  0  0  0  0  0  0
    8.9212   11.8664   24.7259 O   0  0  0  0  0  0  0  0  0  0  0  0
    6.6835   13.3248   26.0865 F   0  0  0  0  0  0  0  0  0  0  0  0
    5.6258   12.1447   27.5817 F   0  0  0  0  0  0  0  0  0  0  0  0
    5.3311   11.7375   25.4545 F   0  0  0  0  0  0  0  0  0  0  0  0
   11.6817   15.6901   22.2802 Cl  0  0  0  0  0  0  0  0  0  0  0  0
    8.1191   11.4054   27.1954 H   0  0  0  0  0  0  0  0  0  0  0  0
    7.0018   10.1141   26.8103 H   0  0  0  0  0  0  0  0  0  0  0  0
   11.4677   13.6304   21.1439 H   0  0  0  0  0  0  0  0  0  0  0  0
   12.7534   13.5827   22.3720 H   0  0  0  0  0  0  0  0  0  0  0  0
   10.5549   11.7810   21.9020 H   0  0  0  0  0  0  0  0  0  0  0  0
  1  4  1  0  0  0  0
  1  7  2  0  0  0  0
  1 11  1  0  0  0  0
  2  8  2  0  0  0  0
  2  9  1  0  0  0  0
  2 11  1  0  0  0  0
  3  5  1  0  0  0  0
  3  9  1  0  0  0  0
  3 10  2  0  0  0  0
  4  6  1  0  0  0  0
  5 15  1  0  0  0  0
  6 12  1  0  0  0  0
  6 13  1  0  0  0  0
  6 14  1  0  0  0  0
  7  8  1  0  0  0  0
  4 16  1  0  0  0  0
  4 17  1  0  0  0  0
  5 18  1  0  0  0  0
  5 19  1  0  0  0  0
  9 20  1  0  0  0  0
M  END
> <Catalog ID>
Z1021388618

> <MW>
243.002

> <MW (desalted)>
243.571

> <ClogP>
0.21

> <logS>
-2.519

> <HBD>
1

> <HBA>
3

> <TPSA>
68.02

> <RotBonds>
4

> <ROCS_ShapeQuery>
A71EV2A-x0451_0A_A71EV2A-x0310_0A_A71EV2A-x0416_0A_peptide

> <ROCS_TanimotoCombo>
0.450 

> <ROCS_ShapeTanimoto>
0.279 

> <ROCS_ColorTanimoto>
0.172 

> <ROCS_RefTversky>
0.249 

> <ROCS_RefColorTversky>
0.179 

> <ROCS_RefTverskyCombo>
0.428 

> <ROCS_FitTversky>
1.738 

> <ROCS_FitColorTversky>
0.820 

> <ROCS_FitTverskyCombo>
2.558 

> <ROCS_ColorScore>
-5.424

> <ROCS_Overlap>
1726.113

> <ROCS_Rank>
143                 

$$$$
untitled-dbase-645_187
  -OEChem-11112315393D

 36 36  0     0  0  0  0  0  0999 V2000
    8.9359   11.0544   24.0076 C   0  0  0  0  0  0  0  0  0  0  0  0
    7.2754   11.7028   25.0575 C   0  0  0  0  0  0  0  0  0  0  0  0
   11.8872   14.5893   21.3699 C   0  0  0  0  0  0  0  0  0  0  0  0
   10.8263   14.6225   22.1821 C   0  0  0  0  0  0  0  0  0  0  0  0
   10.5928   13.5269   23.1606 C   0  0  0  0  0  0  0  0  0  0  0  0
   11.4453   10.9296   24.2149 C   0  0  0  0  0  0  0  0  0  0  0  0
   10.3046    9.9403   22.2070 C   0  0  0  0  0  0  0  0  0  0  0  0
    6.4452   13.9539   25.8250 C   0  0  0  0  0  0  0  0  0  0  0  0
    6.0611   11.9177   27.2543 C   0  0  0  0  0  0  0  0  0  0  0  0
    4.7537   12.2547   25.1666 C   0  0  0  0  0  0  0  0  0  0  0  0
   10.2055   11.0810   23.2729 C   0  0  0  0  0  0  0  0  0  0  0  0
    6.1499   12.4385   25.8034 C   0  0  0  0  0  0  0  0  0  0  0  0
    8.3531   12.1881   24.4946 N   0  0  0  0  0  0  0  0  0  0  0  0
    8.2765    9.9158   24.2414 N   0  0  0  0  0  0  0  0  0  0  0  0
   10.4518   12.3337   22.5157 N   0  0  0  0  0  0  0  0  0  0  0  0
   10.5402   13.7226   24.3706 O   0  0  0  0  0  0  0  0  0  0  0  0
    7.1521   10.3537   24.9523 O   0  0  0  0  0  0  0  0  0  0  0  0
   12.0502   15.3916   20.6579 H   0  0  0  0  0  0  0  0  0  0  0  0
   12.6113   13.7823   21.3871 H   0  0  0  0  0  0  0  0  0  0  0  0
   10.1257   15.4489   22.1330 H   0  0  0  0  0  0  0  0  0  0  0  0
   12.4023   10.9477   23.6793 H   0  0  0  0  0  0  0  0  0  0  0  0
   11.4645   11.7517   24.9409 H   0  0  0  0  0  0  0  0  0  0  0  0
   11.4036    9.9913   24.7785 H   0  0  0  0  0  0  0  0  0  0  0  0
   11.2491    9.9477   21.6496 H   0  0  0  0  0  0  0  0  0  0  0  0
    9.4950   10.0434   21.4741 H   0  0  0  0  0  0  0  0  0  0  0  0
   10.2066    8.9530   22.6713 H   0  0  0  0  0  0  0  0  0  0  0  0
    5.6561   14.5029   26.3522 H   0  0  0  0  0  0  0  0  0  0  0  0
    7.3888   14.1853   26.3312 H   0  0  0  0  0  0  0  0  0  0  0  0
    6.5100   14.3576   24.8077 H   0  0  0  0  0  0  0  0  0  0  0  0
    5.2699   12.4153   27.8257 H   0  0  0  0  0  0  0  0  0  0  0  0
    5.8444   10.8432   27.2761 H   0  0  0  0  0  0  0  0  0  0  0  0
    7.0044   12.0787   27.7895 H   0  0  0  0  0  0  0  0  0  0  0  0
    3.9867   12.7968   25.7330 H   0  0  0  0  0  0  0  0  0  0  0  0
    4.7250   12.6368   24.1394 H   0  0  0  0  0  0  0  0  0  0  0  0
    4.4545   11.2003   25.1475 H   0  0  0  0  0  0  0  0  0  0  0  0
   10.4728   12.2385   21.5222 H   0  0  0  0  0  0  0  0  0  0  0  0
  1 11  1  0  0  0  0
  1 13  1  0  0  0  0
  1 14  2  0  0  0  0
  2 12  1  0  0  0  0
  2 13  2  0  0  0  0
  2 17  1  0  0  0  0
  3  4  2  0  0  0  0
  4  5  1  0  0  0  0
  5 15  1  0  0  0  0
  5 16  2  0  0  0  0
  6 11  1  0  0  0  0
  7 11  1  0  0  0  0
  8 12  1  0  0  0  0
  9 12  1  0  0  0  0
 10 12  1  0  0  0  0
 11 15  1  0  0  0  0
 14 17  1  0  0  0  0
  3 18  1  0  0  0  0
  3 19  1  0  0  0  0
  4 20  1  0  0  0  0
  6 21  1  0  0  0  0
  6 22  1  0  0  0  0
  6 23  1  0  0  0  0
  7 24  1  0  0  0  0
  7 25  1  0  0  0  0
  7 26  1  0  0  0  0
  8 27  1  0  0  0  0
  8 28  1  0  0  0  0
  8 29  1  0  0  0  0
  9 30  1  0  0  0  0
  9 31  1  0  0  0  0
  9 32  1  0  0  0  0
 10 33  1  0  0  0  0
 10 34  1  0  0  0  0
 10 35  1  0  0  0  0
 15 36  1  0  0  0  0
M  END
> <Catalog ID>
Z2737383209

> <MW>
237.298

> <MW (desalted)>
237.298

> <ClogP>
0.841

> <logS>
-1.81

> <HBD>
1

> <HBA>
3

> <TPSA>
68.02

> <RotBonds>
4

> <ROCS_ShapeQuery>
A71EV2A-x0451_0A_A71EV2A-x0310_0A_A71EV2A-x0416_0A_peptide

> <ROCS_TanimotoCombo>
0.450 

> <ROCS_ShapeTanimoto>
0.309 

> <ROCS_ColorTanimoto>
0.141 

> <ROCS_RefTversky>
0.272 

> <ROCS_RefColorTversky>
0.161 

> <ROCS_RefTverskyCombo>
0.433 

> <ROCS_FitTversky>
1.772 

> <ROCS_FitColorTversky>
0.534 

> <ROCS_FitTverskyCombo>
2.306 

> <ROCS_ColorScore>
-4.910

> <ROCS_Overlap>
1887.529

> <ROCS_Rank>
144                 

$$$$
untitled-dbase-67_154
  -OEChem-11112315393D

 30 31  0     0  0  0  0  0  0999 V2000
    8.5186   10.2166   23.7481 C   0  0  0  0  0  0  0  0  0  0  0  0
    7.4264   10.1287   24.6625 C   0  0  0  0  0  0  0  0  0  0  0  0
    7.1306   11.3614   25.2129 C   0  0  0  0  0  0  0  0  0  0  0  0
    9.0084   11.5010   23.6454 C   0  0  0  0  0  0  0  0  0  0  0  0
    9.0768    9.1155   23.0034 C   0  0  0  0  0  0  0  0  0  0  0  0
   10.8424   13.1215   23.2294 C   0  0  0  0  0  0  0  0  0  0  0  0
    6.6461    8.8967   25.0020 C   0  0  0  0  0  0  0  0  0  0  0  0
    6.0602   11.6152   26.2277 C   0  0  0  0  0  0  0  0  0  0  0  0
    5.8127    9.0836   26.2796 C   0  0  0  0  0  0  0  0  0  0  0  0
    5.0796   10.4330   26.2853 C   0  0  0  0  0  0  0  0  0  0  0  0
   11.8775   13.4200   22.1697 C   0  0  0  0  0  0  0  0  0  0  0  0
    8.5146    7.8478   23.1785 N   0  0  0  0  0  0  0  0  0  0  0  0
   10.0316   12.0213   22.8996 N   0  0  0  0  0  0  0  0  0  0  0  0
   10.0476    9.2653   22.2301 O   0  0  0  0  0  0  0  0  0  0  0  0
   10.7670   13.8237   24.2340 O   0  0  0  0  0  0  0  0  0  0  0  0
    8.1543   12.5977   24.6456 S   0  0  0  0  0  0  0  0  0  0  0  0
   12.2021   15.1604   22.2069 Cl  0  0  0  0  0  0  0  0  0  0  0  0
    5.9814    8.6218   24.1751 H   0  0  0  0  0  0  0  0  0  0  0  0
    7.3496    8.0673   25.1470 H   0  0  0  0  0  0  0  0  0  0  0  0
    6.4899   11.7799   27.2223 H   0  0  0  0  0  0  0  0  0  0  0  0
    5.5143   12.5244   25.9473 H   0  0  0  0  0  0  0  0  0  0  0  0
    5.0747    8.2749   26.3587 H   0  0  0  0  0  0  0  0  0  0  0  0
    6.4660    9.0080   27.1563 H   0  0  0  0  0  0  0  0  0  0  0  0
    4.4712   10.5054   27.1961 H   0  0  0  0  0  0  0  0  0  0  0  0
    4.3903   10.4890   25.4353 H   0  0  0  0  0  0  0  0  0  0  0  0
   11.5468   13.1441   21.1652 H   0  0  0  0  0  0  0  0  0  0  0  0
   12.8000   12.8792   22.3992 H   0  0  0  0  0  0  0  0  0  0  0  0
    8.8971    7.0638   22.6611 H   0  0  0  0  0  0  0  0  0  0  0  0
    7.7347    7.6891   23.8082 H   0  0  0  0  0  0  0  0  0  0  0  0
   10.2284   11.5575   22.0013 H   0  0  0  0  0  0  0  0  0  0  0  0
  1  2  1  0  0  0  0
  1  4  2  0  0  0  0
  1  5  1  0  0  0  0
  2  3  2  0  0  0  0
  2  7  1  0  0  0  0
  3  8  1  0  0  0  0
  3 16  1  0  0  0  0
  4 13  1  0  0  0  0
  4 16  1  0  0  0  0
  5 12  1  0  0  0  0
  5 14  2  0  0  0  0
  6 11  1  0  0  0  0
  6 13  1  0  0  0  0
  6 15  2  0  0  0  0
  7  9  1  0  0  0  0
  8 10  1  0  0  0  0
  9 10  1  0  0  0  0
 11 17  1  0  0  0  0
  7 18  1  0  0  0  0
  7 19  1  0  0  0  0
  8 20  1  0  0  0  0
  8 21  1  0  0  0  0
  9 22  1  0  0  0  0
  9 23  1  0  0  0  0
 10 24  1  0  0  0  0
 10 25  1  0  0  0  0
 11 26  1  0  0  0  0
 11 27  1  0  0  0  0
 12 28  1  0  0  0  0
 12 29  1  0  0  0  0
 13 30  1  0  0  0  0
M  END
> <Catalog ID>
Z56887652

> <MW>
272.039

> <MW (desalted)>
272.751

> <ClogP>
2.298

> <logS>
-3.98

> <HBD>
2

> <HBA>
2

> <TPSA>
72.19

> <RotBonds>
3

> <ROCS_ShapeQuery>
A71EV2A-x0451_0A_A71EV2A-x0310_0A_A71EV2A-x0416_0A_peptide

> <ROCS_TanimotoCombo>
0.450 

> <ROCS_ShapeTanimoto>
0.306 

> <ROCS_ColorTanimoto>
0.144 

> <ROCS_RefTversky>
0.270 

> <ROCS_RefColorTversky>
0.156 

> <ROCS_RefTverskyCombo>
0.426 

> <ROCS_FitTversky>
1.783 

> <ROCS_FitColorTversky>
0.650 

> <ROCS_FitTverskyCombo>
2.433 

> <ROCS_ColorScore>
-4.739

> <ROCS_Overlap>
1870.971

> <ROCS_Rank>
145                 

$$$$
untitled-dbase-388_275
  -OEChem-11112315393D

 31 32  0     1  0  0  0  0  0999 V2000
   10.1999   11.5202   22.9043 C   0  0  0  0  0  0  0  0  0  0  0  0
    9.7218   10.2494   23.2247 C   0  0  0  0  0  0  0  0  0  0  0  0
    8.3942   12.5241   24.1604 C   0  0  0  0  0  0  0  0  0  0  0  0
    9.5339   12.6557   23.3667 C   0  0  0  0  0  0  0  0  0  0  0  0
    8.5737   10.1169   24.0062 C   0  0  0  0  0  0  0  0  0  0  0  0
    7.9230   11.2537   24.4923 C   0  0  0  0  0  0  0  0  0  0  0  0
   12.2177   14.9654   22.3103 C   0  0  0  0  0  0  0  0  0  0  0  0
    6.7990    8.8286   24.7652 C   0  0  0  0  0  0  0  0  0  0  0  0
    6.6259    9.8818   25.8422 C   0  0  0  0  0  0  0  0  0  0  0  0
    9.0120   14.8587   22.2411 C   0  0  0  0  0  0  0  0  0  0  0  0
   13.4350   14.6767   21.4693 C   0  0  0  0  0  0  0  0  0  0  0  0
   10.0389   14.0128   23.0084 C   0  0  2  0  0  0  0  0  0  0  0  0
   11.2819   13.9526   22.2583 N   0  0  0  0  0  0  0  0  0  0  0  0
   12.1155   15.9978   22.9707 O   0  0  0  0  0  0  0  0  0  0  0  0
    8.1404    8.8436   24.2690 O   0  0  0  0  0  0  0  0  0  0  0  0
    6.8117   11.1887   25.2913 O   0  0  0  0  0  0  0  0  0  0  0  0
   13.5738   15.9574   20.2546 Cl  0  0  0  0  0  0  0  0  0  0  0  0
   11.0956   11.6163   22.2962 H   0  0  0  0  0  0  0  0  0  0  0  0
   10.2540    9.3707   22.8709 H   0  0  0  0  0  0  0  0  0  0  0  0
    7.8682   13.4088   24.5111 H   0  0  0  0  0  0  0  0  0  0  0  0
    6.5762    7.8232   25.1433 H   0  0  0  0  0  0  0  0  0  0  0  0
    6.1302    9.0320   23.9232 H   0  0  0  0  0  0  0  0  0  0  0  0
    5.6301    9.8325   26.2998 H   0  0  0  0  0  0  0  0  0  0  0  0
    7.3712    9.7444   26.6317 H   0  0  0  0  0  0  0  0  0  0  0  0
    8.7095   14.3552   21.3164 H   0  0  0  0  0  0  0  0  0  0  0  0
    8.1125   15.0333   22.8422 H   0  0  0  0  0  0  0  0  0  0  0  0
    9.4163   15.8415   21.9741 H   0  0  0  0  0  0  0  0  0  0  0  0
   14.3554   14.6510   22.0578 H   0  0  0  0  0  0  0  0  0  0  0  0
   13.3075   13.7157   20.9635 H   0  0  0  0  0  0  0  0  0  0  0  0
   10.2963   14.5774   23.9219 H   0  0  0  0  0  0  0  0  0  0  0  0
   11.4670   13.1435   21.6804 H   0  0  0  0  0  0  0  0  0  0  0  0
  1  2  2  0  0  0  0
  1  4  1  0  0  0  0
  2  5  1  0  0  0  0
  3  4  2  0  0  0  0
  3  6  1  0  0  0  0
  4 12  1  0  0  0  0
  5  6  2  0  0  0  0
  5 15  1  0  0  0  0
  6 16  1  0  0  0  0
  7 11  1  0  0  0  0
  7 13  1  0  0  0  0
  7 14  2  0  0  0  0
  8  9  1  0  0  0  0
  8 15  1  0  0  0  0
  9 16  1  0  0  0  0
 10 12  1  0  0  0  0
 11 17  1  0  0  0  0
 12 13  1  0  0  0  0
  1 18  1  0  0  0  0
  2 19  1  0  0  0  0
  3 20  1  0  0  0  0
  8 21  1  0  0  0  0
  8 22  1  0  0  0  0
  9 23  1  0  0  0  0
  9 24  1  0  0  0  0
 10 25  1  0  0  0  0
 10 26  1  0  0  0  0
 10 27  1  0  0  0  0
 11 28  1  0  0  0  0
 11 29  1  0  0  0  0
 12 30  1  0  0  0  0
 13 31  1  0  0  0  0
M  END
> <Catalog ID>
Z57992122

> <MW>
255.066

> <MW (desalted)>
255.697

> <ClogP>
1.796

> <logS>
-2.85

> <HBD>
1

> <HBA>
3

> <TPSA>
47.56

> <RotBonds>
3

> <ROCS_ShapeQuery>
A71EV2A-x0451_0A_A71EV2A-x0310_0A_A71EV2A-x0416_0A_peptide

> <ROCS_TanimotoCombo>
0.450 

> <ROCS_ShapeTanimoto>
0.302 

> <ROCS_ColorTanimoto>
0.147 

> <ROCS_RefTversky>
0.268 

> <ROCS_RefColorTversky>
0.159 

> <ROCS_RefTverskyCombo>
0.427 

> <ROCS_FitTversky>
1.734 

> <ROCS_FitColorTversky>
0.664 

> <ROCS_FitTverskyCombo>
2.398 

> <ROCS_ColorScore>
-4.842

> <ROCS_Overlap>
1859.067

> <ROCS_Rank>
146                 

$$$$
untitled-dbase-551_81
  -OEChem-11112315393D

 35 35  0     0  0  0  0  0  0999 V2000
    8.0919   11.9857   24.1025 C   0  0  0  0  0  0  0  0  0  0  0  0
    7.4693   10.8056   24.5516 C   0  0  0  0  0  0  0  0  0  0  0  0
    9.2409   11.5543   23.4859 C   0  0  0  0  0  0  0  0  0  0  0  0
   12.2045   15.1565   22.0050 C   0  0  0  0  0  0  0  0  0  0  0  0
   11.2321   14.2444   21.9089 C   0  0  0  0  0  0  0  0  0  0  0  0
   10.7017   13.5692   23.1288 C   0  0  0  0  0  0  0  0  0  0  0  0
    6.3860    9.2731   27.3585 C   0  0  0  0  0  0  0  0  0  0  0  0
    7.5181   11.4957   27.3205 C   0  0  0  0  0  0  0  0  0  0  0  0
    5.0209   11.3566   27.4967 C   0  0  0  0  0  0  0  0  0  0  0  0
   10.2386    9.2775   23.1061 C   0  0  0  0  0  0  0  0  0  0  0  0
    6.1625   10.6826   25.3046 C   0  0  0  0  0  0  0  0  0  0  0  0
    6.2694   10.7272   26.8546 C   0  0  0  0  0  0  0  0  0  0  0  0
    8.1650    9.7072   24.2462 N   0  0  0  0  0  0  0  0  0  0  0  0
    9.2367   10.1951   23.5985 N   0  0  0  0  0  0  0  0  0  0  0  0
   10.2378   12.2557   22.8631 N   0  0  0  0  0  0  0  0  0  0  0  0
   10.6922   14.1358   24.2152 O   0  0  0  0  0  0  0  0  0  0  0  0
    7.7538   13.0064   24.2111 H   0  0  0  0  0  0  0  0  0  0  0  0
   12.6146   15.6676   21.1411 H   0  0  0  0  0  0  0  0  0  0  0  0
   12.6152   15.4111   22.9765 H   0  0  0  0  0  0  0  0  0  0  0  0
   10.8208   13.9897   20.9382 H   0  0  0  0  0  0  0  0  0  0  0  0
    5.5182    8.6776   27.0532 H   0  0  0  0  0  0  0  0  0  0  0  0
    7.2811    8.7833   26.9584 H   0  0  0  0  0  0  0  0  0  0  0  0
    6.4490    9.2368   28.4520 H   0  0  0  0  0  0  0  0  0  0  0  0
    7.4873   12.5394   26.9885 H   0  0  0  0  0  0  0  0  0  0  0  0
    7.6163   11.4883   28.4110 H   0  0  0  0  0  0  0  0  0  0  0  0
    8.4312   11.0459   26.9135 H   0  0  0  0  0  0  0  0  0  0  0  0
    4.8915   12.3950   27.1699 H   0  0  0  0  0  0  0  0  0  0  0  0
    4.1076   10.8187   27.2222 H   0  0  0  0  0  0  0  0  0  0  0  0
    5.0977   11.3614   28.5896 H   0  0  0  0  0  0  0  0  0  0  0  0
   10.9832    9.1366   23.8940 H   0  0  0  0  0  0  0  0  0  0  0  0
    9.7661    8.3247   22.8517 H   0  0  0  0  0  0  0  0  0  0  0  0
   10.7036    9.6973   22.2097 H   0  0  0  0  0  0  0  0  0  0  0  0
    5.6722    9.7458   25.0031 H   0  0  0  0  0  0  0  0  0  0  0  0
    5.4871   11.4811   24.9656 H   0  0  0  0  0  0  0  0  0  0  0  0
   10.7207   11.7574   22.0896 H   0  0  0  0  0  0  0  0  0  0  0  0
  1  2  1  0  0  0  0
  1  3  2  0  0  0  0
  2 11  1  0  0  0  0
  2 13  2  0  0  0  0
  3 14  1  0  0  0  0
  3 15  1  0  0  0  0
  4  5  2  0  0  0  0
  5  6  1  0  0  0  0
  6 15  1  0  0  0  0
  6 16  2  0  0  0  0
  7 12  1  0  0  0  0
  8 12  1  0  0  0  0
  9 12  1  0  0  0  0
 10 14  1  0  0  0  0
 11 12  1  0  0  0  0
 13 14  1  0  0  0  0
  1 17  1  0  0  0  0
  4 18  1  0  0  0  0
  4 19  1  0  0  0  0
  5 20  1  0  0  0  0
  7 21  1  0  0  0  0
  7 22  1  0  0  0  0
  7 23  1  0  0  0  0
  8 24  1  0  0  0  0
  8 25  1  0  0  0  0
  8 26  1  0  0  0  0
  9 27  1  0  0  0  0
  9 28  1  0  0  0  0
  9 29  1  0  0  0  0
 10 30  1  0  0  0  0
 10 31  1  0  0  0  0
 10 32  1  0  0  0  0
 11 33  1  0  0  0  0
 11 34  1  0  0  0  0
 15 35  1  0  0  0  0
M  END
> <Catalog ID>
Z2285377505

> <MW>
221.299

> <MW (desalted)>
221.299

> <ClogP>
2.063

> <logS>
-2.617

> <HBD>
1

> <HBA>
2

> <TPSA>
46.92

> <RotBonds>
4

> <ROCS_ShapeQuery>
A71EV2A-x0451_0A_A71EV2A-x0310_0A_A71EV2A-x0416_0A_peptide

> <ROCS_TanimotoCombo>
0.449 

> <ROCS_ShapeTanimoto>
0.287 

> <ROCS_ColorTanimoto>
0.162 

> <ROCS_RefTversky>
0.256 

> <ROCS_RefColorTversky>
0.173 

> <ROCS_RefTverskyCombo>
0.429 

> <ROCS_FitTversky>
1.747 

> <ROCS_FitColorTversky>
0.722 

> <ROCS_FitTverskyCombo>
2.469 

> <ROCS_ColorScore>
-5.259

> <ROCS_Overlap>
1773.944

> <ROCS_Rank>
147                 

$$$$
untitled-dbase-482_77
  -OEChem-11112315393D

 26 26  0     0  0  0  0  0  0999 V2000
    7.5548   11.1863   24.9465 C   0  0  0  0  0  0  0  0  0  0  0  0
    8.4274   12.2440   24.6910 C   0  0  0  0  0  0  0  0  0  0  0  0
    7.7421    9.9586   24.3112 C   0  0  0  0  0  0  0  0  0  0  0  0
    9.6745   10.8466   23.1648 C   0  0  0  0  0  0  0  0  0  0  0  0
    9.4872   12.0742   23.8001 C   0  0  0  0  0  0  0  0  0  0  0  0
    8.8018    9.7888   23.4203 C   0  0  0  0  0  0  0  0  0  0  0  0
   10.4170   13.2012   23.5287 C   0  0  0  0  0  0  0  0  0  0  0  0
   13.0084   14.4152   22.7562 C   0  0  0  0  0  0  0  0  0  0  0  0
    9.0021    8.4762   22.7408 C   0  0  0  0  0  0  0  0  0  0  0  0
   13.8398   15.5817   22.2892 C   0  0  0  0  0  0  0  0  0  0  0  0
   11.0343   13.1837   22.2925 N   0  0  0  0  0  0  0  0  0  0  0  0
   11.8935   14.2056   21.9689 N   0  0  0  0  0  0  0  0  0  0  0  0
   10.5742   14.0711   24.3817 O   0  0  0  0  0  0  0  0  0  0  0  0
   13.3140   13.7551   23.7478 O   0  0  0  0  0  0  0  0  0  0  0  0
   13.2730   17.0286   23.1375 Cl  0  0  0  0  0  0  0  0  0  0  0  0
    6.7289   11.3188   25.6393 H   0  0  0  0  0  0  0  0  0  0  0  0
    8.2725   13.1962   25.1920 H   0  0  0  0  0  0  0  0  0  0  0  0
    7.0576    9.1398   24.5168 H   0  0  0  0  0  0  0  0  0  0  0  0
   10.4997   10.7128   22.4690 H   0  0  0  0  0  0  0  0  0  0  0  0
    8.4518    8.4494   21.7924 H   0  0  0  0  0  0  0  0  0  0  0  0
   10.0641    8.2935   22.5323 H   0  0  0  0  0  0  0  0  0  0  0  0
    8.6542    7.6456   23.3687 H   0  0  0  0  0  0  0  0  0  0  0  0
   14.8889   15.4053   22.5415 H   0  0  0  0  0  0  0  0  0  0  0  0
   13.7543   15.7513   21.2128 H   0  0  0  0  0  0  0  0  0  0  0  0
   10.8564   12.4309   21.6367 H   0  0  0  0  0  0  0  0  0  0  0  0
   11.7119   14.7967   21.1646 H   0  0  0  0  0  0  0  0  0  0  0  0
  1  2  1  0  0  0  0
  1  3  2  0  0  0  0
  2  5  2  0  0  0  0
  3  6  1  0  0  0  0
  4  5  1  0  0  0  0
  4  6  2  0  0  0  0
  5  7  1  0  0  0  0
  6  9  1  0  0  0  0
  7 11  1  0  0  0  0
  7 13  2  0  0  0  0
  8 10  1  0  0  0  0
  8 12  1  0  0  0  0
  8 14  2  0  0  0  0
 10 15  1  0  0  0  0
 11 12  1  0  0  0  0
  1 16  1  0  0  0  0
  2 17  1  0  0  0  0
  3 18  1  0  0  0  0
  4 19  1  0  0  0  0
  9 20  1  0  0  0  0
  9 21  1  0  0  0  0
  9 22  1  0  0  0  0
 10 23  1  0  0  0  0
 10 24  1  0  0  0  0
 11 25  1  0  0  0  0
 12 26  1  0  0  0  0
M  END
> <Catalog ID>
Z57284903

> <MW>
226.051

> <MW (desalted)>
226.66

> <ClogP>
1.423

> <logS>
-3.145

> <HBD>
2

> <HBA>
2

> <TPSA>
58.2

> <RotBonds>
3

> <ROCS_ShapeQuery>
A71EV2A-x0451_0A_A71EV2A-x0310_0A_A71EV2A-x0416_0A_peptide

> <ROCS_TanimotoCombo>
0.449 

> <ROCS_ShapeTanimoto>
0.272 

> <ROCS_ColorTanimoto>
0.178 

> <ROCS_RefTversky>
0.244 

> <ROCS_RefColorTversky>
0.184 

> <ROCS_RefTverskyCombo>
0.427 

> <ROCS_FitTversky>
1.738 

> <ROCS_FitColorTversky>
0.842 

> <ROCS_FitTverskyCombo>
2.580 

> <ROCS_ColorScore>
-5.580

> <ROCS_Overlap>
1688.684

> <ROCS_Rank>
148                 

$$$$
untitled-dbase-847_14
  -OEChem-11112315393D

 27 28  0     0  0  0  0  0  0999 V2000
    8.0544   13.3463   24.7541 C   0  0  0  0  0  0  0  0  0  0  0  0
   11.4536    7.5416   21.2239 C   0  0  0  0  0  0  0  0  0  0  0  0
   12.0503    8.3365   22.2024 C   0  0  0  0  0  0  0  0  0  0  0  0
   10.0817    7.6353   20.9901 C   0  0  0  0  0  0  0  0  0  0  0  0
   11.2750    9.2252   22.9473 C   0  0  0  0  0  0  0  0  0  0  0  0
    9.3064    8.5240   21.7349 C   0  0  0  0  0  0  0  0  0  0  0  0
    7.6217   10.8365   24.7599 C   0  0  0  0  0  0  0  0  0  0  0  0
    8.3063   12.0022   24.3672 C   0  0  0  0  0  0  0  0  0  0  0  0
    9.9030    9.3190   22.7136 C   0  0  0  0  0  0  0  0  0  0  0  0
    9.2865   11.5543   23.5156 C   0  0  0  0  0  0  0  0  0  0  0  0
   10.8776   13.4360   23.2148 C   0  0  0  0  0  0  0  0  0  0  0  0
   11.9037   13.9082   22.2111 C   0  0  0  0  0  0  0  0  0  0  0  0
    7.8487   14.4438   25.0701 N   0  0  0  0  0  0  0  0  0  0  0  0
    8.1243    9.7312   24.2035 N   0  0  0  0  0  0  0  0  0  0  0  0
    9.1351   10.2003   23.4523 N   0  0  0  0  0  0  0  0  0  0  0  0
   10.2561   12.2383   22.8269 N   0  0  0  0  0  0  0  0  0  0  0  0
   10.6541   14.0958   24.2262 O   0  0  0  0  0  0  0  0  0  0  0  0
   11.4063   15.5100   21.6431 Cl  0  0  0  0  0  0  0  0  0  0  0  0
   12.0571    6.8508   20.6424 H   0  0  0  0  0  0  0  0  0  0  0  0
   13.1187    8.2646   22.3837 H   0  0  0  0  0  0  0  0  0  0  0  0
    9.6180    7.0170   20.2268 H   0  0  0  0  0  0  0  0  0  0  0  0
   11.7528    9.8397   23.7066 H   0  0  0  0  0  0  0  0  0  0  0  0
    8.2382    8.5876   21.5419 H   0  0  0  0  0  0  0  0  0  0  0  0
    6.7770   10.7415   25.4278 H   0  0  0  0  0  0  0  0  0  0  0  0
   11.9924   13.2405   21.3504 H   0  0  0  0  0  0  0  0  0  0  0  0
   12.8795   13.9887   22.6982 H   0  0  0  0  0  0  0  0  0  0  0  0
   10.5596   11.8308   21.9325 H   0  0  0  0  0  0  0  0  0  0  0  0
  1  8  1  0  0  0  0
  1 13  3  0  0  0  0
  2  3  1  0  0  0  0
  2  4  2  0  0  0  0
  3  5  2  0  0  0  0
  4  6  1  0  0  0  0
  5  9  1  0  0  0  0
  6  9  2  0  0  0  0
  7  8  1  0  0  0  0
  7 14  2  0  0  0  0
  8 10  2  0  0  0  0
  9 15  1  0  0  0  0
 10 15  1  0  0  0  0
 10 16  1  0  0  0  0
 11 12  1  0  0  0  0
 11 16  1  0  0  0  0
 11 17  2  0  0  0  0
 12 18  1  0  0  0  0
 14 15  1  0  0  0  0
  2 19  1  0  0  0  0
  3 20  1  0  0  0  0
  4 21  1  0  0  0  0
  5 22  1  0  0  0  0
  6 23  1  0  0  0  0
  7 24  1  0  0  0  0
 12 25  1  0  0  0  0
 12 26  1  0  0  0  0
 16 27  1  0  0  0  0
M  END
> <Catalog ID>
Z353720732

> <MW>
260.046

> <MW (desalted)>
260.679

> <ClogP>
1.366

> <logS>
-3.04

> <HBD>
1

> <HBA>
3

> <TPSA>
70.71

> <RotBonds>
3

> <ROCS_ShapeQuery>
A71EV2A-x0451_0A_A71EV2A-x0310_0A_A71EV2A-x0416_0A_peptide

> <ROCS_TanimotoCombo>
0.449 

> <ROCS_ShapeTanimoto>
0.285 

> <ROCS_ColorTanimoto>
0.164 

> <ROCS_RefTversky>
0.258 

> <ROCS_RefColorTversky>
0.175 

> <ROCS_RefTverskyCombo>
0.433 

> <ROCS_FitTversky>
1.575 

> <ROCS_FitColorTversky>
0.731 

> <ROCS_FitTverskyCombo>
2.306 

> <ROCS_ColorScore>
-5.326

> <ROCS_Overlap>
1789.686

> <ROCS_Rank>
149                 

$$$$
untitled-dbase-699_253
  -OEChem-11112315393D

 41 43  0     0  0  0  0  0  0999 V2000
    7.9033   12.8759   25.3336 C   0  0  0  0  0  0  0  0  0  0  0  0
    6.7759   12.5383   26.0892 C   0  0  0  0  0  0  0  0  0  0  0  0
    6.7948   10.2829   25.1944 C   0  0  0  0  0  0  0  0  0  0  0  0
    7.9125   10.6259   24.4486 C   0  0  0  0  0  0  0  0  0  0  0  0
    8.4639   11.9070   24.5141 C   0  0  0  0  0  0  0  0  0  0  0  0
    6.2250   11.2512   26.0204 C   0  0  0  0  0  0  0  0  0  0  0  0
   10.3805   13.1164   23.4769 C   0  0  0  0  0  0  0  0  0  0  0  0
    8.6703    9.7458   23.5096 C   0  0  0  0  0  0  0  0  0  0  0  0
    6.3989    9.7845   31.1490 C   0  0  0  0  0  0  0  0  0  0  0  0
    7.2705   10.5595   30.1646 C   0  0  0  0  0  0  0  0  0  0  0  0
    5.4580    8.8379   30.4090 C   0  0  0  0  0  0  0  0  0  0  0  0
    9.7736   10.6830   23.0067 C   0  0  0  0  0  0  0  0  0  0  0  0
    6.4227   11.2782   29.1201 C   0  0  0  0  0  0  0  0  0  0  0  0
    4.6359    9.5800   29.3603 C   0  0  0  0  0  0  0  0  0  0  0  0
   11.0128   13.2246   22.1093 C   0  0  0  0  0  0  0  0  0  0  0  0
    9.5864   11.9934   23.6644 N   0  0  0  0  0  0  0  0  0  0  0  0
    5.5499   10.2912   28.4184 N   0  0  0  0  0  0  0  0  0  0  0  0
   10.5974   13.9947   24.3119 O   0  0  0  0  0  0  0  0  0  0  0  0
    4.1007   12.0922   27.2667 O   0  0  0  0  0  0  0  0  0  0  0  0
    4.1204    9.7500   26.3387 O   0  0  0  0  0  0  0  0  0  0  0  0
    4.8169   10.8583   26.9763 S   0  0  0  0  0  0  0  0  0  0  0  0
   11.9297   14.7260   22.0985 Cl  0  0  0  0  0  0  0  0  0  0  0  0
    8.3022   13.8797   25.4111 H   0  0  0  0  0  0  0  0  0  0  0  0
    6.3285   13.2907   26.7345 H   0  0  0  0  0  0  0  0  0  0  0  0
    6.3774    9.2828   25.1330 H   0  0  0  0  0  0  0  0  0  0  0  0
    9.0924    8.8846   24.0365 H   0  0  0  0  0  0  0  0  0  0  0  0
    8.0315    9.4097   22.6876 H   0  0  0  0  0  0  0  0  0  0  0  0
    7.0372    9.2095   31.8311 H   0  0  0  0  0  0  0  0  0  0  0  0
    5.8184   10.4827   31.7621 H   0  0  0  0  0  0  0  0  0  0  0  0
    7.8720   11.2931   30.7159 H   0  0  0  0  0  0  0  0  0  0  0  0
    7.9686    9.8756   29.6695 H   0  0  0  0  0  0  0  0  0  0  0  0
    6.0362    8.0396   29.9304 H   0  0  0  0  0  0  0  0  0  0  0  0
    4.7846    8.3605   31.1320 H   0  0  0  0  0  0  0  0  0  0  0  0
   10.7690   10.2976   23.2541 H   0  0  0  0  0  0  0  0  0  0  0  0
    9.7205   10.8167   21.9205 H   0  0  0  0  0  0  0  0  0  0  0  0
    5.7982   12.0256   29.6213 H   0  0  0  0  0  0  0  0  0  0  0  0
    7.0596   11.7915   28.3907 H   0  0  0  0  0  0  0  0  0  0  0  0
    3.9996    8.8835   28.8022 H   0  0  0  0  0  0  0  0  0  0  0  0
    3.9918   10.3093   29.8638 H   0  0  0  0  0  0  0  0  0  0  0  0
   10.2277   13.2609   21.3639 H   0  0  0  0  0  0  0  0  0  0  0  0
   11.6758   12.3805   21.9640 H   0  0  0  0  0  0  0  0  0  0  0  0
  1  2  2  0  0  0  0
  1  5  1  0  0  0  0
  2  6  1  0  0  0  0
  3  4  1  0  0  0  0
  3  6  2  0  0  0  0
  4  5  2  0  0  0  0
  4  8  1  0  0  0  0
  5 16  1  0  0  0  0
  6 21  1  0  0  0  0
  7 15  1  0  0  0  0
  7 16  1  0  0  0  0
  7 18  2  0  0  0  0
  8 12  1  0  0  0  0
  9 10  1  0  0  0  0
  9 11  1  0  0  0  0
 10 13  1  0  0  0  0
 11 14  1  0  0  0  0
 12 16  1  0  0  0  0
 13 17  1  0  0  0  0
 14 17  1  0  0  0  0
 15 22  1  0  0  0  0
 17 21  1  0  0  0  0
 19 21  2  0  0  0  0
 20 21  2  0  0  0  0
  1 23  1  0  0  0  0
  2 24  1  0  0  0  0
  3 25  1  0  0  0  0
  8 26  1  0  0  0  0
  8 27  1  0  0  0  0
  9 28  1  0  0  0  0
  9 29  1  0  0  0  0
 10 30  1  0  0  0  0
 10 31  1  0  0  0  0
 11 32  1  0  0  0  0
 11 33  1  0  0  0  0
 12 34  1  0  0  0  0
 12 35  1  0  0  0  0
 13 36  1  0  0  0  0
 13 37  1  0  0  0  0
 14 38  1  0  0  0  0
 14 39  1  0  0  0  0
 15 40  1  0  0  0  0
 15 41  1  0  0  0  0
M  END
> <Catalog ID>
Z165156700

> <MW>
342.08

> <MW (desalted)>
342.841

> <ClogP>
2.363

> <logS>
-3.48

> <HBD>
0

> <HBA>
3

> <TPSA>
57.69

> <RotBonds>
2

> <ROCS_ShapeQuery>
A71EV2A-x0451_0A_A71EV2A-x0310_0A_A71EV2A-x0416_0A_peptide

> <ROCS_TanimotoCombo>
0.449 

> <ROCS_ShapeTanimoto>
0.285 

> <ROCS_ColorTanimoto>
0.164 

> <ROCS_RefTversky>
0.262 

> <ROCS_RefColorTversky>
0.175 

> <ROCS_RefTverskyCombo>
0.437 

> <ROCS_FitTversky>
1.435 

> <ROCS_FitColorTversky>
0.728 

> <ROCS_FitTverskyCombo>
2.163 

> <ROCS_ColorScore>
-5.316

> <ROCS_Overlap>
1821.741

> <ROCS_Rank>
150                 

$$$$
untitled-dbase-542_5
  -OEChem-11112315393D

 30 31  0     0  0  0  0  0  0999 V2000
    7.3887   11.6799   25.0007 C   0  0  0  0  0  0  0  0  0  0  0  0
    8.3951   12.3369   24.3015 C   0  0  0  0  0  0  0  0  0  0  0  0
    7.3175   10.3005   24.8917 C   0  0  0  0  0  0  0  0  0  0  0  0
    9.2868   11.6047   23.5256 C   0  0  0  0  0  0  0  0  0  0  0  0
    9.1307   10.2287   23.4828 C   0  0  0  0  0  0  0  0  0  0  0  0
   10.9129   13.4519   23.1993 C   0  0  0  0  0  0  0  0  0  0  0  0
   12.0196    8.7619   21.6347 C   0  0  0  0  0  0  0  0  0  0  0  0
   10.9020    7.8071   21.2667 C   0  0  0  0  0  0  0  0  0  0  0  0
   11.4840    9.4387   22.8913 C   0  0  0  0  0  0  0  0  0  0  0  0
    9.6499    8.6222   21.5694 C   0  0  0  0  0  0  0  0  0  0  0  0
   11.9637   13.8789   22.2007 C   0  0  0  0  0  0  0  0  0  0  0  0
    8.1656    9.5553   24.1481 N   0  0  0  0  0  0  0  0  0  0  0  0
   10.0290    9.4792   22.6994 N   0  0  0  0  0  0  0  0  0  0  0  0
   10.2965   12.2648   22.8227 N   0  0  0  0  0  0  0  0  0  0  0  0
   10.6829   14.1439   24.1874 O   0  0  0  0  0  0  0  0  0  0  0  0
   11.1760   14.9095   20.9953 Cl  0  0  0  0  0  0  0  0  0  0  0  0
    6.6827   12.2301   25.6122 H   0  0  0  0  0  0  0  0  0  0  0  0
    8.4738   13.4187   24.3698 H   0  0  0  0  0  0  0  0  0  0  0  0
    6.5509    9.7400   25.4166 H   0  0  0  0  0  0  0  0  0  0  0  0
   12.9677    8.2465   21.8114 H   0  0  0  0  0  0  0  0  0  0  0  0
   12.1684    9.5009   20.8385 H   0  0  0  0  0  0  0  0  0  0  0  0
   10.9506    7.4920   20.2207 H   0  0  0  0  0  0  0  0  0  0  0  0
   10.9378    6.9139   21.9013 H   0  0  0  0  0  0  0  0  0  0  0  0
   11.7204    8.8490   23.7841 H   0  0  0  0  0  0  0  0  0  0  0  0
   11.9063   10.4426   23.0072 H   0  0  0  0  0  0  0  0  0  0  0  0
    9.3737    9.2465   20.7121 H   0  0  0  0  0  0  0  0  0  0  0  0
    8.8066    7.9699   21.8190 H   0  0  0  0  0  0  0  0  0  0  0  0
   12.4312   13.0330   21.6904 H   0  0  0  0  0  0  0  0  0  0  0  0
   12.7393   14.4557   22.7124 H   0  0  0  0  0  0  0  0  0  0  0  0
   10.6100   11.8369   21.9539 H   0  0  0  0  0  0  0  0  0  0  0  0
  1  2  2  0  0  0  0
  1  3  1  0  0  0  0
  2  4  1  0  0  0  0
  3 12  2  0  0  0  0
  4  5  2  0  0  0  0
  4 14  1  0  0  0  0
  5 12  1  0  0  0  0
  5 13  1  0  0  0  0
  6 11  1  0  0  0  0
  6 14  1  0  0  0  0
  6 15  2  0  0  0  0
  7  8  1  0  0  0  0
  7  9  1  0  0  0  0
  8 10  1  0  0  0  0
  9 13  1  0  0  0  0
 10 13  1  0  0  0  0
 11 16  1  0  0  0  0
  1 17  1  0  0  0  0
  2 18  1  0  0  0  0
  3 19  1  0  0  0  0
  7 20  1  0  0  0  0
  7 21  1  0  0  0  0
  8 22  1  0  0  0  0
  8 23  1  0  0  0  0
  9 24  1  0  0  0  0
  9 25  1  0  0  0  0
 10 26  1  0  0  0  0
 10 27  1  0  0  0  0
 11 28  1  0  0  0  0
 11 29  1  0  0  0  0
 14 30  1  0  0  0  0
M  END
> <Catalog ID>
Z445388182

> <MW>
239.083

> <MW (desalted)>
239.701

> <ClogP>
1.933

> <logS>
-2.157

> <HBD>
1

> <HBA>
3

> <TPSA>
45.23

> <RotBonds>
3

> <ROCS_ShapeQuery>
A71EV2A-x0451_0A_A71EV2A-x0310_0A_A71EV2A-x0416_0A_peptide

> <ROCS_TanimotoCombo>
0.449 

> <ROCS_ShapeTanimoto>
0.282 

> <ROCS_ColorTanimoto>
0.167 

> <ROCS_RefTversky>
0.252 

> <ROCS_RefColorTversky>
0.173 

> <ROCS_RefTverskyCombo>
0.426 

> <ROCS_FitTversky>
1.700 

> <ROCS_FitColorTversky>
0.830 

> <ROCS_FitTverskyCombo>
2.530 

> <ROCS_ColorScore>
-5.256

> <ROCS_Overlap>
1749.846

> <ROCS_Rank>
151                 

$$$$
untitled-dbase-306_6
  -OEChem-11112315393D

 31 32  0     1  0  0  0  0  0999 V2000
    6.6045   11.6981   26.3080 C   0  0  0  0  0  0  0  0  0  0  0  0
    6.8415   12.8868   25.6241 C   0  0  0  0  0  0  0  0  0  0  0  0
    9.5315    9.3379   23.2202 C   0  0  0  0  0  0  0  0  0  0  0  0
    7.2120   10.5156   25.8848 C   0  0  0  0  0  0  0  0  0  0  0  0
    7.6870   12.8976   24.5144 C   0  0  0  0  0  0  0  0  0  0  0  0
    8.6860    9.3271   24.3300 C   0  0  0  0  0  0  0  0  0  0  0  0
    9.7685   10.5266   22.5363 C   0  0  0  0  0  0  0  0  0  0  0  0
    8.0660   10.5079   24.7699 C   0  0  0  0  0  0  0  0  0  0  0  0
    8.3070   11.7168   24.0744 C   0  0  0  0  0  0  0  0  0  0  0  0
    9.1609   11.7091   22.9595 C   0  0  0  0  0  0  0  0  0  0  0  0
   11.3528   14.1047   23.2860 C   0  0  0  0  0  0  0  0  0  0  0  0
    9.0305   12.8550   20.7096 C   0  0  0  0  0  0  0  0  0  0  0  0
   12.8379   14.3394   23.1785 C   0  0  0  0  0  0  0  0  0  0  0  0
    9.4589   12.9517   22.1789 C   0  0  2  0  0  0  0  0  0  0  0  0
   10.8599   13.3195   22.2624 N   0  0  0  0  0  0  0  0  0  0  0  0
   10.6883   14.5671   24.2118 O   0  0  0  0  0  0  0  0  0  0  0  0
   13.6594   13.0425   24.0606 Cl  0  0  0  0  0  0  0  0  0  0  0  0
    5.9461   11.6904   27.1718 H   0  0  0  0  0  0  0  0  0  0  0  0
    6.3681   13.8069   25.9543 H   0  0  0  0  0  0  0  0  0  0  0  0
   10.0047    8.4176   22.8902 H   0  0  0  0  0  0  0  0  0  0  0  0
    7.0124    9.5981   26.4345 H   0  0  0  0  0  0  0  0  0  0  0  0
    7.8471   13.8460   24.0068 H   0  0  0  0  0  0  0  0  0  0  0  0
    8.5152    8.3864   24.8493 H   0  0  0  0  0  0  0  0  0  0  0  0
   10.4292   10.5221   21.6732 H   0  0  0  0  0  0  0  0  0  0  0  0
    9.5332   12.0184   20.2121 H   0  0  0  0  0  0  0  0  0  0  0  0
    7.9490   12.7003   20.6241 H   0  0  0  0  0  0  0  0  0  0  0  0
    9.2693   13.7701   20.1561 H   0  0  0  0  0  0  0  0  0  0  0  0
   13.1897   14.3366   22.1439 H   0  0  0  0  0  0  0  0  0  0  0  0
   13.0882   15.2995   23.6382 H   0  0  0  0  0  0  0  0  0  0  0  0
    8.9194   13.8080   22.6156 H   0  0  0  0  0  0  0  0  0  0  0  0
   11.4965   12.9900   21.5475 H   0  0  0  0  0  0  0  0  0  0  0  0
  1  2  1  0  0  0  0
  1  4  2  0  0  0  0
  2  5  2  0  0  0  0
  3  6  1  0  0  0  0
  3  7  2  0  0  0  0
  4  8  1  0  0  0  0
  5  9  1  0  0  0  0
  6  8  2  0  0  0  0
  7 10  1  0  0  0  0
  8  9  1  0  0  0  0
  9 10  2  0  0  0  0
 10 14  1  0  0  0  0
 11 13  1  0  0  0  0
 11 15  1  0  0  0  0
 11 16  2  0  0  0  0
 12 14  1  0  0  0  0
 13 17  1  0  0  0  0
 14 15  1  0  0  0  0
  1 18  1  0  0  0  0
  2 19  1  0  0  0  0
  3 20  1  0  0  0  0
  4 21  1  0  0  0  0
  5 22  1  0  0  0  0
  6 23  1  0  0  0  0
  7 24  1  0  0  0  0
 12 25  1  0  0  0  0
 12 26  1  0  0  0  0
 12 27  1  0  0  0  0
 13 28  1  0  0  0  0
 13 29  1  0  0  0  0
 14 30  1  0  0  0  0
 15 31  1  0  0  0  0
M  END
> <Catalog ID>
Z147651784

> <MW>
247.076

> <MW (desalted)>
247.72

> <ClogP>
3.046

> <logS>
-4.24

> <HBD>
1

> <HBA>
1

> <TPSA>
29.1

> <RotBonds>
3

> <ROCS_ShapeQuery>
A71EV2A-x0451_0A_A71EV2A-x0310_0A_A71EV2A-x0416_0A_peptide

> <ROCS_TanimotoCombo>
0.449 

> <ROCS_ShapeTanimoto>
0.301 

> <ROCS_ColorTanimoto>
0.148 

> <ROCS_RefTversky>
0.267 

> <ROCS_RefColorTversky>
0.152 

> <ROCS_RefTverskyCombo>
0.419 

> <ROCS_FitTversky>
1.729 

> <ROCS_FitColorTversky>
0.853 

> <ROCS_FitTverskyCombo>
2.582 

> <ROCS_ColorScore>
-4.601

> <ROCS_Overlap>
1851.869

> <ROCS_Rank>
152                 

$$$$
untitled-dbase-895_17
  -OEChem-11112315393D

 31 32  0     0  0  0  0  0  0999 V2000
    7.3078   10.2353   24.9070 C   0  0  0  0  0  0  0  0  0  0  0  0
    8.1983    9.5355   24.0929 C   0  0  0  0  0  0  0  0  0  0  0  0
    8.3975   12.3091   24.3163 C   0  0  0  0  0  0  0  0  0  0  0  0
    7.4074   11.6222   25.0187 C   0  0  0  0  0  0  0  0  0  0  0  0
    9.1885   10.2224   23.3906 C   0  0  0  0  0  0  0  0  0  0  0  0
    9.2881   11.6093   23.5023 C   0  0  0  0  0  0  0  0  0  0  0  0
    6.4891   12.3426   25.8554 C   0  0  0  0  0  0  0  0  0  0  0  0
    5.3952   13.9412   26.6331 C   0  0  0  0  0  0  0  0  0  0  0  0
   10.8706   13.5002   23.2147 C   0  0  0  0  0  0  0  0  0  0  0  0
   10.1297    9.4467   22.5273 C   0  0  0  0  0  0  0  0  0  0  0  0
    4.7759   15.2356   26.9600 C   0  0  0  0  0  0  0  0  0  0  0  0
   11.8959   13.9832   22.2152 C   0  0  0  0  0  0  0  0  0  0  0  0
    6.2780   13.6823   25.6966 N   0  0  0  0  0  0  0  0  0  0  0  0
    5.7923   11.7563   26.8312 N   0  0  0  0  0  0  0  0  0  0  0  0
    5.1009   12.8004   27.3127 N   0  0  0  0  0  0  0  0  0  0  0  0
   10.2732   12.3146   22.8063 N   0  0  0  0  0  0  0  0  0  0  0  0
   10.6427   14.1529   24.2297 O   0  0  0  0  0  0  0  0  0  0  0  0
   13.1437   14.8687   23.1064 Cl  0  0  0  0  0  0  0  0  0  0  0  0
    6.5403    9.6854   25.4468 H   0  0  0  0  0  0  0  0  0  0  0  0
    8.1113    8.4553   24.0122 H   0  0  0  0  0  0  0  0  0  0  0  0
    8.4785   13.3913   24.4004 H   0  0  0  0  0  0  0  0  0  0  0  0
    9.7276    9.3590   21.5116 H   0  0  0  0  0  0  0  0  0  0  0  0
   11.1109    9.9337   22.4748 H   0  0  0  0  0  0  0  0  0  0  0  0
   10.2938    8.4387   22.9274 H   0  0  0  0  0  0  0  0  0  0  0  0
    3.8459   15.3922   26.3863 H   0  0  0  0  0  0  0  0  0  0  0  0
    4.5217   15.3186   28.0322 H   0  0  0  0  0  0  0  0  0  0  0  0
    5.4466   16.0867   26.7430 H   0  0  0  0  0  0  0  0  0  0  0  0
   11.4688   14.6434   21.4561 H   0  0  0  0  0  0  0  0  0  0  0  0
   12.3536   13.1230   21.7185 H   0  0  0  0  0  0  0  0  0  0  0  0
    4.4629   12.6576   28.0867 H   0  0  0  0  0  0  0  0  0  0  0  0
   10.5812   11.9239   21.9189 H   0  0  0  0  0  0  0  0  0  0  0  0
  1  2  2  0  0  0  0
  1  4  1  0  0  0  0
  2  5  1  0  0  0  0
  3  4  2  0  0  0  0
  3  6  1  0  0  0  0
  4  7  1  0  0  0  0
  5  6  2  0  0  0  0
  5 10  1  0  0  0  0
  6 16  1  0  0  0  0
  7 13  1  0  0  0  0
  7 14  2  0  0  0  0
  8 11  1  0  0  0  0
  8 13  2  0  0  0  0
  8 15  1  0  0  0  0
  9 12  1  0  0  0  0
  9 16  1  0  0  0  0
  9 17  2  0  0  0  0
 12 18  1  0  0  0  0
 14 15  1  0  0  0  0
  1 19  1  0  0  0  0
  2 20  1  0  0  0  0
  3 21  1  0  0  0  0
 10 22  1  0  0  0  0
 10 23  1  0  0  0  0
 10 24  1  0  0  0  0
 11 25  1  0  0  0  0
 11 26  1  0  0  0  0
 11 27  1  0  0  0  0
 12 28  1  0  0  0  0
 12 29  1  0  0  0  0
 15 30  1  0  0  0  0
 16 31  1  0  0  0  0
M  END
> <Catalog ID>
Z1562146800

> <MW>
264.078

> <MW (desalted)>
264.711

> <ClogP>
1.749

> <logS>
-3.71

> <HBD>
2

> <HBA>
3

> <TPSA>
70.67

> <RotBonds>
3

> <ROCS_ShapeQuery>
A71EV2A-x0451_0A_A71EV2A-x0310_0A_A71EV2A-x0416_0A_peptide

> <ROCS_TanimotoCombo>
0.449 

> <ROCS_ShapeTanimoto>
0.321 

> <ROCS_ColorTanimoto>
0.128 

> <ROCS_RefTversky>
0.283 

> <ROCS_RefColorTversky>
0.144 

> <ROCS_RefTverskyCombo>
0.427 

> <ROCS_FitTversky>
1.734 

> <ROCS_FitColorTversky>
0.532 

> <ROCS_FitTverskyCombo>
2.266 

> <ROCS_ColorScore>
-4.390

> <ROCS_Overlap>
1959.707

> <ROCS_Rank>
153                 

$$$$
untitled-dbase-82_65
  -OEChem-11112315393D

 29 30  0     0  0  0  0  0  0999 V2000
   11.4877    9.3868   23.4800 C   0  0  0  0  0  0  0  0  0  0  0  0
    9.7687    8.3481   22.1372 C   0  0  0  0  0  0  0  0  0  0  0  0
   12.4293    8.4972   22.9628 C   0  0  0  0  0  0  0  0  0  0  0  0
   10.7103    7.4585   21.6199 C   0  0  0  0  0  0  0  0  0  0  0  0
    8.1284   12.0007   24.1344 C   0  0  0  0  0  0  0  0  0  0  0  0
   10.1573    9.3122   23.0672 C   0  0  0  0  0  0  0  0  0  0  0  0
   12.0406    7.5330   22.0327 C   0  0  0  0  0  0  0  0  0  0  0  0
    7.4973   10.8281   24.5910 C   0  0  0  0  0  0  0  0  0  0  0  0
    9.2503   11.5542   23.4799 C   0  0  0  0  0  0  0  0  0  0  0  0
   10.6888   13.5486   23.1390 C   0  0  0  0  0  0  0  0  0  0  0  0
    6.2452   10.7242   25.3591 C   0  0  0  0  0  0  0  0  0  0  0  0
   11.1985   14.2858   21.9224 C   0  0  0  0  0  0  0  0  0  0  0  0
    8.1630    9.7199   24.2549 N   0  0  0  0  0  0  0  0  0  0  0  0
    9.2239   10.1943   23.5801 N   0  0  0  0  0  0  0  0  0  0  0  0
   10.2375   12.2529   22.8358 N   0  0  0  0  0  0  0  0  0  0  0  0
   10.6832   14.0987   24.2369 O   0  0  0  0  0  0  0  0  0  0  0  0
   12.9449    6.6789   21.5360 F   0  0  0  0  0  0  0  0  0  0  0  0
   12.4609   15.4056   22.4590 Cl  0  0  0  0  0  0  0  0  0  0  0  0
   11.8044   10.1328   24.2049 H   0  0  0  0  0  0  0  0  0  0  0  0
    8.7353    8.2795   21.8060 H   0  0  0  0  0  0  0  0  0  0  0  0
   13.4649    8.5543   23.2846 H   0  0  0  0  0  0  0  0  0  0  0  0
   10.4086    6.7082   20.8951 H   0  0  0  0  0  0  0  0  0  0  0  0
    7.8129   13.0264   24.2624 H   0  0  0  0  0  0  0  0  0  0  0  0
    5.3708   10.6415   24.6908 H   0  0  0  0  0  0  0  0  0  0  0  0
    6.2371    9.8444   26.0271 H   0  0  0  0  0  0  0  0  0  0  0  0
    6.0825   11.6003   26.0122 H   0  0  0  0  0  0  0  0  0  0  0  0
   10.4160   14.8541   21.4131 H   0  0  0  0  0  0  0  0  0  0  0  0
   11.6312   13.5701   21.2177 H   0  0  0  0  0  0  0  0  0  0  0  0
   10.6971   11.7784   22.0463 H   0  0  0  0  0  0  0  0  0  0  0  0
  1  3  2  0  0  0  0
  1  6  1  0  0  0  0
  2  4  1  0  0  0  0
  2  6  2  0  0  0  0
  3  7  1  0  0  0  0
  4  7  2  0  0  0  0
  5  8  1  0  0  0  0
  5  9  2  0  0  0  0
  6 14  1  0  0  0  0
  7 17  1  0  0  0  0
  8 11  1  0  0  0  0
  8 13  2  0  0  0  0
  9 14  1  0  0  0  0
  9 15  1  0  0  0  0
 10 12  1  0  0  0  0
 10 15  1  0  0  0  0
 10 16  2  0  0  0  0
 12 18  1  0  0  0  0
 13 14  1  0  0  0  0
  1 19  1  0  0  0  0
  2 20  1  0  0  0  0
  3 21  1  0  0  0  0
  4 22  1  0  0  0  0
  5 23  1  0  0  0  0
 11 24  1  0  0  0  0
 11 25  1  0  0  0  0
 11 26  1  0  0  0  0
 12 27  1  0  0  0  0
 12 28  1  0  0  0  0
 15 29  1  0  0  0  0
M  END
> <Catalog ID>
Z199472038

> <MW>
267.057

> <MW (desalted)>
267.687

> <ClogP>
2.733

> <logS>
-3.27

> <HBD>
1

> <HBA>
2

> <TPSA>
46.92

> <RotBonds>
3

> <ROCS_ShapeQuery>
A71EV2A-x0451_0A_A71EV2A-x0310_0A_A71EV2A-x0416_0A_peptide

> <ROCS_TanimotoCombo>
0.448 

> <ROCS_ShapeTanimoto>
0.280 

> <ROCS_ColorTanimoto>
0.168 

> <ROCS_RefTversky>
0.254 

> <ROCS_RefColorTversky>
0.174 

> <ROCS_RefTverskyCombo>
0.429 

> <ROCS_FitTversky>
1.560 

> <ROCS_FitColorTversky>
0.835 

> <ROCS_FitTverskyCombo>
2.395 

> <ROCS_ColorScore>
-5.288

> <ROCS_Overlap>
1765.089

> <ROCS_Rank>
154                 

$$$$
untitled-dbase-405_46
  -OEChem-11112315393D

 31 32  0     1  0  0  0  0  0999 V2000
    5.6326   11.8160   27.7281 C   0  0  0  0  0  0  0  0  0  0  0  0
    6.6708   12.5751   27.1883 C   0  0  0  0  0  0  0  0  0  0  0  0
    5.2431   10.6277   27.1101 C   0  0  0  0  0  0  0  0  0  0  0  0
    7.3195   12.1461   26.0305 C   0  0  0  0  0  0  0  0  0  0  0  0
    5.8918   10.1986   25.9522 C   0  0  0  0  0  0  0  0  0  0  0  0
    6.9300   10.9578   25.4123 C   0  0  0  0  0  0  0  0  0  0  0  0
    8.1431   11.6945   23.3529 C   0  0  0  0  0  0  0  0  0  0  0  0
   10.0025   10.4727   23.9308 C   0  0  0  0  0  0  0  0  0  0  0  0
   10.8131   13.5356   23.2073 C   0  0  0  0  0  0  0  0  0  0  0  0
    7.6227   10.4988   24.1748 C   0  0  2  0  0  0  0  0  0  0  0  0
    6.7331    9.6060   23.3229 C   0  0  0  0  0  0  0  0  0  0  0  0
   11.6479   14.4068   22.3039 C   0  0  0  0  0  0  0  0  0  0  0  0
    8.8872    9.8395   24.4972 N   0  0  0  0  0  0  0  0  0  0  0  0
    9.5067   11.5638   23.2562 N   0  0  0  0  0  0  0  0  0  0  0  0
   10.2897   12.4281   22.5616 N   0  0  0  0  0  0  0  0  0  0  0  0
    7.4379   12.5752   22.8793 O   0  0  0  0  0  0  0  0  0  0  0  0
   11.1665   10.1127   24.0373 O   0  0  0  0  0  0  0  0  0  0  0  0
   10.6272   13.8165   24.3902 O   0  0  0  0  0  0  0  0  0  0  0  0
   10.6087   14.9978   20.9979 Cl  0  0  0  0  0  0  0  0  0  0  0  0
    5.1285   12.1496   28.6305 H   0  0  0  0  0  0  0  0  0  0  0  0
    6.9749   13.4999   27.6701 H   0  0  0  0  0  0  0  0  0  0  0  0
    4.4355   10.0359   27.5307 H   0  0  0  0  0  0  0  0  0  0  0  0
    8.1273   12.7442   25.6169 H   0  0  0  0  0  0  0  0  0  0  0  0
    5.5815    9.2716   25.4774 H   0  0  0  0  0  0  0  0  0  0  0  0
    7.2683    9.2881   22.4272 H   0  0  0  0  0  0  0  0  0  0  0  0
    5.8354   10.1480   23.0225 H   0  0  0  0  0  0  0  0  0  0  0  0
    6.4374    8.7215   23.8888 H   0  0  0  0  0  0  0  0  0  0  0  0
   12.0293   15.2593   22.8725 H   0  0  0  0  0  0  0  0  0  0  0  0
   12.4888   13.8661   21.8621 H   0  0  0  0  0  0  0  0  0  0  0  0
    8.9555    9.0032   25.0692 H   0  0  0  0  0  0  0  0  0  0  0  0
   10.4574   12.2188   21.5788 H   0  0  0  0  0  0  0  0  0  0  0  0
  1  2  1  0  0  0  0
  1  3  2  0  0  0  0
  2  4  2  0  0  0  0
  3  5  1  0  0  0  0
  4  6  1  0  0  0  0
  5  6  2  0  0  0  0
  6 10  1  0  0  0  0
  7 10  1  0  0  0  0
  7 14  1  0  0  0  0
  7 16  2  0  0  0  0
  8 13  1  0  0  0  0
  8 14  1  0  0  0  0
  8 17  2  0  0  0  0
  9 12  1  0  0  0  0
  9 15  1  0  0  0  0
  9 18  2  0  0  0  0
 10 11  1  0  0  0  0
 10 13  1  0  0  0  0
 12 19  1  0  0  0  0
 14 15  1  0  0  0  0
  1 20  1  0  0  0  0
  2 21  1  0  0  0  0
  3 22  1  0  0  0  0
  4 23  1  0  0  0  0
  5 24  1  0  0  0  0
 11 25  1  0  0  0  0
 11 26  1  0  0  0  0
 11 27  1  0  0  0  0
 12 28  1  0  0  0  0
 12 29  1  0  0  0  0
 13 30  1  0  0  0  0
 15 31  1  0  0  0  0
M  END
> <Catalog ID>
Z56943548

> <MW>
281.057

> <MW (desalted)>
281.695

> <ClogP>
0.212

> <logS>
-2.62

> <HBD>
2

> <HBA>
3

> <TPSA>
78.51

> <RotBonds>
3

> <ROCS_ShapeQuery>
A71EV2A-x0451_0A_A71EV2A-x0310_0A_A71EV2A-x0416_0A_peptide

> <ROCS_TanimotoCombo>
0.448 

> <ROCS_ShapeTanimoto>
0.308 

> <ROCS_ColorTanimoto>
0.140 

> <ROCS_RefTversky>
0.275 

> <ROCS_RefColorTversky>
0.156 

> <ROCS_RefTverskyCombo>
0.431 

> <ROCS_FitTversky>
1.623 

> <ROCS_FitColorTversky>
0.577 

> <ROCS_FitTverskyCombo>
2.200 

> <ROCS_ColorScore>
-4.754

> <ROCS_Overlap>
1911.409

> <ROCS_Rank>
155                 

$$$$
untitled-dbase-772_1028
  -OEChem-11112315393D

 41 43  0     0  0  0  0  0  0999 V2000
   10.7345   14.9668   19.8562 C   0  0  0  0  0  0  0  0  0  0  0  0
   10.4567   14.2488   21.0214 C   0  0  0  0  0  0  0  0  0  0  0  0
   12.7859   14.3814   21.7136 C   0  0  0  0  0  0  0  0  0  0  0  0
   12.0346   15.3933   19.6429 C   0  0  0  0  0  0  0  0  0  0  0  0
   13.0498   15.1033   20.5620 C   0  0  0  0  0  0  0  0  0  0  0  0
   11.4749   13.9584   21.9434 C   0  0  0  0  0  0  0  0  0  0  0  0
    7.2860    9.6990   25.1832 C   0  0  0  0  0  0  0  0  0  0  0  0
   12.5791   16.1370   18.4646 C   0  0  0  0  0  0  0  0  0  0  0  0
   14.3675   15.6249   20.0827 C   0  0  0  0  0  0  0  0  0  0  0  0
   13.9167   16.6435   19.0249 C   0  0  0  0  0  0  0  0  0  0  0  0
    9.6254   10.0712   24.2563 C   0  0  0  0  0  0  0  0  0  0  0  0
    8.0777   11.9681   24.5936 C   0  0  0  0  0  0  0  0  0  0  0  0
    9.9745   10.6053   22.8713 C   0  0  0  0  0  0  0  0  0  0  0  0
    8.4235   12.4990   23.2080 C   0  0  0  0  0  0  0  0  0  0  0  0
    7.6162    8.2339   25.3183 C   0  0  0  0  0  0  0  0  0  0  0  0
    8.2885   10.5200   24.6683 N   0  0  0  0  0  0  0  0  0  0  0  0
    9.8034   12.0854   22.8249 N   0  0  0  0  0  0  0  0  0  0  0  0
    6.1696   10.0995   25.5227 O   0  0  0  0  0  0  0  0  0  0  0  0
   12.2235   12.1820   23.6919 O   0  0  0  0  0  0  0  0  0  0  0  0
   10.5880   13.9659   24.3925 O   0  0  0  0  0  0  0  0  0  0  0  0
   11.0951   13.0403   23.4025 S   0  0  0  0  0  0  0  0  0  0  0  0
    7.1162    7.4642   23.8165 Cl  0  0  0  0  0  0  0  0  0  0  0  0
    9.9488   15.1804   19.1397 H   0  0  0  0  0  0  0  0  0  0  0  0
    9.4401   13.9101   21.2052 H   0  0  0  0  0  0  0  0  0  0  0  0
   13.5817   14.1511   22.4149 H   0  0  0  0  0  0  0  0  0  0  0  0
   12.7356   15.4513   17.6256 H   0  0  0  0  0  0  0  0  0  0  0  0
   11.9356   16.9661   18.1576 H   0  0  0  0  0  0  0  0  0  0  0  0
   14.9439   16.1053   20.8785 H   0  0  0  0  0  0  0  0  0  0  0  0
   14.9511   14.8164   19.6306 H   0  0  0  0  0  0  0  0  0  0  0  0
   14.6676   16.7938   18.2427 H   0  0  0  0  0  0  0  0  0  0  0  0
   13.7567   17.6167   19.5101 H   0  0  0  0  0  0  0  0  0  0  0  0
    9.6016    8.9742   24.2484 H   0  0  0  0  0  0  0  0  0  0  0  0
   10.3962   10.3739   24.9679 H   0  0  0  0  0  0  0  0  0  0  0  0
    8.6721   12.4888   25.3514 H   0  0  0  0  0  0  0  0  0  0  0  0
    7.0201   12.1497   24.8223 H   0  0  0  0  0  0  0  0  0  0  0  0
   11.0092   10.3412   22.6037 H   0  0  0  0  0  0  0  0  0  0  0  0
    9.3060   10.1399   22.1321 H   0  0  0  0  0  0  0  0  0  0  0  0
    7.7068   12.0898   22.4810 H   0  0  0  0  0  0  0  0  0  0  0  0
    8.3425   13.5965   23.1809 H   0  0  0  0  0  0  0  0  0  0  0  0
    7.0571    7.8229   26.1512 H   0  0  0  0  0  0  0  0  0  0  0  0
    8.6862    8.1259   25.4538 H   0  0  0  0  0  0  0  0  0  0  0  0
  1  2  2  0  0  0  0
  1  4  1  0  0  0  0
  2  6  1  0  0  0  0
  3  5  1  0  0  0  0
  3  6  2  0  0  0  0
  4  5  2  0  0  0  0
  4  8  1  0  0  0  0
  5  9  1  0  0  0  0
  6 21  1  0  0  0  0
  7 15  1  0  0  0  0
  7 16  1  0  0  0  0
  7 18  2  0  0  0  0
  8 10  1  0  0  0  0
  9 10  1  0  0  0  0
 11 13  1  0  0  0  0
 11 16  1  0  0  0  0
 12 14  1  0  0  0  0
 12 16  1  0  0  0  0
 13 17  1  0  0  0  0
 14 17  1  0  0  0  0
 15 22  1  0  0  0  0
 17 21  1  0  0  0  0
 19 21  2  0  0  0  0
 20 21  2  0  0  0  0
  1 23  1  0  0  0  0
  2 24  1  0  0  0  0
  3 25  1  0  0  0  0
  8 26  1  0  0  0  0
  8 27  1  0  0  0  0
  9 28  1  0  0  0  0
  9 29  1  0  0  0  0
 10 30  1  0  0  0  0
 10 31  1  0  0  0  0
 11 32  1  0  0  0  0
 11 33  1  0  0  0  0
 12 34  1  0  0  0  0
 12 35  1  0  0  0  0
 13 36  1  0  0  0  0
 13 37  1  0  0  0  0
 14 38  1  0  0  0  0
 14 39  1  0  0  0  0
 15 40  1  0  0  0  0
 15 41  1  0  0  0  0
M  END
> <Catalog ID>
Z107738426

> <MW>
342.08

> <MW (desalted)>
342.841

> <ClogP>
2.49

> <logS>
-4.16

> <HBD>
0

> <HBA>
3

> <TPSA>
57.69

> <RotBonds>
2

> <ROCS_ShapeQuery>
A71EV2A-x0451_0A_A71EV2A-x0310_0A_A71EV2A-x0416_0A_peptide

> <ROCS_TanimotoCombo>
0.448 

> <ROCS_ShapeTanimoto>
0.318 

> <ROCS_ColorTanimoto>
0.130 

> <ROCS_RefTversky>
0.285 

> <ROCS_RefColorTversky>
0.143 

> <ROCS_RefTverskyCombo>
0.428 

> <ROCS_FitTversky>
1.562 

> <ROCS_FitColorTversky>
0.595 

> <ROCS_FitTverskyCombo>
2.158 

> <ROCS_ColorScore>
-4.348

> <ROCS_Overlap>
1979.931

> <ROCS_Rank>
156                 

$$$$
untitled-dbase-859_14
  -OEChem-11112315393D

 25 25  0     0  0  0  0  0  0999 V2000
    8.6360   12.2361   24.5843 C   0  0  0  0  0  0  0  0  0  0  0  0
   10.0403   11.1763   22.9285 C   0  0  0  0  0  0  0  0  0  0  0  0
    7.9124   11.0524   24.7283 C   0  0  0  0  0  0  0  0  0  0  0  0
    9.3167    9.9925   23.0726 C   0  0  0  0  0  0  0  0  0  0  0  0
    9.7000   12.2981   23.6844 C   0  0  0  0  0  0  0  0  0  0  0  0
    8.2527    9.9306   23.9725 C   0  0  0  0  0  0  0  0  0  0  0  0
   10.4547   13.5321   23.5342 C   0  0  0  0  0  0  0  0  0  0  0  0
   11.8658   14.8471   21.9578 C   0  0  0  0  0  0  0  0  0  0  0  0
    7.9486    7.6672   23.3089 C   0  0  0  0  0  0  0  0  0  0  0  0
   12.3627   14.8010   20.5351 C   0  0  0  0  0  0  0  0  0  0  0  0
   11.0767   13.7468   22.2901 N   0  0  0  0  0  0  0  0  0  0  0  0
   10.5530   14.3279   24.4843 O   0  0  0  0  0  0  0  0  0  0  0  0
   12.1315   15.7875   22.7041 O   0  0  0  0  0  0  0  0  0  0  0  0
    7.5467    8.7755   24.1126 O   0  0  0  0  0  0  0  0  0  0  0  0
   12.5874   16.4690   19.9862 Cl  0  0  0  0  0  0  0  0  0  0  0  0
    8.3618   13.1038   25.1789 H   0  0  0  0  0  0  0  0  0  0  0  0
   10.8679   11.2142   22.2247 H   0  0  0  0  0  0  0  0  0  0  0  0
    7.0845   11.0105   25.4309 H   0  0  0  0  0  0  0  0  0  0  0  0
    9.5863    9.1219   22.4808 H   0  0  0  0  0  0  0  0  0  0  0  0
    7.3032    6.8108   23.5189 H   0  0  0  0  0  0  0  0  0  0  0  0
    8.9892    7.4152   23.5283 H   0  0  0  0  0  0  0  0  0  0  0  0
    7.8563    7.9403   22.2551 H   0  0  0  0  0  0  0  0  0  0  0  0
   13.3237   14.2802   20.5022 H   0  0  0  0  0  0  0  0  0  0  0  0
   11.6636   14.2995   19.8610 H   0  0  0  0  0  0  0  0  0  0  0  0
   10.9460   13.0352   21.5767 H   0  0  0  0  0  0  0  0  0  0  0  0
  1  3  2  0  0  0  0
  1  5  1  0  0  0  0
  2  4  1  0  0  0  0
  2  5  2  0  0  0  0
  3  6  1  0  0  0  0
  4  6  2  0  0  0  0
  5  7  1  0  0  0  0
  6 14  1  0  0  0  0
  7 11  1  0  0  0  0
  7 12  2  0  0  0  0
  8 10  1  0  0  0  0
  8 11  1  0  0  0  0
  8 13  2  0  0  0  0
  9 14  1  0  0  0  0
 10 15  1  0  0  0  0
  1 16  1  0  0  0  0
  2 17  1  0  0  0  0
  3 18  1  0  0  0  0
  4 19  1  0  0  0  0
  9 20  1  0  0  0  0
  9 21  1  0  0  0  0
  9 22  1  0  0  0  0
 10 23  1  0  0  0  0
 10 24  1  0  0  0  0
 11 25  1  0  0  0  0
M  END
> <Catalog ID>
Z56907596

> <MW>
227.035

> <MW (desalted)>
227.644

> <ClogP>
1.485

> <logS>
-2.58

> <HBD>
1

> <HBA>
3

> <TPSA>
55.4

> <RotBonds>
3

> <ROCS_ShapeQuery>
A71EV2A-x0451_0A_A71EV2A-x0310_0A_A71EV2A-x0416_0A_peptide

> <ROCS_TanimotoCombo>
0.448 

> <ROCS_ShapeTanimoto>
0.281 

> <ROCS_ColorTanimoto>
0.166 

> <ROCS_RefTversky>
0.250 

> <ROCS_RefColorTversky>
0.172 

> <ROCS_RefTverskyCombo>
0.423 

> <ROCS_FitTversky>
1.778 

> <ROCS_FitColorTversky>
0.826 

> <ROCS_FitTverskyCombo>
2.604 

> <ROCS_ColorScore>
-5.236

> <ROCS_Overlap>
1734.853

> <ROCS_Rank>
157                 

$$$$
untitled-dbase-532_7
  -OEChem-11112315393D

 30 31  0     1  0  0  0  0  0999 V2000
   10.3132   13.1823   23.3953 C   0  0  0  0  0  0  0  0  0  0  0  0
    6.5804   13.0566   25.9125 C   0  0  0  0  0  0  0  0  0  0  0  0
    6.5423   11.7374   26.6741 C   0  0  0  0  0  0  0  0  0  0  0  0
    7.8960   13.2362   25.1525 C   0  0  0  0  0  0  0  0  0  0  0  0
    6.8156   10.5596   25.7494 C   0  0  0  0  0  0  0  0  0  0  0  0
    9.5963   10.9122   22.5545 C   0  0  0  0  0  0  0  0  0  0  0  0
    9.4924    9.6452   23.3897 C   0  0  0  0  0  0  0  0  0  0  0  0
    8.1744   12.0570   24.2084 C   0  0  2  0  0  0  0  0  0  0  0  0
    8.1338   10.7269   24.9922 C   0  0  2  0  0  0  0  0  0  0  0  0
   11.0309   13.4561   22.0945 C   0  0  0  0  0  0  0  0  0  0  0  0
    9.4242   12.1008   23.4046 N   0  0  0  0  0  0  0  0  0  0  0  0
   10.5583   13.9173   24.3540 O   0  0  0  0  0  0  0  0  0  0  0  0
    8.2553    9.6156   24.0975 O   0  0  0  0  0  0  0  0  0  0  0  0
   11.3021   15.1938   22.0247 Cl  0  0  0  0  0  0  0  0  0  0  0  0
    5.7487   13.0865   25.2015 H   0  0  0  0  0  0  0  0  0  0  0  0
    6.4405   13.8887   26.6078 H   0  0  0  0  0  0  0  0  0  0  0  0
    7.2954   11.7575   27.4675 H   0  0  0  0  0  0  0  0  0  0  0  0
    5.5686   11.6145   27.1544 H   0  0  0  0  0  0  0  0  0  0  0  0
    7.8484   14.1847   24.5972 H   0  0  0  0  0  0  0  0  0  0  0  0
    8.7233   13.3408   25.8739 H   0  0  0  0  0  0  0  0  0  0  0  0
    6.8364    9.6215   26.3267 H   0  0  0  0  0  0  0  0  0  0  0  0
    5.9870   10.4376   25.0320 H   0  0  0  0  0  0  0  0  0  0  0  0
   10.5913   11.0002   22.1003 H   0  0  0  0  0  0  0  0  0  0  0  0
    8.8767   10.8750   21.7342 H   0  0  0  0  0  0  0  0  0  0  0  0
    9.5255    8.7707   22.7573 H   0  0  0  0  0  0  0  0  0  0  0  0
   10.2968    9.6024   24.1076 H   0  0  0  0  0  0  0  0  0  0  0  0
    7.3625   12.0129   23.4385 H   0  0  0  0  0  0  0  0  0  0  0  0
    8.9451   10.6596   25.7295 H   0  0  0  0  0  0  0  0  0  0  0  0
   10.3978   13.1449   21.2715 H   0  0  0  0  0  0  0  0  0  0  0  0
   11.9793   12.9311   22.0992 H   0  0  0  0  0  0  0  0  0  0  0  0
  1 10  1  0  0  0  0
  1 11  1  0  0  0  0
  1 12  2  0  0  0  0
  2  3  1  0  0  0  0
  2  4  1  0  0  0  0
  3  5  1  0  0  0  0
  4  8  1  0  0  0  0
  5  9  1  0  0  0  0
  6  7  1  0  0  0  0
  6 11  1  0  0  0  0
  7 13  1  0  0  0  0
  8  9  1  0  0  0  0
  8 11  1  0  0  0  0
  9 13  1  0  0  0  0
 10 14  1  0  0  0  0
  2 15  1  0  0  0  0
  2 16  1  0  0  0  0
  3 17  1  0  0  0  0
  3 18  1  0  0  0  0
  4 19  1  0  0  0  0
  4 20  1  0  0  0  0
  5 21  1  0  0  0  0
  5 22  1  0  0  0  0
  6 23  1  0  0  0  0
  6 24  1  0  0  0  0
  7 25  1  0  0  0  0
  7 26  1  0  0  0  0
  8 27  1  0  0  0  0
  9 28  1  0  0  0  0
 10 29  1  0  0  0  0
 10 30  1  0  0  0  0
M  END
> <Catalog ID>
Z4508299033

> <MW>
217.087

> <MW (desalted)>
217.693

> <ClogP>
1.232

> <logS>
-2.094

> <HBD>
0

> <HBA>
2

> <TPSA>
29.54

> <RotBonds>
1

> <ROCS_ShapeQuery>
A71EV2A-x0451_0A_A71EV2A-x0310_0A_A71EV2A-x0416_0A_peptide

> <ROCS_TanimotoCombo>
0.447 

> <ROCS_ShapeTanimoto>
0.286 

> <ROCS_ColorTanimoto>
0.162 

> <ROCS_RefTversky>
0.252 

> <ROCS_RefColorTversky>
0.164 

> <ROCS_RefTverskyCombo>
0.416 

> <ROCS_FitTversky>
1.878 

> <ROCS_FitColorTversky>
0.922 

> <ROCS_FitTverskyCombo>
2.799 

> <ROCS_ColorScore>
-4.968

> <ROCS_Overlap>
1745.763

> <ROCS_Rank>
158                 

$$$$
untitled-dbase-499_60
  -OEChem-11112315393D

 32 33  0     0  0  0  0  0  0999 V2000
    9.6651    9.6609   23.2236 C   0  0  0  0  0  0  0  0  0  0  0  0
    7.9590   10.7284   24.6326 C   0  0  0  0  0  0  0  0  0  0  0  0
   10.6440   13.2183   23.4659 C   0  0  0  0  0  0  0  0  0  0  0  0
    9.8902   11.0022   22.5939 C   0  0  0  0  0  0  0  0  0  0  0  0
    6.7910   13.6664   26.2409 C   0  0  0  0  0  0  0  0  0  0  0  0
    8.2936   13.7864   26.4339 C   0  0  0  0  0  0  0  0  0  0  0  0
    6.3951   13.4787   24.7793 C   0  0  0  0  0  0  0  0  0  0  0  0
    9.0168   12.5421   25.9184 C   0  0  0  0  0  0  0  0  0  0  0  0
    7.5465   13.0778   23.8515 C   0  0  0  0  0  0  0  0  0  0  0  0
    8.6051   12.1265   24.4684 C   0  0  0  0  0  0  0  0  0  0  0  0
   11.6296   13.2437   22.3218 C   0  0  0  0  0  0  0  0  0  0  0  0
    8.6903    9.6439   24.1959 N   0  0  0  0  0  0  0  0  0  0  0  0
    9.8027   12.0882   23.5654 N   0  0  0  0  0  0  0  0  0  0  0  0
   10.1684    8.6370   22.7629 O   0  0  0  0  0  0  0  0  0  0  0  0
    6.8820   10.5673   25.2120 O   0  0  0  0  0  0  0  0  0  0  0  0
   10.6311   14.1750   24.2452 O   0  0  0  0  0  0  0  0  0  0  0  0
   12.4962   14.7697   22.4421 Cl  0  0  0  0  0  0  0  0  0  0  0  0
   10.8792   11.0276   22.0885 H   0  0  0  0  0  0  0  0  0  0  0  0
    9.1529   11.1052   21.7726 H   0  0  0  0  0  0  0  0  0  0  0  0
    6.4062   12.8174   26.8356 H   0  0  0  0  0  0  0  0  0  0  0  0
    6.2894   14.5662   26.6451 H   0  0  0  0  0  0  0  0  0  0  0  0
    8.6601   14.6669   25.8976 H   0  0  0  0  0  0  0  0  0  0  0  0
    8.5229   13.9393   27.4930 H   0  0  0  0  0  0  0  0  0  0  0  0
    5.5856   12.7287   24.7202 H   0  0  0  0  0  0  0  0  0  0  0  0
    5.9418   14.4159   24.4069 H   0  0  0  0  0  0  0  0  0  0  0  0
   10.0925   12.7393   25.9366 H   0  0  0  0  0  0  0  0  0  0  0  0
    8.8085   11.7483   26.6378 H   0  0  0  0  0  0  0  0  0  0  0  0
    7.0783   12.6204   22.9742 H   0  0  0  0  0  0  0  0  0  0  0  0
    8.0419   14.0025   23.5320 H   0  0  0  0  0  0  0  0  0  0  0  0
   11.0812   13.1973   21.3892 H   0  0  0  0  0  0  0  0  0  0  0  0
   12.3155   12.4136   22.4355 H   0  0  0  0  0  0  0  0  0  0  0  0
    8.4941    8.7559   24.6276 H   0  0  0  0  0  0  0  0  0  0  0  0
  1  4  1  0  0  0  0
  1 12  1  0  0  0  0
  1 14  2  0  0  0  0
  2 10  1  0  0  0  0
  2 12  1  0  0  0  0
  2 15  2  0  0  0  0
  3 11  1  0  0  0  0
  3 13  1  0  0  0  0
  3 16  2  0  0  0  0
  4 13  1  0  0  0  0
  5  6  1  0  0  0  0
  5  7  1  0  0  0  0
  6  8  1  0  0  0  0
  7  9  1  0  0  0  0
  8 10  1  0  0  0  0
  9 10  1  0  0  0  0
 10 13  1  0  0  0  0
 11 17  1  0  0  0  0
  4 18  1  0  0  0  0
  4 19  1  0  0  0  0
  5 20  1  0  0  0  0
  5 21  1  0  0  0  0
  6 22  1  0  0  0  0
  6 23  1  0  0  0  0
  7 24  1  0  0  0  0
  7 25  1  0  0  0  0
  8 26  1  0  0  0  0
  8 27  1  0  0  0  0
  9 28  1  0  0  0  0
  9 29  1  0  0  0  0
 11 30  1  0  0  0  0
 11 31  1  0  0  0  0
 12 32  1  0  0  0  0
M  END
> <Catalog ID>
Z134953152

> <MW>
258.077

> <MW (desalted)>
258.701

> <ClogP>
1.402

> <logS>
-2.66

> <HBD>
1

> <HBA>
3

> <TPSA>
66.48

> <RotBonds>
1

> <ROCS_ShapeQuery>
A71EV2A-x0451_0A_A71EV2A-x0310_0A_A71EV2A-x0416_0A_peptide

> <ROCS_TanimotoCombo>
0.447 

> <ROCS_ShapeTanimoto>
0.307 

> <ROCS_ColorTanimoto>
0.140 

> <ROCS_RefTversky>
0.271 

> <ROCS_RefColorTversky>
0.152 

> <ROCS_RefTverskyCombo>
0.423 

> <ROCS_FitTversky>
1.760 

> <ROCS_FitColorTversky>
0.637 

> <ROCS_FitTverskyCombo>
2.397 

> <ROCS_ColorScore>
-4.639

> <ROCS_Overlap>
1878.664

> <ROCS_Rank>
159                 

$$$$
untitled-dbase-587_1
  -OEChem-11112315393D

 34 36  0     1  0  0  0  0  0999 V2000
   11.8906   14.0914   21.4962 C   0  0  0  0  0  0  0  0  0  0  0  0
   11.8231   13.2268   22.5107 C   0  0  0  0  0  0  0  0  0  0  0  0
   10.7415   13.3792   23.5090 C   0  0  0  0  0  0  0  0  0  0  0  0
    6.8279   10.2782   25.1306 C   0  0  0  0  0  0  0  0  0  0  0  0
    9.0597    9.3222   24.5174 C   0  0  0  0  0  0  0  0  0  0  0  0
    7.5267   10.2982   22.7269 C   0  0  0  0  0  0  0  0  0  0  0  0
    8.9086   11.4776   25.8382 C   0  0  0  0  0  0  0  0  0  0  0  0
    7.3692   12.4625   24.0316 C   0  0  0  0  0  0  0  0  0  0  0  0
    9.9570   11.0745   22.8858 C   0  0  0  0  0  0  0  0  0  0  0  0
    8.2822   10.1067   25.5763 C   0  0  1  0  0  0  0  0  0  0  0  0
    6.7805   11.0665   23.8194 C   0  0  2  0  0  0  0  0  0  0  0  0
    8.9641    9.9280   23.1118 C   0  0  0  0  0  0  0  0  0  0  0  0
    8.7650   12.4620   24.6697 C   0  0  0  0  0  0  0  0  0  0  0  0
    9.8420   12.3095   23.6717 N   0  0  0  0  0  0  0  0  0  0  0  0
   10.7006   14.4400   24.1351 O   0  0  0  0  0  0  0  0  0  0  0  0
   12.6599   14.0312   20.7337 H   0  0  0  0  0  0  0  0  0  0  0  0
   11.1607   14.8896   21.4120 H   0  0  0  0  0  0  0  0  0  0  0  0
   12.5322   12.4178   22.6284 H   0  0  0  0  0  0  0  0  0  0  0  0
    6.3565    9.2965   24.9972 H   0  0  0  0  0  0  0  0  0  0  0  0
    6.2539   10.8002   25.9063 H   0  0  0  0  0  0  0  0  0  0  0  0
   10.1091    9.2131   24.8176 H   0  0  0  0  0  0  0  0  0  0  0  0
    8.6491    8.3040   24.4789 H   0  0  0  0  0  0  0  0  0  0  0  0
    6.9760    9.3689   22.5272 H   0  0  0  0  0  0  0  0  0  0  0  0
    7.5148   10.8639   21.7872 H   0  0  0  0  0  0  0  0  0  0  0  0
    8.4060   11.9159   26.7116 H   0  0  0  0  0  0  0  0  0  0  0  0
    9.9623   11.3743   26.1264 H   0  0  0  0  0  0  0  0  0  0  0  0
    7.3774   13.0275   23.0910 H   0  0  0  0  0  0  0  0  0  0  0  0
    6.6937   13.0140   24.7003 H   0  0  0  0  0  0  0  0  0  0  0  0
   10.9697   10.6862   23.0548 H   0  0  0  0  0  0  0  0  0  0  0  0
    9.9072   11.3676   21.8292 H   0  0  0  0  0  0  0  0  0  0  0  0
    8.3015    9.5345   26.5122 H   0  0  0  0  0  0  0  0  0  0  0  0
    5.7341   11.1770   23.5092 H   0  0  0  0  0  0  0  0  0  0  0  0
    9.2789    9.1399   22.4123 H   0  0  0  0  0  0  0  0  0  0  0  0
    8.8828   13.4587   25.1122 H   0  0  0  0  0  0  0  0  0  0  0  0
  1  2  2  0  0  0  0
  2  3  1  0  0  0  0
  3 14  1  0  0  0  0
  3 15  2  0  0  0  0
  4 10  1  0  0  0  0
  4 11  1  0  0  0  0
  5 10  1  0  0  0  0
  5 12  1  0  0  0  0
  6 11  1  0  0  0  0
  6 12  1  0  0  0  0
  7 10  1  0  0  0  0
  7 13  1  0  0  0  0
  8 11  1  0  0  0  0
  8 13  1  0  0  0  0
  9 12  1  0  0  0  0
  9 14  1  0  0  0  0
 13 14  1  0  0  0  0
  1 16  1  0  0  0  0
  1 17  1  0  0  0  0
  2 18  1  0  0  0  0
  4 19  1  0  0  0  0
  4 20  1  0  0  0  0
  5 21  1  0  0  0  0
  5 22  1  0  0  0  0
  6 23  1  0  0  0  0
  6 24  1  0  0  0  0
  7 25  1  0  0  0  0
  7 26  1  0  0  0  0
  8 27  1  0  0  0  0
  8 28  1  0  0  0  0
  9 29  1  0  0  0  0
  9 30  1  0  0  0  0
 10 31  1  0  0  0  0
 11 32  1  0  0  0  0
 12 33  1  0  0  0  0
 13 34  1  0  0  0  0
M  END
> <Catalog ID>
Z2285377413

> <MW>
205.296

> <MW (desalted)>
205.296

> <ClogP>
2.213

> <logS>
-2.839

> <HBD>
0

> <HBA>
1

> <TPSA>
20.31

> <RotBonds>
1

> <ROCS_ShapeQuery>
A71EV2A-x0451_0A_A71EV2A-x0310_0A_A71EV2A-x0416_0A_peptide

> <ROCS_TanimotoCombo>
0.447 

> <ROCS_ShapeTanimoto>
0.273 

> <ROCS_ColorTanimoto>
0.174 

> <ROCS_RefTversky>
0.245 

> <ROCS_RefColorTversky>
0.192 

> <ROCS_RefTverskyCombo>
0.438 

> <ROCS_FitTversky>
1.706 

> <ROCS_FitColorTversky>
0.643 

> <ROCS_FitTverskyCombo>
2.349 

> <ROCS_ColorScore>
-5.873

> <ROCS_Overlap>
1699.538

> <ROCS_Rank>
160                 

$$$$
untitled-dbase-528_37
  -OEChem-11112315393D

 32 33  0     0  0  0  0  0  0999 V2000
   12.4376    8.8123   22.4363 C   0  0  0  0  0  0  0  0  0  0  0  0
   10.7131    7.1415   22.1688 C   0  0  0  0  0  0  0  0  0  0  0  0
   11.4950    9.7030   22.9499 C   0  0  0  0  0  0  0  0  0  0  0  0
    9.7705    8.0321   22.6826 C   0  0  0  0  0  0  0  0  0  0  0  0
    8.1290   12.0024   24.1307 C   0  0  0  0  0  0  0  0  0  0  0  0
   12.0466    7.5316   22.0456 C   0  0  0  0  0  0  0  0  0  0  0  0
   10.1615    9.3129   23.0731 C   0  0  0  0  0  0  0  0  0  0  0  0
    7.4966   10.8302   24.5867 C   0  0  0  0  0  0  0  0  0  0  0  0
    9.2530   11.5553   23.4803 C   0  0  0  0  0  0  0  0  0  0  0  0
   10.6924   13.5493   23.1416 C   0  0  0  0  0  0  0  0  0  0  0  0
   13.0544    6.5793   21.4965 C   0  0  0  0  0  0  0  0  0  0  0  0
    6.2420   10.7272   25.3508 C   0  0  0  0  0  0  0  0  0  0  0  0
   11.2059   14.2852   21.9258 C   0  0  0  0  0  0  0  0  0  0  0  0
    8.1634    9.7218   24.2540 N   0  0  0  0  0  0  0  0  0  0  0  0
    9.2264   10.1954   23.5819 N   0  0  0  0  0  0  0  0  0  0  0  0
   10.2422   12.2533   22.8385 N   0  0  0  0  0  0  0  0  0  0  0  0
   10.6833   14.1007   24.2388 O   0  0  0  0  0  0  0  0  0  0  0  0
    9.8426   15.1566   21.2062 Cl  0  0  0  0  0  0  0  0  0  0  0  0
   13.4745    9.1241   22.3436 H   0  0  0  0  0  0  0  0  0  0  0  0
   10.3995    6.1457   21.8669 H   0  0  0  0  0  0  0  0  0  0  0  0
   11.8128   10.6987   23.2499 H   0  0  0  0  0  0  0  0  0  0  0  0
    8.7345    7.7145   22.7726 H   0  0  0  0  0  0  0  0  0  0  0  0
    7.8130   13.0282   24.2565 H   0  0  0  0  0  0  0  0  0  0  0  0
   13.5017    5.9881   22.3049 H   0  0  0  0  0  0  0  0  0  0  0  0
   12.5991    5.8906   20.7729 H   0  0  0  0  0  0  0  0  0  0  0  0
   13.8573    7.1097   20.9680 H   0  0  0  0  0  0  0  0  0  0  0  0
    5.3698   10.6436   24.6799 H   0  0  0  0  0  0  0  0  0  0  0  0
    6.2319    9.8482   26.0198 H   0  0  0  0  0  0  0  0  0  0  0  0
    6.0771   11.6040   26.0024 H   0  0  0  0  0  0  0  0  0  0  0  0
   11.6327   13.6157   21.1747 H   0  0  0  0  0  0  0  0  0  0  0  0
   11.9695   15.0058   22.2318 H   0  0  0  0  0  0  0  0  0  0  0  0
   10.7043   11.7779   22.0510 H   0  0  0  0  0  0  0  0  0  0  0  0
  1  3  2  0  0  0  0
  1  6  1  0  0  0  0
  2  4  1  0  0  0  0
  2  6  2  0  0  0  0
  3  7  1  0  0  0  0
  4  7  2  0  0  0  0
  5  8  1  0  0  0  0
  5  9  2  0  0  0  0
  6 11  1  0  0  0  0
  7 15  1  0  0  0  0
  8 12  1  0  0  0  0
  8 14  2  0  0  0  0
  9 15  1  0  0  0  0
  9 16  1  0  0  0  0
 10 13  1  0  0  0  0
 10 16  1  0  0  0  0
 10 17  2  0  0  0  0
 13 18  1  0  0  0  0
 14 15  1  0  0  0  0
  1 19  1  0  0  0  0
  2 20  1  0  0  0  0
  3 21  1  0  0  0  0
  4 22  1  0  0  0  0
  5 23  1  0  0  0  0
 11 24  1  0  0  0  0
 11 25  1  0  0  0  0
 11 26  1  0  0  0  0
 12 27  1  0  0  0  0
 12 28  1  0  0  0  0
 12 29  1  0  0  0  0
 13 30  1  0  0  0  0
 13 31  1  0  0  0  0
 16 32  1  0  0  0  0
M  END
> <Catalog ID>
Z85921044

> <MW>
263.083

> <MW (desalted)>
263.723

> <ClogP>
3.003

> <logS>
-3.49

> <HBD>
1

> <HBA>
2

> <TPSA>
46.92

> <RotBonds>
3

> <ROCS_ShapeQuery>
A71EV2A-x0451_0A_A71EV2A-x0310_0A_A71EV2A-x0416_0A_peptide

> <ROCS_TanimotoCombo>
0.447 

> <ROCS_ShapeTanimoto>
0.279 

> <ROCS_ColorTanimoto>
0.168 

> <ROCS_RefTversky>
0.253 

> <ROCS_RefColorTversky>
0.174 

> <ROCS_RefTverskyCombo>
0.427 

> <ROCS_FitTversky>
1.559 

> <ROCS_FitColorTversky>
0.835 

> <ROCS_FitTverskyCombo>
2.394 

> <ROCS_ColorScore>
-5.288

> <ROCS_Overlap>
1756.488

> <ROCS_Rank>
161                 

$$$$
untitled-dbase-101_2
  -OEChem-11112315393D

 37 38  0     0  0  0  0  0  0999 V2000
    8.1117   13.4268   24.6923 C   0  0  0  0  0  0  0  0  0  0  0  0
    8.3208   12.0588   24.3493 C   0  0  0  0  0  0  0  0  0  0  0  0
    7.5767   10.9388   24.7954 C   0  0  0  0  0  0  0  0  0  0  0  0
    8.1287    9.8196   24.2124 C   0  0  0  0  0  0  0  0  0  0  0  0
    9.3049   11.5898   23.5072 C   0  0  0  0  0  0  0  0  0  0  0  0
   10.8983   13.4695   23.2063 C   0  0  0  0  0  0  0  0  0  0  0  0
   12.2618    9.8531   21.7978 C   0  0  0  0  0  0  0  0  0  0  0  0
   11.3987    9.3695   20.6451 C   0  0  0  0  0  0  0  0  0  0  0  0
   11.5187    9.3674   23.0372 C   0  0  0  0  0  0  0  0  0  0  0  0
    9.9827    9.6392   21.1325 C   0  0  0  0  0  0  0  0  0  0  0  0
   10.0292    9.3417   22.6409 C   0  0  0  0  0  0  0  0  0  0  0  0
    6.4203   10.9579   25.7162 C   0  0  0  0  0  0  0  0  0  0  0  0
    7.7467    8.3962   24.3323 C   0  0  0  0  0  0  0  0  0  0  0  0
   11.9316   13.9356   22.2071 C   0  0  0  0  0  0  0  0  0  0  0  0
    7.9414   14.5403   24.9715 N   0  0  0  0  0  0  0  0  0  0  0  0
    9.1783   10.2274   23.4312 N   0  0  0  0  0  0  0  0  0  0  0  0
   10.2801   12.2700   22.8208 N   0  0  0  0  0  0  0  0  0  0  0  0
   10.6677   14.1354   24.2121 O   0  0  0  0  0  0  0  0  0  0  0  0
   11.1152   14.9803   21.0334 Cl  0  0  0  0  0  0  0  0  0  0  0  0
   13.2826    9.4638   21.7468 H   0  0  0  0  0  0  0  0  0  0  0  0
   12.3127   10.9486   21.7971 H   0  0  0  0  0  0  0  0  0  0  0  0
   11.6210    9.8900   19.7093 H   0  0  0  0  0  0  0  0  0  0  0  0
   11.5466    8.2951   20.4833 H   0  0  0  0  0  0  0  0  0  0  0  0
   11.8431    8.3466   23.2742 H   0  0  0  0  0  0  0  0  0  0  0  0
   11.7350    9.9935   23.9090 H   0  0  0  0  0  0  0  0  0  0  0  0
    9.7155   10.6858   20.9391 H   0  0  0  0  0  0  0  0  0  0  0  0
    9.2500    9.0103   20.6166 H   0  0  0  0  0  0  0  0  0  0  0  0
    9.6175    8.3164   22.8355 H   0  0  0  0  0  0  0  0  0  0  0  0
    5.4751   11.0667   25.1612 H   0  0  0  0  0  0  0  0  0  0  0  0
    6.3554   10.0341   26.3145 H   0  0  0  0  0  0  0  0  0  0  0  0
    6.4840   11.7877   26.4395 H   0  0  0  0  0  0  0  0  0  0  0  0
    7.0083    8.1196   23.5632 H   0  0  0  0  0  0  0  0  0  0  0  0
    8.6154    7.7265   24.2221 H   0  0  0  0  0  0  0  0  0  0  0  0
    7.3079    8.1698   25.3181 H   0  0  0  0  0  0  0  0  0  0  0  0
   12.4069   13.1090   21.6729 H   0  0  0  0  0  0  0  0  0  0  0  0
   12.7034   14.5130   22.7237 H   0  0  0  0  0  0  0  0  0  0  0  0
   10.5899   11.8575   21.9314 H   0  0  0  0  0  0  0  0  0  0  0  0
  1  2  1  0  0  0  0
  1 15  3  0  0  0  0
  2  3  1  0  0  0  0
  2  5  2  0  0  0  0
  3  4  2  0  0  0  0
  3 12  1  0  0  0  0
  4 13  1  0  0  0  0
  4 16  1  0  0  0  0
  5 16  1  0  0  0  0
  5 17  1  0  0  0  0
  6 14  1  0  0  0  0
  6 17  1  0  0  0  0
  6 18  2  0  0  0  0
  7  8  1  0  0  0  0
  7  9  1  0  0  0  0
  8 10  1  0  0  0  0
  9 11  1  0  0  0  0
 10 11  1  0  0  0  0
 11 16  1  0  0  0  0
 14 19  1  0  0  0  0
  7 20  1  0  0  0  0
  7 21  1  0  0  0  0
  8 22  1  0  0  0  0
  8 23  1  0  0  0  0
  9 24  1  0  0  0  0
  9 25  1  0  0  0  0
 10 26  1  0  0  0  0
 10 27  1  0  0  0  0
 11 28  1  0  0  0  0
 12 29  1  0  0  0  0
 12 30  1  0  0  0  0
 12 31  1  0  0  0  0
 13 32  1  0  0  0  0
 13 33  1  0  0  0  0
 13 34  1  0  0  0  0
 14 35  1  0  0  0  0
 14 36  1  0  0  0  0
 17 37  1  0  0  0  0
M  END
> <Catalog ID>
Z220588536

> <MW>
279.114

> <MW (desalted)>
279.765

> <ClogP>
2.873

> <logS>
-2.93

> <HBD>
1

> <HBA>
2

> <TPSA>
57.82

> <RotBonds>
3

> <ROCS_ShapeQuery>
A71EV2A-x0451_0A_A71EV2A-x0310_0A_A71EV2A-x0416_0A_peptide

> <ROCS_TanimotoCombo>
0.447 

> <ROCS_ShapeTanimoto>
0.313 

> <ROCS_ColorTanimoto>
0.134 

> <ROCS_RefTversky>
0.278 

> <ROCS_RefColorTversky>
0.143 

> <ROCS_RefTverskyCombo>
0.421 

> <ROCS_FitTversky>
1.671 

> <ROCS_FitColorTversky>
0.685 

> <ROCS_FitTverskyCombo>
2.356 

> <ROCS_ColorScore>
-4.339

> <ROCS_Overlap>
1927.497

> <ROCS_Rank>
162                 

$$$$
untitled-dbase-294_391
  -OEChem-11112315393D

 34 36  0     0  0  0  0  0  0999 V2000
    6.5190   11.9211   25.9800 C   0  0  0  0  0  0  0  0  0  0  0  0
    7.3693   12.7795   25.2894 C   0  0  0  0  0  0  0  0  0  0  0  0
    8.6801    8.0968   23.8882 C   0  0  0  0  0  0  0  0  0  0  0  0
    6.6286   10.5411   25.8075 C   0  0  0  0  0  0  0  0  0  0  0  0
    8.3326   12.2610   24.4235 C   0  0  0  0  0  0  0  0  0  0  0  0
    7.7169    8.6152   24.7542 C   0  0  0  0  0  0  0  0  0  0  0  0
    9.5304    8.9551   23.1975 C   0  0  0  0  0  0  0  0  0  0  0  0
    7.5924   10.0017   24.9400 C   0  0  0  0  0  0  0  0  0  0  0  0
    8.4571   10.8746   24.2376 C   0  0  0  0  0  0  0  0  0  0  0  0
    9.4208   10.3352   23.3700 C   0  0  0  0  0  0  0  0  0  0  0  0
   11.6064   11.6286   24.7238 C   0  0  0  0  0  0  0  0  0  0  0  0
   12.3177   12.5337   25.4085 C   0  0  0  0  0  0  0  0  0  0  0  0
   11.5688   13.3173   23.1373 C   0  0  0  0  0  0  0  0  0  0  0  0
   11.8672   15.3058   22.0515 C   0  0  0  0  0  0  0  0  0  0  0  0
   10.3667   11.2012   22.5969 C   0  0  0  0  0  0  0  0  0  0  0  0
   12.1877   15.7293   20.6346 C   0  0  0  0  0  0  0  0  0  0  0  0
   11.3485   14.0267   22.0850 N   0  0  0  0  0  0  0  0  0  0  0  0
   11.1819   12.0162   23.4576 N   0  0  0  0  0  0  0  0  0  0  0  0
   12.0721   16.0287   23.0237 O   0  0  0  0  0  0  0  0  0  0  0  0
   12.5165   14.0081   24.4905 S   0  0  0  0  0  0  0  0  0  0  0  0
   13.8557   15.3080   20.2148 Cl  0  0  0  0  0  0  0  0  0  0  0  0
    5.7693   12.3254   26.6539 H   0  0  0  0  0  0  0  0  0  0  0  0
    7.2832   13.8538   25.4244 H   0  0  0  0  0  0  0  0  0  0  0  0
    8.7659    7.0225   23.7534 H   0  0  0  0  0  0  0  0  0  0  0  0
    5.9534    9.8890   26.3576 H   0  0  0  0  0  0  0  0  0  0  0  0
    8.9781   12.9640   23.9021 H   0  0  0  0  0  0  0  0  0  0  0  0
    7.0629    7.9255   25.2837 H   0  0  0  0  0  0  0  0  0  0  0  0
   10.2768    8.5390   22.5257 H   0  0  0  0  0  0  0  0  0  0  0  0
   11.3378   10.6400   25.0676 H   0  0  0  0  0  0  0  0  0  0  0  0
   12.7230   12.3988   26.4007 H   0  0  0  0  0  0  0  0  0  0  0  0
   11.0378   10.5915   21.9796 H   0  0  0  0  0  0  0  0  0  0  0  0
    9.8263   11.8722   21.9186 H   0  0  0  0  0  0  0  0  0  0  0  0
   12.0773   16.8128   20.5371 H   0  0  0  0  0  0  0  0  0  0  0  0
   11.5162   15.2189   19.9388 H   0  0  0  0  0  0  0  0  0  0  0  0
  1  2  1  0  0  0  0
  1  4  2  0  0  0  0
  2  5  2  0  0  0  0
  3  6  1  0  0  0  0
  3  7  2  0  0  0  0
  4  8  1  0  0  0  0
  5  9  1  0  0  0  0
  6  8  2  0  0  0  0
  7 10  1  0  0  0  0
  8  9  1  0  0  0  0
  9 10  2  0  0  0  0
 10 15  1  0  0  0  0
 11 12  2  0  0  0  0
 11 18  1  0  0  0  0
 12 20  1  0  0  0  0
 13 17  2  3  0  0  0
 13 18  1  0  0  0  0
 13 20  1  0  0  0  0
 14 16  1  0  0  0  0
 14 17  1  0  0  0  0
 14 19  2  0  0  0  0
 15 18  1  0  0  0  0
 16 21  1  0  0  0  0
  1 22  1  0  0  0  0
  2 23  1  0  0  0  0
  3 24  1  0  0  0  0
  4 25  1  0  0  0  0
  5 26  1  0  0  0  0
  6 27  1  0  0  0  0
  7 28  1  0  0  0  0
 11 29  1  0  0  0  0
 12 30  1  0  0  0  0
 15 31  1  0  0  0  0
 15 32  1  0  0  0  0
 16 33  1  0  0  0  0
 16 34  1  0  0  0  0
M  END
> <Catalog ID>
Z90662951

> <MW>
316.044

> <MW (desalted)>
316.805

> <ClogP>
5.154

> <logS>
-5.27

> <HBD>
0

> <HBA>
3

> <TPSA>
32.67

> <RotBonds>
3

> <ROCS_ShapeQuery>
A71EV2A-x0451_0A_A71EV2A-x0310_0A_A71EV2A-x0416_0A_peptide

> <ROCS_TanimotoCombo>
0.447 

> <ROCS_ShapeTanimoto>
0.357 

> <ROCS_ColorTanimoto>
0.090 

> <ROCS_RefTversky>
0.310 

> <ROCS_RefColorTversky>
0.100 

> <ROCS_RefTverskyCombo>
0.410 

> <ROCS_FitTversky>
1.725 

> <ROCS_FitColorTversky>
0.477 

> <ROCS_FitTverskyCombo>
2.201 

> <ROCS_ColorScore>
-3.022

> <ROCS_Overlap>
2155.506

> <ROCS_Rank>
163                 

$$$$
untitled-dbase-234_10302
  -OEChem-11112315393D

 42 42  0     1  0  0  0  0  0999 V2000
    4.8497   13.0826   26.5004 C   0  0  0  0  0  0  0  0  0  0  0  0
   10.5717   13.1141   23.6299 C   0  0  0  0  0  0  0  0  0  0  0  0
    9.2269    9.6805   23.6041 C   0  0  0  0  0  0  0  0  0  0  0  0
    7.8259    9.7925   24.2114 C   0  0  0  0  0  0  0  0  0  0  0  0
    9.6429   10.9450   22.8652 C   0  0  0  0  0  0  0  0  0  0  0  0
    8.5355   12.1613   24.7547 C   0  0  0  0  0  0  0  0  0  0  0  0
    7.3607   11.2452   24.4003 C   0  0  2  0  0  0  0  0  0  0  0  0
   12.7778   14.8331   23.0271 C   0  0  0  0  0  0  0  0  0  0  0  0
   13.0237   13.4759   20.9279 C   0  0  0  0  0  0  0  0  0  0  0  0
   10.9206   14.7890   21.3291 C   0  0  0  0  0  0  0  0  0  0  0  0
    4.6013   14.5693   26.5134 C   0  0  0  0  0  0  0  0  0  0  0  0
    6.2551   11.3329   25.4491 C   0  0  0  0  0  0  0  0  0  0  0  0
   12.0469   13.9900   21.9832 C   0  0  0  0  0  0  0  0  0  0  0  0
    9.6034   12.1121   23.7477 N   0  0  0  0  0  0  0  0  0  0  0  0
    5.8475   12.6882   25.6082 N   0  0  0  0  0  0  0  0  0  0  0  0
    4.2271   12.3144   27.2316 O   0  0  0  0  0  0  0  0  0  0  0  0
   10.6129   14.1249   24.3284 O   0  0  0  0  0  0  0  0  0  0  0  0
   11.4774   12.8496   22.6360 O   0  0  0  0  0  0  0  0  0  0  0  0
    5.6684   15.2891   27.7292 Cl  0  0  0  0  0  0  0  0  0  0  0  0
    9.9532    9.4618   24.4019 H   0  0  0  0  0  0  0  0  0  0  0  0
    9.2585    8.8226   22.9130 H   0  0  0  0  0  0  0  0  0  0  0  0
    7.1082    9.2488   23.5691 H   0  0  0  0  0  0  0  0  0  0  0  0
    7.8132    9.2657   25.1851 H   0  0  0  0  0  0  0  0  0  0  0  0
   10.6747   10.8524   22.4975 H   0  0  0  0  0  0  0  0  0  0  0  0
    9.0024   11.0842   21.9865 H   0  0  0  0  0  0  0  0  0  0  0  0
    8.1832   13.1966   24.8812 H   0  0  0  0  0  0  0  0  0  0  0  0
    8.9894   11.8655   25.7148 H   0  0  0  0  0  0  0  0  0  0  0  0
    6.9320   11.5941   23.4389 H   0  0  0  0  0  0  0  0  0  0  0  0
   12.0801   15.2041   23.7865 H   0  0  0  0  0  0  0  0  0  0  0  0
   13.5653   14.2609   23.5284 H   0  0  0  0  0  0  0  0  0  0  0  0
   13.2325   15.7177   22.5667 H   0  0  0  0  0  0  0  0  0  0  0  0
   12.5036   12.8704   20.1769 H   0  0  0  0  0  0  0  0  0  0  0  0
   13.7796   12.8239   21.3804 H   0  0  0  0  0  0  0  0  0  0  0  0
   13.5357   14.2976   20.4169 H   0  0  0  0  0  0  0  0  0  0  0  0
   10.3962   14.1844   20.5802 H   0  0  0  0  0  0  0  0  0  0  0  0
   10.1899   15.1348   22.0674 H   0  0  0  0  0  0  0  0  0  0  0  0
   11.3190   15.6613   20.7984 H   0  0  0  0  0  0  0  0  0  0  0  0
    4.8050   15.0376   25.5473 H   0  0  0  0  0  0  0  0  0  0  0  0
    3.5613   14.7614   26.7911 H   0  0  0  0  0  0  0  0  0  0  0  0
    5.4259   10.7219   25.0961 H   0  0  0  0  0  0  0  0  0  0  0  0
    6.6619   10.9429   26.3807 H   0  0  0  0  0  0  0  0  0  0  0  0
    6.3082   13.4070   25.0412 H   0  0  0  0  0  0  0  0  0  0  0  0
  1 11  1  0  0  0  0
  1 15  1  0  0  0  0
  1 16  2  0  0  0  0
  2 14  1  0  0  0  0
  2 17  2  0  0  0  0
  2 18  1  0  0  0  0
  3  4  1  0  0  0  0
  3  5  1  0  0  0  0
  4  7  1  0  0  0  0
  5 14  1  0  0  0  0
  6  7  1  0  0  0  0
  6 14  1  0  0  0  0
  7 12  1  0  0  0  0
  8 13  1  0  0  0  0
  9 13  1  0  0  0  0
 10 13  1  0  0  0  0
 11 19  1  0  0  0  0
 12 15  1  0  0  0  0
 13 18  1  0  0  0  0
  3 20  1  0  0  0  0
  3 21  1  0  0  0  0
  4 22  1  0  0  0  0
  4 23  1  0  0  0  0
  5 24  1  0  0  0  0
  5 25  1  0  0  0  0
  6 26  1  0  0  0  0
  6 27  1  0  0  0  0
  7 28  1  0  0  0  0
  8 29  1  0  0  0  0
  8 30  1  0  0  0  0
  8 31  1  0  0  0  0
  9 32  1  0  0  0  0
  9 33  1  0  0  0  0
  9 34  1  0  0  0  0
 10 35  1  0  0  0  0
 10 36  1  0  0  0  0
 10 37  1  0  0  0  0
 11 38  1  0  0  0  0
 11 39  1  0  0  0  0
 12 40  1  0  0  0  0
 12 41  1  0  0  0  0
 15 42  1  0  0  0  0
M  END
> <Catalog ID>
Z1505717295

> <MW>
290.14

> <MW (desalted)>
290.786

> <ClogP>
1.699

> <logS>
-2.443

> <HBD>
1

> <HBA>
2

> <TPSA>
58.64

> <RotBonds>
5

> <ROCS_ShapeQuery>
A71EV2A-x0451_0A_A71EV2A-x0310_0A_A71EV2A-x0416_0A_peptide

> <ROCS_TanimotoCombo>
0.447 

> <ROCS_ShapeTanimoto>
0.306 

> <ROCS_ColorTanimoto>
0.141 

> <ROCS_RefTversky>
0.272 

> <ROCS_RefColorTversky>
0.149 

> <ROCS_RefTverskyCombo>
0.421 

> <ROCS_FitTversky>
1.683 

> <ROCS_FitColorTversky>
0.716 

> <ROCS_FitTverskyCombo>
2.399 

> <ROCS_ColorScore>
-4.535

> <ROCS_Overlap>
1885.682

> <ROCS_Rank>
164                 

$$$$
untitled-dbase-730_0
  -OEChem-11112315393D

 30 31  0     0  0  0  0  0  0999 V2000
    8.7754    9.9968   23.3344 C   0  0  0  0  0  0  0  0  0  0  0  0
    9.7238   10.8071   22.7020 C   0  0  0  0  0  0  0  0  0  0  0  0
    9.1492   12.6779   24.1365 C   0  0  0  0  0  0  0  0  0  0  0  0
    8.2113   11.8676   24.7583 C   0  0  0  0  0  0  0  0  0  0  0  0
    8.0228   10.5413   24.3648 C   0  0  0  0  0  0  0  0  0  0  0  0
    9.9097   12.1384   23.0996 C   0  0  0  0  0  0  0  0  0  0  0  0
    6.5670    8.6341   25.0396 C   0  0  0  0  0  0  0  0  0  0  0  0
   11.1533   14.2565   22.7396 C   0  0  0  0  0  0  0  0  0  0  0  0
    7.3010   12.2453   25.8805 C   0  0  0  0  0  0  0  0  0  0  0  0
    6.5227   10.9466   26.1172 C   0  0  0  0  0  0  0  0  0  0  0  0
    5.4763    8.2532   26.0128 C   0  0  0  0  0  0  0  0  0  0  0  0
   12.2410   14.7980   21.8412 C   0  0  0  0  0  0  0  0  0  0  0  0
    7.0170    9.9425   25.1517 N   0  0  0  0  0  0  0  0  0  0  0  0
   10.8620   12.9279   22.4534 N   0  0  0  0  0  0  0  0  0  0  0  0
    6.9771    7.7961   24.2362 O   0  0  0  0  0  0  0  0  0  0  0  0
   10.6300   14.9815   23.5814 O   0  0  0  0  0  0  0  0  0  0  0  0
   11.4636   15.4907   20.4090 Cl  0  0  0  0  0  0  0  0  0  0  0  0
    8.6582    8.9731   23.0012 H   0  0  0  0  0  0  0  0  0  0  0  0
   10.3190   10.3892   21.8926 H   0  0  0  0  0  0  0  0  0  0  0  0
    9.2836   13.7075   24.4544 H   0  0  0  0  0  0  0  0  0  0  0  0
    7.8729   12.5315   26.7685 H   0  0  0  0  0  0  0  0  0  0  0  0
    6.6320   13.0588   25.5839 H   0  0  0  0  0  0  0  0  0  0  0  0
    6.6741   10.5695   27.1347 H   0  0  0  0  0  0  0  0  0  0  0  0
    5.4474   11.0912   25.9644 H   0  0  0  0  0  0  0  0  0  0  0  0
    4.5130    8.4662   25.5633 H   0  0  0  0  0  0  0  0  0  0  0  0
    5.5986    8.8297   26.9231 H   0  0  0  0  0  0  0  0  0  0  0  0
    5.5577    7.1953   26.2369 H   0  0  0  0  0  0  0  0  0  0  0  0
   12.9481   14.0284   21.5214 H   0  0  0  0  0  0  0  0  0  0  0  0
   12.7890   15.5852   22.3666 H   0  0  0  0  0  0  0  0  0  0  0  0
   11.3926   12.4901   21.7029 H   0  0  0  0  0  0  0  0  0  0  0  0
  1  2  2  0  0  0  0
  1  5  1  0  0  0  0
  2  6  1  0  0  0  0
  3  4  1  0  0  0  0
  3  6  2  0  0  0  0
  4  5  2  0  0  0  0
  4  9  1  0  0  0  0
  5 13  1  0  0  0  0
  6 14  1  0  0  0  0
  7 11  1  0  0  0  0
  7 13  1  0  0  0  0
  7 15  2  0  0  0  0
  8 12  1  0  0  0  0
  8 14  1  0  0  0  0
  8 16  2  0  0  0  0
  9 10  1  0  0  0  0
 10 13  1  0  0  0  0
 12 17  1  0  0  0  0
  1 18  1  0  0  0  0
  2 19  1  0  0  0  0
  3 20  1  0  0  0  0
  9 21  1  0  0  0  0
  9 22  1  0  0  0  0
 10 23  1  0  0  0  0
 10 24  1  0  0  0  0
 11 25  1  0  0  0  0
 11 26  1  0  0  0  0
 11 27  1  0  0  0  0
 12 28  1  0  0  0  0
 12 29  1  0  0  0  0
 14 30  1  0  0  0  0
M  END
> <Catalog ID>
Z147647090

> <MW>
252.067

> <MW (desalted)>
252.697

> <ClogP>
0.994

> <logS>
-2.73

> <HBD>
1

> <HBA>
2

> <TPSA>
49.41

> <RotBonds>
2

> <ROCS_ShapeQuery>
A71EV2A-x0451_0A_A71EV2A-x0310_0A_A71EV2A-x0416_0A_peptide

> <ROCS_TanimotoCombo>
0.447 

> <ROCS_ShapeTanimoto>
0.300 

> <ROCS_ColorTanimoto>
0.147 

> <ROCS_RefTversky>
0.266 

> <ROCS_RefColorTversky>
0.155 

> <ROCS_RefTverskyCombo>
0.421 

> <ROCS_FitTversky>
1.715 

> <ROCS_FitColorTversky>
0.740 

> <ROCS_FitTverskyCombo>
2.455 

> <ROCS_ColorScore>
-4.700

> <ROCS_Overlap>
1847.537

> <ROCS_Rank>
165                 

$$$$
untitled-dbase-721_19
  -OEChem-11112315393D

 26 26  0     0  0  0  0  0  0999 V2000
   12.0200   15.2471   22.0406 C   0  0  0  0  0  0  0  0  0  0  0  0
   10.7286   13.4675   23.1925 C   0  0  0  0  0  0  0  0  0  0  0  0
    7.3733   10.9449   24.9607 C   0  0  0  0  0  0  0  0  0  0  0  0
    7.8672    9.6642   24.2821 C   0  0  0  0  0  0  0  0  0  0  0  0
    8.1780   12.0860   24.3439 C   0  0  0  0  0  0  0  0  0  0  0  0
    8.9448   10.0998   23.2927 C   0  0  0  0  0  0  0  0  0  0  0  0
    9.4610   11.4094   23.8765 C   0  0  0  0  0  0  0  0  0  0  0  0
   12.6147   15.5604   20.6910 C   0  0  0  0  0  0  0  0  0  0  0  0
   11.3859   14.0066   22.0762 N   0  0  0  0  0  0  0  0  0  0  0  0
   10.1951   12.2049   22.9089 N   0  0  0  0  0  0  0  0  0  0  0  0
   12.0914   16.0384   22.9787 O   0  0  0  0  0  0  0  0  0  0  0  0
   10.6314   14.0280   24.2830 O   0  0  0  0  0  0  0  0  0  0  0  0
   11.2938   15.6036   19.5128 Cl  0  0  0  0  0  0  0  0  0  0  0  0
    6.2982   11.0935   24.8180 H   0  0  0  0  0  0  0  0  0  0  0  0
    7.5575   10.8879   26.0398 H   0  0  0  0  0  0  0  0  0  0  0  0
    8.2896    8.9857   25.0321 H   0  0  0  0  0  0  0  0  0  0  0  0
    7.0549    9.1312   23.7777 H   0  0  0  0  0  0  0  0  0  0  0  0
    7.6247   12.5070   23.4948 H   0  0  0  0  0  0  0  0  0  0  0  0
    8.3641   12.8915   25.0610 H   0  0  0  0  0  0  0  0  0  0  0  0
    9.7317    9.3471   23.1842 H   0  0  0  0  0  0  0  0  0  0  0  0
    8.4903   10.2614   22.3070 H   0  0  0  0  0  0  0  0  0  0  0  0
   10.1306   11.2195   24.7178 H   0  0  0  0  0  0  0  0  0  0  0  0
   13.0960   16.5416   20.7253 H   0  0  0  0  0  0  0  0  0  0  0  0
   13.3470   14.8154   20.3701 H   0  0  0  0  0  0  0  0  0  0  0  0
   11.4007   13.4487   21.2270 H   0  0  0  0  0  0  0  0  0  0  0  0
   10.2973   11.8472   21.9587 H   0  0  0  0  0  0  0  0  0  0  0  0
  1  8  1  0  0  0  0
  1  9  1  0  0  0  0
  1 11  2  0  0  0  0
  2  9  1  0  0  0  0
  2 10  1  0  0  0  0
  2 12  2  0  0  0  0
  3  4  1  0  0  0  0
  3  5  1  0  0  0  0
  4  6  1  0  0  0  0
  5  7  1  0  0  0  0
  6  7  1  0  0  0  0
  7 10  1  0  0  0  0
  8 13  1  0  0  0  0
  3 14  1  0  0  0  0
  3 15  1  0  0  0  0
  4 16  1  0  0  0  0
  4 17  1  0  0  0  0
  5 18  1  0  0  0  0
  5 19  1  0  0  0  0
  6 20  1  0  0  0  0
  6 21  1  0  0  0  0
  7 22  1  0  0  0  0
  8 23  1  0  0  0  0
  8 24  1  0  0  0  0
  9 25  1  0  0  0  0
 10 26  1  0  0  0  0
M  END
> <Catalog ID>
Z56904664

> <MW>
204.067

> <MW (desalted)>
204.654

> <ClogP>
1.457

> <logS>
-1.86

> <HBD>
2

> <HBA>
2

> <TPSA>
58.2

> <RotBonds>
2

> <ROCS_ShapeQuery>
A71EV2A-x0451_0A_A71EV2A-x0310_0A_A71EV2A-x0416_0A_peptide

> <ROCS_TanimotoCombo>
0.447 

> <ROCS_ShapeTanimoto>
0.252 

> <ROCS_ColorTanimoto>
0.194 

> <ROCS_RefTversky>
0.227 

> <ROCS_RefColorTversky>
0.196 

> <ROCS_RefTverskyCombo>
0.423 

> <ROCS_FitTversky>
1.799 

> <ROCS_FitColorTversky>
0.941 

> <ROCS_FitTverskyCombo>
2.740 

> <ROCS_ColorScore>
-5.968

> <ROCS_Overlap>
1571.556

> <ROCS_Rank>
166                 

$$$$
untitled-dbase-228_164
  -OEChem-11112315393D

 21 21  0     0  0  0  0  0  0999 V2000
    5.0102   11.1347   26.5910 C   0  0  0  0  0  0  0  0  0  0  0  0
    8.2301   12.4000   24.3835 C   0  0  0  0  0  0  0  0  0  0  0  0
    7.1755   11.8206   25.0889 C   0  0  0  0  0  0  0  0  0  0  0  0
    7.8865    9.6316   24.3541 C   0  0  0  0  0  0  0  0  0  0  0  0
    9.1130   11.5952   23.6633 C   0  0  0  0  0  0  0  0  0  0  0  0
    8.9412   10.2111   23.6486 C   0  0  0  0  0  0  0  0  0  0  0  0
    7.0037   10.4364   25.0742 C   0  0  0  0  0  0  0  0  0  0  0  0
   10.8255   13.3542   23.2948 C   0  0  0  0  0  0  0  0  0  0  0  0
   11.9182   13.6882   22.3059 C   0  0  0  0  0  0  0  0  0  0  0  0
    4.5654   12.1197   27.0128 N   0  0  0  0  0  0  0  0  0  0  0  0
   10.1666   12.1771   22.9582 N   0  0  0  0  0  0  0  0  0  0  0  0
   10.6014   14.1018   24.2430 O   0  0  0  0  0  0  0  0  0  0  0  0
    9.7837    9.4276   22.9603 F   0  0  0  0  0  0  0  0  0  0  0  0
    5.6572    9.6959   25.9768 S   0  0  0  0  0  0  0  0  0  0  0  0
   11.2062   14.6924   21.0330 Cl  0  0  0  0  0  0  0  0  0  0  0  0
    8.3539   13.4799   24.4005 H   0  0  0  0  0  0  0  0  0  0  0  0
    6.4966   12.4640   25.6433 H   0  0  0  0  0  0  0  0  0  0  0  0
    7.7695    8.5509   24.3302 H   0  0  0  0  0  0  0  0  0  0  0  0
   12.3609   12.7999   21.8482 H   0  0  0  0  0  0  0  0  0  0  0  0
   12.7053   14.2555   22.8107 H   0  0  0  0  0  0  0  0  0  0  0  0
   10.4826   11.6949   22.1187 H   0  0  0  0  0  0  0  0  0  0  0  0
  1 10  3  0  0  0  0
  1 14  1  0  0  0  0
  2  3  2  0  0  0  0
  2  5  1  0  0  0  0
  3  7  1  0  0  0  0
  4  6  1  0  0  0  0
  4  7  2  0  0  0  0
  5  6  2  0  0  0  0
  5 11  1  0  0  0  0
  6 13  1  0  0  0  0
  7 14  1  0  0  0  0
  8  9  1  0  0  0  0
  8 11  1  0  0  0  0
  8 12  2  0  0  0  0
  9 15  1  0  0  0  0
  2 16  1  0  0  0  0
  3 17  1  0  0  0  0
  4 18  1  0  0  0  0
  9 19  1  0  0  0  0
  9 20  1  0  0  0  0
 11 21  1  0  0  0  0
M  END
> <Catalog ID>
Z56948267

> <MW>
243.987

> <MW (desalted)>
244.673

> <ClogP>
1.988

> <logS>
-3.71

> <HBD>
1

> <HBA>
2

> <TPSA>
52.89

> <RotBonds>
3

> <ROCS_ShapeQuery>
A71EV2A-x0451_0A_A71EV2A-x0310_0A_A71EV2A-x0416_0A_peptide

> <ROCS_TanimotoCombo>
0.446 

> <ROCS_ShapeTanimoto>
0.293 

> <ROCS_ColorTanimoto>
0.153 

> <ROCS_RefTversky>
0.258 

> <ROCS_RefColorTversky>
0.157 

> <ROCS_RefTverskyCombo>
0.414 

> <ROCS_FitTversky>
1.864 

> <ROCS_FitColorTversky>
0.882 

> <ROCS_FitTverskyCombo>
2.746 

> <ROCS_ColorScore>
-4.749

> <ROCS_Overlap>
1786.227

> <ROCS_Rank>
167                 

$$$$
untitled-dbase-585_28
  -OEChem-11112315393D

 28 29  0     0  0  0  0  0  0999 V2000
    7.4095   10.1949   24.8377 C   0  0  0  0  0  0  0  0  0  0  0  0
    8.3149    9.5113   24.0262 C   0  0  0  0  0  0  0  0  0  0  0  0
    8.4695   12.2871   24.2581 C   0  0  0  0  0  0  0  0  0  0  0  0
   10.9674    8.0605   21.2902 C   0  0  0  0  0  0  0  0  0  0  0  0
   11.4713    9.8466   22.2459 C   0  0  0  0  0  0  0  0  0  0  0  0
    7.4868   11.5828   24.9536 C   0  0  0  0  0  0  0  0  0  0  0  0
    9.2977   10.2156   23.3307 C   0  0  0  0  0  0  0  0  0  0  0  0
    9.3750   11.6036   23.4466 C   0  0  0  0  0  0  0  0  0  0  0  0
   10.9188   13.5295   23.1811 C   0  0  0  0  0  0  0  0  0  0  0  0
   11.9391   14.0409   22.1908 C   0  0  0  0  0  0  0  0  0  0  0  0
    6.5182   12.3125   25.8219 C   0  0  0  0  0  0  0  0  0  0  0  0
   11.9983    8.9407   21.4553 N   0  0  0  0  0  0  0  0  0  0  0  0
    9.8357    8.3649   21.9290 N   0  0  0  0  0  0  0  0  0  0  0  0
   10.1847    9.5113   22.5324 N   0  0  0  0  0  0  0  0  0  0  0  0
   10.3498   12.3351   22.7605 N   0  0  0  0  0  0  0  0  0  0  0  0
   10.6715   14.1701   24.1992 O   0  0  0  0  0  0  0  0  0  0  0  0
    5.6145   11.4960   26.4404 F   0  0  0  0  0  0  0  0  0  0  0  0
    7.1114   13.0161   26.8313 F   0  0  0  0  0  0  0  0  0  0  0  0
    5.7743   13.2231   25.1289 F   0  0  0  0  0  0  0  0  0  0  0  0
   13.5124   13.3615   22.6368 Cl  0  0  0  0  0  0  0  0  0  0  0  0
    6.6474    9.6380   25.3766 H   0  0  0  0  0  0  0  0  0  0  0  0
    8.2420    8.4292   23.9465 H   0  0  0  0  0  0  0  0  0  0  0  0
    8.5270   13.3697   24.3507 H   0  0  0  0  0  0  0  0  0  0  0  0
   11.0439    7.1683   20.6869 H   0  0  0  0  0  0  0  0  0  0  0  0
   11.9643   10.7306   22.6271 H   0  0  0  0  0  0  0  0  0  0  0  0
   12.0144   15.1312   22.1854 H   0  0  0  0  0  0  0  0  0  0  0  0
   11.6742   13.6998   21.1860 H   0  0  0  0  0  0  0  0  0  0  0  0
   10.6710   11.9577   21.8726 H   0  0  0  0  0  0  0  0  0  0  0  0
  1  2  2  0  0  0  0
  1  6  1  0  0  0  0
  2  7  1  0  0  0  0
  3  6  2  0  0  0  0
  3  8  1  0  0  0  0
  4 12  1  0  0  0  0
  4 13  2  0  0  0  0
  5 12  2  0  0  0  0
  5 14  1  0  0  0  0
  6 11  1  0  0  0  0
  7  8  2  0  0  0  0
  7 14  1  0  0  0  0
  8 15  1  0  0  0  0
  9 10  1  0  0  0  0
  9 15  1  0  0  0  0
  9 16  2  0  0  0  0
 10 20  1  0  0  0  0
 11 17  1  0  0  0  0
 11 18  1  0  0  0  0
 11 19  1  0  0  0  0
 13 14  1  0  0  0  0
  1 21  1  0  0  0  0
  2 22  1  0  0  0  0
  3 23  1  0  0  0  0
  4 24  1  0  0  0  0
  5 25  1  0  0  0  0
 10 26  1  0  0  0  0
 10 27  1  0  0  0  0
 15 28  1  0  0  0  0
M  END
> <Catalog ID>
Z57040446

> <MW>
304.034

> <MW (desalted)>
304.656

> <ClogP>
2.226

> <logS>
-3.77

> <HBD>
1

> <HBA>
3

> <TPSA>
59.81

> <RotBonds>
4

> <ROCS_ShapeQuery>
A71EV2A-x0451_0A_A71EV2A-x0310_0A_A71EV2A-x0416_0A_peptide

> <ROCS_TanimotoCombo>
0.446 

> <ROCS_ShapeTanimoto>
0.319 

> <ROCS_ColorTanimoto>
0.127 

> <ROCS_RefTversky>
0.285 

> <ROCS_RefColorTversky>
0.140 

> <ROCS_RefTverskyCombo>
0.425 

> <ROCS_FitTversky>
1.600 

> <ROCS_FitColorTversky>
0.584 

> <ROCS_FitTverskyCombo>
2.184 

> <ROCS_ColorScore>
-4.264

> <ROCS_Overlap>
1976.795

> <ROCS_Rank>
168                 

$$$$
untitled-dbase-201_263
  -OEChem-11112315393D

 39 41  0     1  0  0  0  0  0999 V2000
    6.1705   11.7268   26.2219 C   0  0  0  0  0  0  0  0  0  0  0  0
    6.8741   12.9207   26.0585 C   0  0  0  0  0  0  0  0  0  0  0  0
    6.5820   10.5744   25.5520 C   0  0  0  0  0  0  0  0  0  0  0  0
    7.9981   12.9635   25.2333 C   0  0  0  0  0  0  0  0  0  0  0  0
    7.6976   10.6193   24.7156 C   0  0  0  0  0  0  0  0  0  0  0  0
    8.4184   11.8084   24.5737 C   0  0  0  0  0  0  0  0  0  0  0  0
   11.0412   10.8851   22.3601 C   0  0  0  0  0  0  0  0  0  0  0  0
   12.3841   16.2289   21.9786 C   0  0  0  0  0  0  0  0  0  0  0  0
   11.8807   12.9995   23.4998 C   0  0  0  0  0  0  0  0  0  0  0  0
   12.0930   12.7087   21.0578 C   0  0  0  0  0  0  0  0  0  0  0  0
   11.3301   14.4062   23.2807 C   0  0  0  0  0  0  0  0  0  0  0  0
   11.5423   14.1153   20.8390 C   0  0  0  0  0  0  0  0  0  0  0  0
    8.9557    9.7010   22.9957 C   0  0  0  0  0  0  0  0  0  0  0  0
   10.0665   10.6238   23.4596 C   0  0  2  0  0  0  0  0  0  0  0  0
   12.8476   16.7246   20.6322 C   0  0  0  0  0  0  0  0  0  0  0  0
   11.6199   12.1527   22.3281 N   0  0  0  0  0  0  0  0  0  0  0  0
   11.8039   14.9620   22.0106 N   0  0  0  0  0  0  0  0  0  0  0  0
   11.2850    9.9920   21.5447 O   0  0  0  0  0  0  0  0  0  0  0  0
   12.5361   16.9459   22.9709 O   0  0  0  0  0  0  0  0  0  0  0  0
    8.0402    9.4603   24.0684 O   0  0  0  0  0  0  0  0  0  0  0  0
    9.5413   11.9080   23.7932 O   0  0  0  0  0  0  0  0  0  0  0  0
   11.4752   17.5467   19.8983 Cl  0  0  0  0  0  0  0  0  0  0  0  0
    5.2982   11.6959   26.8684 H   0  0  0  0  0  0  0  0  0  0  0  0
    6.5486   13.8172   26.5783 H   0  0  0  0  0  0  0  0  0  0  0  0
    6.0229    9.6512   25.6781 H   0  0  0  0  0  0  0  0  0  0  0  0
    8.5453   13.8952   25.1187 H   0  0  0  0  0  0  0  0  0  0  0  0
   12.9677   13.0317   23.6412 H   0  0  0  0  0  0  0  0  0  0  0  0
   11.4480   12.5806   24.4099 H   0  0  0  0  0  0  0  0  0  0  0  0
   11.8043   12.0650   20.2210 H   0  0  0  0  0  0  0  0  0  0  0  0
   13.1887   12.7266   21.0955 H   0  0  0  0  0  0  0  0  0  0  0  0
   10.2343   14.3879   23.2424 H   0  0  0  0  0  0  0  0  0  0  0  0
   11.6184   15.0500   24.1176 H   0  0  0  0  0  0  0  0  0  0  0  0
   11.9744   14.5343   19.9286 H   0  0  0  0  0  0  0  0  0  0  0  0
   10.4553   14.0830   20.6985 H   0  0  0  0  0  0  0  0  0  0  0  0
    8.3963   10.1181   22.1457 H   0  0  0  0  0  0  0  0  0  0  0  0
    9.3600    8.7327   22.6758 H   0  0  0  0  0  0  0  0  0  0  0  0
   10.6107   10.2221   24.3213 H   0  0  0  0  0  0  0  0  0  0  0  0
   13.1398   15.8746   20.0262 H   0  0  0  0  0  0  0  0  0  0  0  0
   13.6653   17.4215   20.7767 H   0  0  0  0  0  0  0  0  0  0  0  0
  1  2  1  0  0  0  0
  1  3  2  0  0  0  0
  2  4  2  0  0  0  0
  3  5  1  0  0  0  0
  4  6  1  0  0  0  0
  5  6  2  0  0  0  0
  5 20  1  0  0  0  0
  6 21  1  0  0  0  0
  7 14  1  0  0  0  0
  7 16  1  0  0  0  0
  7 18  2  0  0  0  0
  8 15  1  0  0  0  0
  8 17  1  0  0  0  0
  8 19  2  0  0  0  0
  9 11  1  0  0  0  0
  9 16  1  0  0  0  0
 10 12  1  0  0  0  0
 10 16  1  0  0  0  0
 11 17  1  0  0  0  0
 12 17  1  0  0  0  0
 13 14  1  0  0  0  0
 13 20  1  0  0  0  0
 14 21  1  0  0  0  0
 15 22  1  0  0  0  0
  1 23  1  0  0  0  0
  2 24  1  0  0  0  0
  3 25  1  0  0  0  0
  4 26  1  0  0  0  0
  9 27  1  0  0  0  0
  9 28  1  0  0  0  0
 10 29  1  0  0  0  0
 10 30  1  0  0  0  0
 11 31  1  0  0  0  0
 11 32  1  0  0  0  0
 12 33  1  0  0  0  0
 12 34  1  0  0  0  0
 13 35  1  0  0  0  0
 13 36  1  0  0  0  0
 14 37  1  0  0  0  0
 15 38  1  0  0  0  0
 15 39  1  0  0  0  0
M  END
> <Catalog ID>
Z90664847

> <MW>
324.088

> <MW (desalted)>
324.759

> <ClogP>
1.647

> <logS>
-3.64

> <HBD>
0

> <HBA>
4

> <TPSA>
59.08

> <RotBonds>
2

> <ROCS_ShapeQuery>
A71EV2A-x0451_0A_A71EV2A-x0310_0A_A71EV2A-x0416_0A_peptide

> <ROCS_TanimotoCombo>
0.446 

> <ROCS_ShapeTanimoto>
0.337 

> <ROCS_ColorTanimoto>
0.109 

> <ROCS_RefTversky>
0.300 

> <ROCS_RefColorTversky>
0.125 

> <ROCS_RefTverskyCombo>
0.424 

> <ROCS_FitTversky>
1.594 

> <ROCS_FitColorTversky>
0.461 

> <ROCS_FitTverskyCombo>
2.055 

> <ROCS_ColorScore>
-3.800

> <ROCS_Overlap>
2080.884

> <ROCS_Rank>
169                 

$$$$
untitled-dbase-36_27
  -OEChem-11112315393D

 39 41  0     0  0  0  0  0  0999 V2000
   10.8869   14.5304   22.5755 C   0  0  0  0  0  0  0  0  0  0  0  0
    8.6027    9.7718   25.3551 C   0  0  0  0  0  0  0  0  0  0  0  0
    7.0051   10.3697   23.5172 C   0  0  0  0  0  0  0  0  0  0  0  0
    7.5781   12.0592   25.2793 C   0  0  0  0  0  0  0  0  0  0  0  0
    9.4426   10.0672   23.0105 C   0  0  0  0  0  0  0  0  0  0  0  0
   10.0170   11.7605   24.7766 C   0  0  0  0  0  0  0  0  0  0  0  0
    8.4157   12.3599   22.9347 C   0  0  0  0  0  0  0  0  0  0  0  0
    8.2679    9.5657   23.8685 C   0  0  0  0  0  0  0  0  0  0  0  0
    8.8438   11.2636   25.6394 C   0  0  0  0  0  0  0  0  0  0  0  0
    7.2381   11.8645   23.7923 C   0  0  0  0  0  0  0  0  0  0  0  0
    9.7017   11.5695   23.2740 C   0  0  0  0  0  0  0  0  0  0  0  0
   12.4701   13.1146   23.9724 C   0  0  0  0  0  0  0  0  0  0  0  0
   10.3582   14.6401   21.1593 C   0  0  0  0  0  0  0  0  0  0  0  0
   10.8710   12.0649   22.4189 C   0  0  0  0  0  0  0  0  0  0  0  0
   11.3936   13.2666   22.9733 N   0  0  0  0  0  0  0  0  0  0  0  0
   10.8750   15.4968   23.3420 O   0  0  0  0  0  0  0  0  0  0  0  0
   10.6034   16.2775   20.5200 Cl  0  0  0  0  0  0  0  0  0  0  0  0
    7.7806    9.3999   25.9791 H   0  0  0  0  0  0  0  0  0  0  0  0
    9.4935    9.1905   25.6229 H   0  0  0  0  0  0  0  0  0  0  0  0
    6.7461   10.2186   22.4620 H   0  0  0  0  0  0  0  0  0  0  0  0
    6.1547   10.0083   24.1085 H   0  0  0  0  0  0  0  0  0  0  0  0
    6.7379   11.7277   25.9019 H   0  0  0  0  0  0  0  0  0  0  0  0
    7.7314   13.1243   25.4923 H   0  0  0  0  0  0  0  0  0  0  0  0
   10.3421    9.4811   23.2391 H   0  0  0  0  0  0  0  0  0  0  0  0
    9.2202    9.9011   21.9485 H   0  0  0  0  0  0  0  0  0  0  0  0
   10.2101   12.8193   24.9922 H   0  0  0  0  0  0  0  0  0  0  0  0
   10.9296   11.2130   25.0454 H   0  0  0  0  0  0  0  0  0  0  0  0
    8.1701   12.2463   21.8708 H   0  0  0  0  0  0  0  0  0  0  0  0
    8.5725   13.4322   23.1087 H   0  0  0  0  0  0  0  0  0  0  0  0
    8.0952    8.5015   23.6725 H   0  0  0  0  0  0  0  0  0  0  0  0
    9.0798   11.4046   26.7001 H   0  0  0  0  0  0  0  0  0  0  0  0
    6.3347   12.4317   23.5421 H   0  0  0  0  0  0  0  0  0  0  0  0
   12.0296   13.0308   24.9769 H   0  0  0  0  0  0  0  0  0  0  0  0
   13.0511   12.2074   23.7502 H   0  0  0  0  0  0  0  0  0  0  0  0
   13.1320   13.9923   23.9345 H   0  0  0  0  0  0  0  0  0  0  0  0
   10.8925   13.9486   20.5030 H   0  0  0  0  0  0  0  0  0  0  0  0
    9.2844   14.4376   21.1417 H   0  0  0  0  0  0  0  0  0  0  0  0
   11.6232   11.2794   22.4214 H   0  0  0  0  0  0  0  0  0  0  0  0
   10.4830   12.2383   21.4178 H   0  0  0  0  0  0  0  0  0  0  0  0
  1 13  1  0  0  0  0
  1 15  1  0  0  0  0
  1 16  2  0  0  0  0
  2  8  1  0  0  0  0
  2  9  1  0  0  0  0
  3  8  1  0  0  0  0
  3 10  1  0  0  0  0
  4  9  1  0  0  0  0
  4 10  1  0  0  0  0
  5  8  1  0  0  0  0
  5 11  1  0  0  0  0
  6  9  1  0  0  0  0
  6 11  1  0  0  0  0
  7 10  1  0  0  0  0
  7 11  1  0  0  0  0
 11 14  1  0  0  0  0
 12 15  1  0  0  0  0
 13 17  1  0  0  0  0
 14 15  1  0  0  0  0
  2 18  1  0  0  0  0
  2 19  1  0  0  0  0
  3 20  1  0  0  0  0
  3 21  1  0  0  0  0
  4 22  1  0  0  0  0
  4 23  1  0  0  0  0
  5 24  1  0  0  0  0
  5 25  1  0  0  0  0
  6 26  1  0  0  0  0
  6 27  1  0  0  0  0
  7 28  1  0  0  0  0
  7 29  1  0  0  0  0
  8 30  1  0  0  0  0
  9 31  1  0  0  0  0
 10 32  1  0  0  0  0
 12 33  1  0  0  0  0
 12 34  1  0  0  0  0
 12 35  1  0  0  0  0
 13 36  1  0  0  0  0
 13 37  1  0  0  0  0
 14 38  1  0  0  0  0
 14 39  1  0  0  0  0
M  END
> <Catalog ID>
Z561422482

> <MW>
255.139

> <MW (desalted)>
255.784

> <ClogP>
4.129

> <logS>
-3.9

> <HBD>
0

> <HBA>
1

> <TPSA>
20.31

> <RotBonds>
3

> <ROCS_ShapeQuery>
A71EV2A-x0451_0A_A71EV2A-x0310_0A_A71EV2A-x0416_0A_peptide

> <ROCS_TanimotoCombo>
0.446 

> <ROCS_ShapeTanimoto>
0.290 

> <ROCS_ColorTanimoto>
0.156 

> <ROCS_RefTversky>
0.260 

> <ROCS_RefColorTversky>
0.173 

> <ROCS_RefTverskyCombo>
0.433 

> <ROCS_FitTversky>
1.682 

> <ROCS_FitColorTversky>
0.609 

> <ROCS_FitTverskyCombo>
2.291 

> <ROCS_ColorScore>
-5.285

> <ROCS_Overlap>
1799.840

> <ROCS_Rank>
170                 

$$$$
untitled-dbase-63_434
  -OEChem-11112315393D

 27 28  0     1  0  0  0  0  0999 V2000
    6.5905   12.2660   26.6123 C   0  0  0  0  0  0  0  0  0  0  0  0
    6.9102   10.9574   27.0098 C   0  0  0  0  0  0  0  0  0  0  0  0
    6.9865   12.7468   25.3615 C   0  0  0  0  0  0  0  0  0  0  0  0
    7.6313   10.1145   26.1624 C   0  0  0  0  0  0  0  0  0  0  0  0
    7.7081   11.9041   24.5358 C   0  0  0  0  0  0  0  0  0  0  0  0
    8.0205   10.6147   24.9347 C   0  0  0  0  0  0  0  0  0  0  0  0
   10.8269   13.6651   23.1300 C   0  0  0  0  0  0  0  0  0  0  0  0
    8.2016   12.1323   23.1599 C   0  0  0  0  0  0  0  0  0  0  0  0
    9.0879   10.8871   22.9897 C   0  0  1  0  0  0  0  0  0  0  0  0
   11.2059   14.8306   22.2523 C   0  0  0  0  0  0  0  0  0  0  0  0
   10.5761   11.1996   23.1250 C   0  0  0  0  0  0  0  0  0  0  0  0
   10.8778   12.4343   22.4772 N   0  0  0  0  0  0  0  0  0  0  0  0
   10.5221   13.8153   24.3119 O   0  0  0  0  0  0  0  0  0  0  0  0
    8.7302    9.9069   23.9996 O   0  0  0  0  0  0  0  0  0  0  0  0
   12.9539   15.0734   22.3943 Cl  0  0  0  0  0  0  0  0  0  0  0  0
    6.0360   12.9118   27.2877 H   0  0  0  0  0  0  0  0  0  0  0  0
    6.5965   10.6011   27.9871 H   0  0  0  0  0  0  0  0  0  0  0  0
    6.7374   13.7569   25.0543 H   0  0  0  0  0  0  0  0  0  0  0  0
    7.8721    9.1004   26.4619 H   0  0  0  0  0  0  0  0  0  0  0  0
    7.4021   12.1618   22.4109 H   0  0  0  0  0  0  0  0  0  0  0  0
    8.7794   13.0642   23.1164 H   0  0  0  0  0  0  0  0  0  0  0  0
    8.9064   10.4221   22.0113 H   0  0  0  0  0  0  0  0  0  0  0  0
   10.9600   14.6619   21.2010 H   0  0  0  0  0  0  0  0  0  0  0  0
   10.6900   15.7299   22.5999 H   0  0  0  0  0  0  0  0  0  0  0  0
   10.8042   11.2647   24.1898 H   0  0  0  0  0  0  0  0  0  0  0  0
   11.1286   10.3824   22.6590 H   0  0  0  0  0  0  0  0  0  0  0  0
   11.1436   12.4158   21.4888 H   0  0  0  0  0  0  0  0  0  0  0  0
  1  2  1  0  0  0  0
  1  3  2  0  0  0  0
  2  4  2  0  0  0  0
  3  5  1  0  0  0  0
  4  6  1  0  0  0  0
  5  6  2  0  0  0  0
  5  8  1  0  0  0  0
  6 14  1  0  0  0  0
  7 10  1  0  0  0  0
  7 12  1  0  0  0  0
  7 13  2  0  0  0  0
  8  9  1  0  0  0  0
  9 11  1  0  0  0  0
  9 14  1  0  0  0  0
 10 15  1  0  0  0  0
 11 12  1  0  0  0  0
  1 16  1  0  0  0  0
  2 17  1  0  0  0  0
  3 18  1  0  0  0  0
  4 19  1  0  0  0  0
  8 20  1  0  0  0  0
  8 21  1  0  0  0  0
  9 22  1  0  0  0  0
 10 23  1  0  0  0  0
 10 24  1  0  0  0  0
 11 25  1  0  0  0  0
 11 26  1  0  0  0  0
 12 27  1  0  0  0  0
M  END
> <Catalog ID>
Z561432488

> <MW>
225.056

> <MW (desalted)>
225.671

> <ClogP>
1.791

> <logS>
-2.612

> <HBD>
1

> <HBA>
2

> <TPSA>
38.33

> <RotBonds>
3

> <ROCS_ShapeQuery>
A71EV2A-x0451_0A_A71EV2A-x0310_0A_A71EV2A-x0416_0A_peptide

> <ROCS_TanimotoCombo>
0.446 

> <ROCS_ShapeTanimoto>
0.279 

> <ROCS_ColorTanimoto>
0.167 

> <ROCS_RefTversky>
0.249 

> <ROCS_RefColorTversky>
0.173 

> <ROCS_RefTverskyCombo>
0.422 

> <ROCS_FitTversky>
1.749 

> <ROCS_FitColorTversky>
0.827 

> <ROCS_FitTverskyCombo>
2.576 

> <ROCS_ColorScore>
-5.256

> <ROCS_Overlap>
1726.563

> <ROCS_Rank>
171                 

$$$$
untitled-dbase-130_84
  -OEChem-11112315393D

 24 24  0     0  0  0  0  0  0999 V2000
    8.7566    9.3331   23.7199 C   0  0  0  0  0  0  0  0  0  0  0  0
    9.7058   10.1726   23.1369 C   0  0  0  0  0  0  0  0  0  0  0  0
    7.7068    9.8758   24.4609 C   0  0  0  0  0  0  0  0  0  0  0  0
    8.5555   12.0976   24.0360 C   0  0  0  0  0  0  0  0  0  0  0  0
    9.6052   11.5549   23.2950 C   0  0  0  0  0  0  0  0  0  0  0  0
    7.6063   11.2581   24.6190 C   0  0  0  0  0  0  0  0  0  0  0  0
   10.9609   13.6322   23.1975 C   0  0  0  0  0  0  0  0  0  0  0  0
   12.0070   14.2669   22.3107 C   0  0  0  0  0  0  0  0  0  0  0  0
    6.6362   13.6061   25.4255 N   0  0  0  0  0  0  0  0  0  0  0  0
   10.5544   12.3947   22.7116 N   0  0  0  0  0  0  0  0  0  0  0  0
   10.5601   14.2207   24.1980 O   0  0  0  0  0  0  0  0  0  0  0  0
    5.0454   11.6615   24.8480 O   0  0  0  0  0  0  0  0  0  0  0  0
    6.4483   11.5280   26.9365 O   0  0  0  0  0  0  0  0  0  0  0  0
    6.2927   11.9367   25.5474 S   0  0  0  0  0  0  0  0  0  0  0  0
   11.1658   15.2481   21.1003 Cl  0  0  0  0  0  0  0  0  0  0  0  0
    8.8343    8.2569   23.5966 H   0  0  0  0  0  0  0  0  0  0  0  0
   10.5191    9.7383   22.5610 H   0  0  0  0  0  0  0  0  0  0  0  0
    6.9730    9.2128   24.9113 H   0  0  0  0  0  0  0  0  0  0  0  0
    8.4763   13.1755   24.1596 H   0  0  0  0  0  0  0  0  0  0  0  0
   12.6299   13.5303   21.7969 H   0  0  0  0  0  0  0  0  0  0  0  0
   12.6499   14.9153   22.9127 H   0  0  0  0  0  0  0  0  0  0  0  0
    7.4437   13.9712   25.9450 H   0  0  0  0  0  0  0  0  0  0  0  0
    6.4841   14.0646   24.5188 H   0  0  0  0  0  0  0  0  0  0  0  0
   10.9899   12.0711   21.8499 H   0  0  0  0  0  0  0  0  0  0  0  0
  1  2  1  0  0  0  0
  1  3  2  0  0  0  0
  2  5  2  0  0  0  0
  3  6  1  0  0  0  0
  4  5  1  0  0  0  0
  4  6  2  0  0  0  0
  5 10  1  0  0  0  0
  6 14  1  0  0  0  0
  7  8  1  0  0  0  0
  7 10  1  0  0  0  0
  7 11  2  0  0  0  0
  8 15  1  0  0  0  0
  9 14  1  0  0  0  0
 12 14  2  0  0  0  0
 13 14  2  0  0  0  0
  1 16  1  0  0  0  0
  2 17  1  0  0  0  0
  3 18  1  0  0  0  0
  4 19  1  0  0  0  0
  8 20  1  0  0  0  0
  8 21  1  0  0  0  0
  9 22  1  0  0  0  0
  9 23  1  0  0  0  0
 10 24  1  0  0  0  0
M  END
> <Catalog ID>
Z56887771

> <MW>
248.002

> <MW (desalted)>
248.687

> <ClogP>
0.259

> <logS>
-2.12

> <HBD>
2

> <HBA>
3

> <TPSA>
89.26

> <RotBonds>
3

> <ROCS_ShapeQuery>
A71EV2A-x0451_0A_A71EV2A-x0310_0A_A71EV2A-x0416_0A_peptide

> <ROCS_TanimotoCombo>
0.446 

> <ROCS_ShapeTanimoto>
0.293 

> <ROCS_ColorTanimoto>
0.152 

> <ROCS_RefTversky>
0.258 

> <ROCS_RefColorTversky>
0.164 

> <ROCS_RefTverskyCombo>
0.422 

> <ROCS_FitTversky>
1.874 

> <ROCS_FitColorTversky>
0.685 

> <ROCS_FitTverskyCombo>
2.559 

> <ROCS_ColorScore>
-4.990

> <ROCS_Overlap>
1787.899

> <ROCS_Rank>
172                 

$$$$
untitled-dbase-569_255
  -OEChem-11112315393D

 34 35  0     0  0  0  0  0  0999 V2000
    9.8807    9.2100   22.6815 C   0  0  0  0  0  0  0  0  0  0  0  0
    8.3866   15.2521   26.1738 C   0  0  0  0  0  0  0  0  0  0  0  0
    8.4882   13.8903   25.8893 C   0  0  0  0  0  0  0  0  0  0  0  0
    8.1368   16.1624   25.1469 C   0  0  0  0  0  0  0  0  0  0  0  0
    8.0902   14.3492   23.5509 C   0  0  0  0  0  0  0  0  0  0  0  0
    9.1362   10.1615   23.4392 C   0  0  0  0  0  0  0  0  0  0  0  0
    8.0451    9.9035   24.3052 C   0  0  0  0  0  0  0  0  0  0  0  0
    8.3400   13.4389   24.5779 C   0  0  0  0  0  0  0  0  0  0  0  0
    7.9886   15.7110   23.8355 C   0  0  0  0  0  0  0  0  0  0  0  0
    7.6344   11.1129   24.8210 C   0  0  0  0  0  0  0  0  0  0  0  0
    9.3592   11.5208   23.4522 C   0  0  0  0  0  0  0  0  0  0  0  0
   10.8844   13.4636   23.2040 C   0  0  0  0  0  0  0  0  0  0  0  0
    7.4499    8.5839   24.6060 C   0  0  0  0  0  0  0  0  0  0  0  0
    6.5391   11.4109   25.7714 C   0  0  0  0  0  0  0  0  0  0  0  0
   11.8846   14.0043   22.2086 C   0  0  0  0  0  0  0  0  0  0  0  0
   10.4865    8.4357   22.0649 N   0  0  0  0  0  0  0  0  0  0  0  0
    8.4406   12.0888   24.2958 N   0  0  0  0  0  0  0  0  0  0  0  0
   10.3007   12.2615   22.7783 N   0  0  0  0  0  0  0  0  0  0  0  0
   10.6493   14.0800   24.2398 O   0  0  0  0  0  0  0  0  0  0  0  0
    7.7486   16.5853   22.8494 F   0  0  0  0  0  0  0  0  0  0  0  0
   11.0143   15.0678   21.0918 Cl  0  0  0  0  0  0  0  0  0  0  0  0
    8.5019   15.6038   27.1949 H   0  0  0  0  0  0  0  0  0  0  0  0
    8.6831   13.1918   26.6995 H   0  0  0  0  0  0  0  0  0  0  0  0
    8.0575   17.2227   25.3681 H   0  0  0  0  0  0  0  0  0  0  0  0
    7.9725   14.0115   22.5242 H   0  0  0  0  0  0  0  0  0  0  0  0
    7.9428    8.1170   25.4734 H   0  0  0  0  0  0  0  0  0  0  0  0
    6.3732    8.6598   24.8304 H   0  0  0  0  0  0  0  0  0  0  0  0
    7.5375    7.8894   23.7541 H   0  0  0  0  0  0  0  0  0  0  0  0
    6.9003   11.3757   26.8106 H   0  0  0  0  0  0  0  0  0  0  0  0
    6.1058   12.4087   25.5969 H   0  0  0  0  0  0  0  0  0  0  0  0
    5.7084   10.6932   25.6768 H   0  0  0  0  0  0  0  0  0  0  0  0
   12.3777   13.2165   21.6335 H   0  0  0  0  0  0  0  0  0  0  0  0
   12.6457   14.5859   22.7364 H   0  0  0  0  0  0  0  0  0  0  0  0
   10.6088   11.8968   21.8686 H   0  0  0  0  0  0  0  0  0  0  0  0
  1  6  1  0  0  0  0
  1 16  3  0  0  0  0
  2  3  2  0  0  0  0
  2  4  1  0  0  0  0
  3  8  1  0  0  0  0
  4  9  2  0  0  0  0
  5  8  2  0  0  0  0
  5  9  1  0  0  0  0
  6  7  1  0  0  0  0
  6 11  2  0  0  0  0
  7 10  2  0  0  0  0
  7 13  1  0  0  0  0
  8 17  1  0  0  0  0
  9 20  1  0  0  0  0
 10 14  1  0  0  0  0
 10 17  1  0  0  0  0
 11 17  1  0  0  0  0
 11 18  1  0  0  0  0
 12 15  1  0  0  0  0
 12 18  1  0  0  0  0
 12 19  2  0  0  0  0
 15 21  1  0  0  0  0
  2 22  1  0  0  0  0
  3 23  1  0  0  0  0
  4 24  1  0  0  0  0
  5 25  1  0  0  0  0
 13 26  1  0  0  0  0
 13 27  1  0  0  0  0
 13 28  1  0  0  0  0
 14 29  1  0  0  0  0
 14 30  1  0  0  0  0
 14 31  1  0  0  0  0
 15 32  1  0  0  0  0
 15 33  1  0  0  0  0
 18 34  1  0  0  0  0
M  END
> <Catalog ID>
Z85936385

> <MW>
305.073

> <MW (desalted)>
305.735

> <ClogP>
3.645

> <logS>
-3.97

> <HBD>
1

> <HBA>
2

> <TPSA>
57.82

> <RotBonds>
3

> <ROCS_ShapeQuery>
A71EV2A-x0451_0A_A71EV2A-x0310_0A_A71EV2A-x0416_0A_peptide

> <ROCS_TanimotoCombo>
0.446 

> <ROCS_ShapeTanimoto>
0.310 

> <ROCS_ColorTanimoto>
0.135 

> <ROCS_RefTversky>
0.280 

> <ROCS_RefColorTversky>
0.144 

> <ROCS_RefTverskyCombo>
0.424 

> <ROCS_FitTversky>
1.543 

> <ROCS_FitColorTversky>
0.691 

> <ROCS_FitTverskyCombo>
2.234 

> <ROCS_ColorScore>
-4.379

> <ROCS_Overlap>
1942.474

> <ROCS_Rank>
173                 

$$$$
untitled-dbase-777_67
  -OEChem-11112315393D

 37 39  0     1  0  0  0  0  0999 V2000
    3.8932   11.8455   29.2268 C   0  0  0  0  0  0  0  0  0  0  0  0
    3.4826   11.8037   27.8945 C   0  0  0  0  0  0  0  0  0  0  0  0
    6.2021   11.8208   28.5160 C   0  0  0  0  0  0  0  0  0  0  0  0
    7.7185   12.7151   25.9225 C   0  0  0  0  0  0  0  0  0  0  0  0
    5.7915   11.7790   27.1836 C   0  0  0  0  0  0  0  0  0  0  0  0
    5.2530   11.8541   29.5376 C   0  0  0  0  0  0  0  0  0  0  0  0
    4.4317   11.7705   26.8729 C   0  0  0  0  0  0  0  0  0  0  0  0
    6.7684   11.7442   26.1402 C   0  0  0  0  0  0  0  0  0  0  0  0
    7.8865   11.0669   24.4493 C   0  0  0  0  0  0  0  0  0  0  0  0
   13.5505   15.4302   22.1018 C   0  0  0  0  0  0  0  0  0  0  0  0
   12.8651   14.3359   21.7570 C   0  0  0  0  0  0  0  0  0  0  0  0
   11.4763   14.1315   22.2484 C   0  0  0  0  0  0  0  0  0  0  0  0
    8.4063   10.3284   23.2652 C   0  0  0  0  0  0  0  0  0  0  0  0
    9.8080   10.7999   22.8649 C   0  0  0  0  0  0  0  0  0  0  0  0
    9.5732   12.9034   24.2352 C   0  0  0  0  0  0  0  0  0  0  0  0
    9.8800   12.3328   22.8465 C   0  0  1  0  0  0  0  0  0  0  0  0
    6.8764   10.7261   25.2241 N   0  0  0  0  0  0  0  0  0  0  0  0
    8.4191   12.2689   24.8428 N   0  0  0  0  0  0  0  0  0  0  0  0
   11.1687   12.7876   22.3879 N   0  0  0  0  0  0  0  0  0  0  0  0
   10.7172   15.0647   22.4893 O   0  0  0  0  0  0  0  0  0  0  0  0
    5.6466   11.8940   30.8173 F   0  0  0  0  0  0  0  0  0  0  0  0
    4.0203   11.7287   25.5971 F   0  0  0  0  0  0  0  0  0  0  0  0
    3.1545   11.8724   30.0223 H   0  0  0  0  0  0  0  0  0  0  0  0
    2.4240   11.7991   27.6523 H   0  0  0  0  0  0  0  0  0  0  0  0
    7.2581   11.8268   28.7756 H   0  0  0  0  0  0  0  0  0  0  0  0
    7.9514   13.6446   26.4243 H   0  0  0  0  0  0  0  0  0  0  0  0
   14.5636   15.5718   21.7403 H   0  0  0  0  0  0  0  0  0  0  0  0
   13.1353   16.2030   22.7393 H   0  0  0  0  0  0  0  0  0  0  0  0
   13.3175   13.5866   21.1164 H   0  0  0  0  0  0  0  0  0  0  0  0
    8.4254    9.2531   23.4738 H   0  0  0  0  0  0  0  0  0  0  0  0
    7.7154   10.4848   22.4282 H   0  0  0  0  0  0  0  0  0  0  0  0
   10.5439   10.4038   23.5778 H   0  0  0  0  0  0  0  0  0  0  0  0
   10.0570   10.3876   21.8797 H   0  0  0  0  0  0  0  0  0  0  0  0
   10.4089   12.7357   24.9259 H   0  0  0  0  0  0  0  0  0  0  0  0
    9.3721   13.9792   24.1789 H   0  0  0  0  0  0  0  0  0  0  0  0
    9.1467   12.7152   22.1257 H   0  0  0  0  0  0  0  0  0  0  0  0
   11.8549   12.0815   22.1330 H   0  0  0  0  0  0  0  0  0  0  0  0
  1  2  2  0  0  0  0
  1  6  1  0  0  0  0
  2  7  1  0  0  0  0
  3  5  1  0  0  0  0
  3  6  2  0  0  0  0
  4  8  2  0  0  0  0
  4 18  1  0  0  0  0
  5  7  2  0  0  0  0
  5  8  1  0  0  0  0
  6 21  1  0  0  0  0
  7 22  1  0  0  0  0
  8 17  1  0  0  0  0
  9 13  1  0  0  0  0
  9 17  2  0  0  0  0
  9 18  1  0  0  0  0
 10 11  2  0  0  0  0
 11 12  1  0  0  0  0
 12 19  1  0  0  0  0
 12 20  2  0  0  0  0
 13 14  1  0  0  0  0
 14 16  1  0  0  0  0
 15 16  1  0  0  0  0
 15 18  1  0  0  0  0
 16 19  1  0  0  0  0
  1 23  1  0  0  0  0
  2 24  1  0  0  0  0
  3 25  1  0  0  0  0
  4 26  1  0  0  0  0
 10 27  1  0  0  0  0
 10 28  1  0  0  0  0
 11 29  1  0  0  0  0
 13 30  1  0  0  0  0
 13 31  1  0  0  0  0
 14 32  1  0  0  0  0
 14 33  1  0  0  0  0
 15 34  1  0  0  0  0
 15 35  1  0  0  0  0
 16 36  1  0  0  0  0
 19 37  1  0  0  0  0
M  END
> <Catalog ID>
Z2285378234

> <MW>
303.307

> <MW (desalted)>
303.307

> <ClogP>
2.088

> <logS>
-3.557

> <HBD>
1

> <HBA>
2

> <TPSA>
46.92

> <RotBonds>
3

> <ROCS_ShapeQuery>
A71EV2A-x0451_0A_A71EV2A-x0310_0A_A71EV2A-x0416_0A_peptide

> <ROCS_TanimotoCombo>
0.446 

> <ROCS_ShapeTanimoto>
0.298 

> <ROCS_ColorTanimoto>
0.147 

> <ROCS_RefTversky>
0.274 

> <ROCS_RefColorTversky>
0.167 

> <ROCS_RefTverskyCombo>
0.441 

> <ROCS_FitTversky>
1.438 

> <ROCS_FitColorTversky>
0.554 

> <ROCS_FitTverskyCombo>
1.992 

> <ROCS_ColorScore>
-5.098

> <ROCS_Overlap>
1900.535

> <ROCS_Rank>
174                 

$$$$
untitled-dbase-161_128
  -OEChem-11112315393D

 34 35  0     0  0  0  0  0  0999 V2000
    9.8810    9.2107   22.6796 C   0  0  0  0  0  0  0  0  0  0  0  0
    8.4884   13.8887   25.8905 C   0  0  0  0  0  0  0  0  0  0  0  0
    8.0895   14.3491   23.5525 C   0  0  0  0  0  0  0  0  0  0  0  0
    8.3866   15.2502   26.1760 C   0  0  0  0  0  0  0  0  0  0  0  0
    7.9877   15.7106   23.8380 C   0  0  0  0  0  0  0  0  0  0  0  0
    9.1366   10.1616   23.4380 C   0  0  0  0  0  0  0  0  0  0  0  0
    8.0458    9.9028   24.3043 C   0  0  0  0  0  0  0  0  0  0  0  0
    8.3399   13.4381   24.5787 C   0  0  0  0  0  0  0  0  0  0  0  0
    8.1363   16.1612   25.1498 C   0  0  0  0  0  0  0  0  0  0  0  0
    7.6350   11.1118   24.8208 C   0  0  0  0  0  0  0  0  0  0  0  0
    9.3592   11.5209   23.4517 C   0  0  0  0  0  0  0  0  0  0  0  0
   10.8838   13.4643   23.2040 C   0  0  0  0  0  0  0  0  0  0  0  0
    7.4511    8.5829   24.6046 C   0  0  0  0  0  0  0  0  0  0  0  0
    6.5399   11.4091   25.7719 C   0  0  0  0  0  0  0  0  0  0  0  0
   11.8835   14.0058   22.2085 C   0  0  0  0  0  0  0  0  0  0  0  0
   10.4869    8.4367   22.0625 N   0  0  0  0  0  0  0  0  0  0  0  0
    8.4407   12.0883   24.2959 N   0  0  0  0  0  0  0  0  0  0  0  0
   10.3003   12.2623   22.7779 N   0  0  0  0  0  0  0  0  0  0  0  0
   10.6489   14.0801   24.2402 O   0  0  0  0  0  0  0  0  0  0  0  0
    8.0384   17.4686   25.4240 F   0  0  0  0  0  0  0  0  0  0  0  0
   11.0125   15.0697   21.0926 Cl  0  0  0  0  0  0  0  0  0  0  0  0
    8.6846   13.1899   26.7001 H   0  0  0  0  0  0  0  0  0  0  0  0
    7.9706   14.0114   22.5258 H   0  0  0  0  0  0  0  0  0  0  0  0
    8.5031   15.6015   27.1970 H   0  0  0  0  0  0  0  0  0  0  0  0
    7.7919   16.4203   23.0397 H   0  0  0  0  0  0  0  0  0  0  0  0
    7.9444    8.1157   25.4716 H   0  0  0  0  0  0  0  0  0  0  0  0
    6.3745    8.6584   24.8295 H   0  0  0  0  0  0  0  0  0  0  0  0
    7.5386    7.8889   23.7523 H   0  0  0  0  0  0  0  0  0  0  0  0
    6.9015   11.3734   26.8109 H   0  0  0  0  0  0  0  0  0  0  0  0
    6.1063   12.4068   25.5980 H   0  0  0  0  0  0  0  0  0  0  0  0
    5.7094   10.6912   25.6771 H   0  0  0  0  0  0  0  0  0  0  0  0
   12.3766   13.2185   21.6328 H   0  0  0  0  0  0  0  0  0  0  0  0
   12.6446   14.5873   22.7363 H   0  0  0  0  0  0  0  0  0  0  0  0
   10.6082   11.8981   21.8678 H   0  0  0  0  0  0  0  0  0  0  0  0
  1  6  1  0  0  0  0
  1 16  3  0  0  0  0
  2  4  2  0  0  0  0
  2  8  1  0  0  0  0
  3  5  1  0  0  0  0
  3  8  2  0  0  0  0
  4  9  1  0  0  0  0
  5  9  2  0  0  0  0
  6  7  1  0  0  0  0
  6 11  2  0  0  0  0
  7 10  2  0  0  0  0
  7 13  1  0  0  0  0
  8 17  1  0  0  0  0
  9 20  1  0  0  0  0
 10 14  1  0  0  0  0
 10 17  1  0  0  0  0
 11 17  1  0  0  0  0
 11 18  1  0  0  0  0
 12 15  1  0  0  0  0
 12 18  1  0  0  0  0
 12 19  2  0  0  0  0
 15 21  1  0  0  0  0
  2 22  1  0  0  0  0
  3 23  1  0  0  0  0
  4 24  1  0  0  0  0
  5 25  1  0  0  0  0
 13 26  1  0  0  0  0
 13 27  1  0  0  0  0
 13 28  1  0  0  0  0
 14 29  1  0  0  0  0
 14 30  1  0  0  0  0
 14 31  1  0  0  0  0
 15 32  1  0  0  0  0
 15 33  1  0  0  0  0
 18 34  1  0  0  0  0
M  END
> <Catalog ID>
Z212046244

> <MW>
305.073

> <MW (desalted)>
305.735

> <ClogP>
3.645

> <logS>
-3.97

> <HBD>
1

> <HBA>
2

> <TPSA>
57.82

> <RotBonds>
3

> <ROCS_ShapeQuery>
A71EV2A-x0451_0A_A71EV2A-x0310_0A_A71EV2A-x0416_0A_peptide

> <ROCS_TanimotoCombo>
0.445 

> <ROCS_ShapeTanimoto>
0.310 

> <ROCS_ColorTanimoto>
0.135 

> <ROCS_RefTversky>
0.280 

> <ROCS_RefColorTversky>
0.144 

> <ROCS_RefTverskyCombo>
0.424 

> <ROCS_FitTversky>
1.542 

> <ROCS_FitColorTversky>
0.691 

> <ROCS_FitTverskyCombo>
2.233 

> <ROCS_ColorScore>
-4.379

> <ROCS_Overlap>
1940.942

> <ROCS_Rank>
175                 

$$$$
untitled-dbase-245_130
  -OEChem-11112315393D

 40 42  0     1  0  0  0  0  0999 V2000
    6.1683   11.7178   26.2262 C   0  0  0  0  0  0  0  0  0  0  0  0
    6.8624   12.9168   26.0601 C   0  0  0  0  0  0  0  0  0  0  0  0
    6.5866   10.5680   25.5558 C   0  0  0  0  0  0  0  0  0  0  0  0
    7.9837   12.9676   25.2316 C   0  0  0  0  0  0  0  0  0  0  0  0
    7.6995   10.6208   24.7163 C   0  0  0  0  0  0  0  0  0  0  0  0
    8.4108   11.8152   24.5716 C   0  0  0  0  0  0  0  0  0  0  0  0
   13.8210   17.1449   20.3584 C   0  0  0  0  0  0  0  0  0  0  0  0
   12.5661   16.8166   20.6728 C   0  0  0  0  0  0  0  0  0  0  0  0
   12.2862   16.2680   22.0198 C   0  0  0  0  0  0  0  0  0  0  0  0
   11.0343   10.9103   22.3512 C   0  0  0  0  0  0  0  0  0  0  0  0
   11.4229   14.1782   20.8821 C   0  0  0  0  0  0  0  0  0  0  0  0
   11.3521   14.4076   23.3430 C   0  0  0  0  0  0  0  0  0  0  0  0
   11.9978   12.7727   21.0351 C   0  0  0  0  0  0  0  0  0  0  0  0
   11.9277   13.0020   23.4923 C   0  0  0  0  0  0  0  0  0  0  0  0
    8.9597    9.7109   22.9935 C   0  0  0  0  0  0  0  0  0  0  0  0
   10.0647   10.6424   23.4536 C   0  0  2  0  0  0  0  0  0  0  0  0
   11.7355   14.9961   22.0600 N   0  0  0  0  0  0  0  0  0  0  0  0
   11.6035   12.1820   22.3169 N   0  0  0  0  0  0  0  0  0  0  0  0
   12.5701   17.0004   22.9585 O   0  0  0  0  0  0  0  0  0  0  0  0
   11.2826   10.0185   21.5357 O   0  0  0  0  0  0  0  0  0  0  0  0
    8.0490    9.4640   24.0688 O   0  0  0  0  0  0  0  0  0  0  0  0
    9.5308   11.9228   23.7879 O   0  0  0  0  0  0  0  0  0  0  0  0
    5.2981   11.6807   26.8752 H   0  0  0  0  0  0  0  0  0  0  0  0
    6.5316   13.8111   26.5802 H   0  0  0  0  0  0  0  0  0  0  0  0
    6.0349    9.6407   25.6841 H   0  0  0  0  0  0  0  0  0  0  0  0
    8.5235   13.9033   25.1148 H   0  0  0  0  0  0  0  0  0  0  0  0
   14.0881   17.5509   19.3885 H   0  0  0  0  0  0  0  0  0  0  0  0
   14.6168   17.0094   21.0832 H   0  0  0  0  0  0  0  0  0  0  0  0
   11.7458   16.9374   19.9774 H   0  0  0  0  0  0  0  0  0  0  0  0
   11.8229   14.6113   19.9645 H   0  0  0  0  0  0  0  0  0  0  0  0
   10.3314   14.1419   20.7879 H   0  0  0  0  0  0  0  0  0  0  0  0
   10.2563   14.3762   23.3730 H   0  0  0  0  0  0  0  0  0  0  0  0
   11.6828   15.0330   24.1781 H   0  0  0  0  0  0  0  0  0  0  0  0
   11.6679   12.1456   20.2008 H   0  0  0  0  0  0  0  0  0  0  0  0
   13.0938   12.8010   21.0112 H   0  0  0  0  0  0  0  0  0  0  0  0
   13.0210   13.0422   23.5680 H   0  0  0  0  0  0  0  0  0  0  0  0
   11.5552   12.5559   24.4160 H   0  0  0  0  0  0  0  0  0  0  0  0
    8.3947   10.1232   22.1448 H   0  0  0  0  0  0  0  0  0  0  0  0
    9.3704    8.7455   22.6731 H   0  0  0  0  0  0  0  0  0  0  0  0
   10.6143   10.2454   24.3141 H   0  0  0  0  0  0  0  0  0  0  0  0
  1  2  1  0  0  0  0
  1  3  2  0  0  0  0
  2  4  2  0  0  0  0
  3  5  1  0  0  0  0
  4  6  1  0  0  0  0
  5  6  2  0  0  0  0
  5 21  1  0  0  0  0
  6 22  1  0  0  0  0
  7  8  2  0  0  0  0
  8  9  1  0  0  0  0
  9 17  1  0  0  0  0
  9 19  2  0  0  0  0
 10 16  1  0  0  0  0
 10 18  1  0  0  0  0
 10 20  2  0  0  0  0
 11 13  1  0  0  0  0
 11 17  1  0  0  0  0
 12 14  1  0  0  0  0
 12 17  1  0  0  0  0
 13 18  1  0  0  0  0
 14 18  1  0  0  0  0
 15 16  1  0  0  0  0
 15 21  1  0  0  0  0
 16 22  1  0  0  0  0
  1 23  1  0  0  0  0
  2 24  1  0  0  0  0
  3 25  1  0  0  0  0
  4 26  1  0  0  0  0
  7 27  1  0  0  0  0
  7 28  1  0  0  0  0
  8 29  1  0  0  0  0
 11 30  1  0  0  0  0
 11 31  1  0  0  0  0
 12 32  1  0  0  0  0
 12 33  1  0  0  0  0
 13 34  1  0  0  0  0
 13 35  1  0  0  0  0
 14 36  1  0  0  0  0
 14 37  1  0  0  0  0
 15 38  1  0  0  0  0
 15 39  1  0  0  0  0
 16 40  1  0  0  0  0
M  END
> <Catalog ID>
Z2517205900

> <MW>
302.325

> <MW (desalted)>
302.325

> <ClogP>
1.779

> <logS>
-3.719

> <HBD>
0

> <HBA>
4

> <TPSA>
59.08

> <RotBonds>
2

> <ROCS_ShapeQuery>
A71EV2A-x0451_0A_A71EV2A-x0310_0A_A71EV2A-x0416_0A_peptide

> <ROCS_TanimotoCombo>
0.445 

> <ROCS_ShapeTanimoto>
0.341 

> <ROCS_ColorTanimoto>
0.104 

> <ROCS_RefTversky>
0.303 

> <ROCS_RefColorTversky>
0.123 

> <ROCS_RefTverskyCombo>
0.426 

> <ROCS_FitTversky>
1.595 

> <ROCS_FitColorTversky>
0.409 

> <ROCS_FitTverskyCombo>
2.003 

> <ROCS_ColorScore>
-3.756

> <ROCS_Overlap>
2101.517

> <ROCS_Rank>
176                 

$$$$
untitled-dbase-613_11
  -OEChem-11112315393D

 33 33  0     1  0  0  0  0  0999 V2000
    4.8254   11.7010   27.2697 C   0  0  0  0  0  0  0  0  0  0  0  0
    6.0909   11.3246   27.0742 C   0  0  0  0  0  0  0  0  0  0  0  0
    6.9462   12.1337   26.1818 C   0  0  0  0  0  0  0  0  0  0  0  0
   10.8361   13.6407   23.0946 C   0  0  0  0  0  0  0  0  0  0  0  0
    9.2565   10.2197   23.1188 C   0  0  0  0  0  0  0  0  0  0  0  0
    8.4236    9.4000   24.0978 C   0  0  0  0  0  0  0  0  0  0  0  0
    8.3403   12.3183   24.1642 C   0  0  0  0  0  0  0  0  0  0  0  0
    9.6011   11.5753   23.7292 C   0  0  2  0  0  0  0  0  0  0  0  0
    7.1716   10.1391   24.5968 C   0  0  2  0  0  0  0  0  0  0  0  0
   11.5885   14.2429   21.9446 C   0  0  0  0  0  0  0  0  0  0  0  0
    6.0605   10.1641   23.5437 C   0  0  0  0  0  0  0  0  0  0  0  0
    7.4916   11.5124   25.0543 N   0  0  0  0  0  0  0  0  0  0  0  0
   10.3612   12.3743   22.7984 N   0  0  0  0  0  0  0  0  0  0  0  0
    7.1248   13.3143   26.4875 O   0  0  0  0  0  0  0  0  0  0  0  0
   10.6812   14.2392   24.1553 O   0  0  0  0  0  0  0  0  0  0  0  0
   11.6322   13.4082   20.8751 F   0  0  0  0  0  0  0  0  0  0  0  0
   12.8737   14.5320   22.2725 F   0  0  0  0  0  0  0  0  0  0  0  0
   11.0236   15.4002   21.5159 F   0  0  0  0  0  0  0  0  0  0  0  0
    4.9599   10.7327   24.0555 F   0  0  0  0  0  0  0  0  0  0  0  0
    6.4605   10.8681   22.4756 F   0  0  0  0  0  0  0  0  0  0  0  0
    5.7686    8.9137   23.1593 F   0  0  0  0  0  0  0  0  0  0  0  0
    4.1492   11.1481   27.9132 H   0  0  0  0  0  0  0  0  0  0  0  0
    4.4392   12.5876   26.7780 H   0  0  0  0  0  0  0  0  0  0  0  0
    6.5123   10.4471   27.5470 H   0  0  0  0  0  0  0  0  0  0  0  0
   10.1733    9.6686   22.8766 H   0  0  0  0  0  0  0  0  0  0  0  0
    8.7038   10.3508   22.1804 H   0  0  0  0  0  0  0  0  0  0  0  0
    8.1419    8.4478   23.6326 H   0  0  0  0  0  0  0  0  0  0  0  0
    9.0491    9.1474   24.9643 H   0  0  0  0  0  0  0  0  0  0  0  0
    8.6160   13.2591   24.6536 H   0  0  0  0  0  0  0  0  0  0  0  0
    7.7253   12.5827   23.2950 H   0  0  0  0  0  0  0  0  0  0  0  0
   10.2502   11.4288   24.6008 H   0  0  0  0  0  0  0  0  0  0  0  0
    6.8016    9.5563   25.4454 H   0  0  0  0  0  0  0  0  0  0  0  0
   10.5578   11.9880   21.8792 H   0  0  0  0  0  0  0  0  0  0  0  0
  1  2  2  0  0  0  0
  2  3  1  0  0  0  0
  3 12  1  0  0  0  0
  3 14  2  0  0  0  0
  4 10  1  0  0  0  0
  4 13  1  0  0  0  0
  4 15  2  0  0  0  0
  5  6  1  0  0  0  0
  5  8  1  0  0  0  0
  6  9  1  0  0  0  0
  7  8  1  0  0  0  0
  7 12  1  0  0  0  0
  8 13  1  0  0  0  0
  9 11  1  0  0  0  0
  9 12  1  0  0  0  0
 10 16  1  0  0  0  0
 10 17  1  0  0  0  0
 10 18  1  0  0  0  0
 11 19  1  0  0  0  0
 11 20  1  0  0  0  0
 11 21  1  0  0  0  0
  1 22  1  0  0  0  0
  1 23  1  0  0  0  0
  2 24  1  0  0  0  0
  5 25  1  0  0  0  0
  5 26  1  0  0  0  0
  6 27  1  0  0  0  0
  6 28  1  0  0  0  0
  7 29  1  0  0  0  0
  7 30  1  0  0  0  0
  8 31  1  0  0  0  0
  9 32  1  0  0  0  0
 13 33  1  0  0  0  0
M  END
> <Catalog ID>
Z2737383555

> <MW>
318.216

> <MW (desalted)>
318.216

> <ClogP>
1.648

> <logS>
-4.06

> <HBD>
1

> <HBA>
2

> <TPSA>
49.41

> <RotBonds>
4

> <ROCS_ShapeQuery>
A71EV2A-x0451_0A_A71EV2A-x0310_0A_A71EV2A-x0416_0A_peptide

> <ROCS_TanimotoCombo>
0.445 

> <ROCS_ShapeTanimoto>
0.316 

> <ROCS_ColorTanimoto>
0.129 

> <ROCS_RefTversky>
0.284 

> <ROCS_RefColorTversky>
0.138 

> <ROCS_RefTverskyCombo>
0.422 

> <ROCS_FitTversky>
1.571 

> <ROCS_FitColorTversky>
0.662 

> <ROCS_FitTverskyCombo>
2.233 

> <ROCS_ColorScore>
-4.196

> <ROCS_Overlap>
1969.689

> <ROCS_Rank>
177                 

$$$$
untitled-dbase-275_33
  -OEChem-11112315393D

 29 30  0     0  0  0  0  0  0999 V2000
    9.1479   10.2111   23.4840 C   0  0  0  0  0  0  0  0  0  0  0  0
    8.0506    9.9409   24.3261 C   0  0  0  0  0  0  0  0  0  0  0  0
    7.5270   11.0777   24.8774 C   0  0  0  0  0  0  0  0  0  0  0  0
    9.4038   11.5727   23.4406 C   0  0  0  0  0  0  0  0  0  0  0  0
    9.9182    9.2371   22.7575 C   0  0  0  0  0  0  0  0  0  0  0  0
   10.9368   13.5064   23.1695 C   0  0  0  0  0  0  0  0  0  0  0  0
    7.3121    8.7364   24.7759 C   0  0  0  0  0  0  0  0  0  0  0  0
    6.3711   10.8376   25.7713 C   0  0  0  0  0  0  0  0  0  0  0  0
    6.0303    9.3561   25.4185 C   0  0  0  0  0  0  0  0  0  0  0  0
    9.8270    7.0949   21.6824 C   0  0  0  0  0  0  0  0  0  0  0  0
   11.9567   14.0189   22.1793 C   0  0  0  0  0  0  0  0  0  0  0  0
   10.3555   12.2910   22.7679 N   0  0  0  0  0  0  0  0  0  0  0  0
   11.1251    9.3519   22.4654 O   0  0  0  0  0  0  0  0  0  0  0  0
   10.6829   14.1507   24.1837 O   0  0  0  0  0  0  0  0  0  0  0  0
    9.1700    8.1382   22.4101 O   0  0  0  0  0  0  0  0  0  0  0  0
    8.3082   12.4845   24.4229 S   0  0  0  0  0  0  0  0  0  0  0  0
   11.1098   15.0530   21.0179 Cl  0  0  0  0  0  0  0  0  0  0  0  0
    7.0552    8.0615   23.9546 H   0  0  0  0  0  0  0  0  0  0  0  0
    7.8908    8.1906   25.5285 H   0  0  0  0  0  0  0  0  0  0  0  0
    6.6665   10.9230   26.8220 H   0  0  0  0  0  0  0  0  0  0  0  0
    5.5227   11.4975   25.5721 H   0  0  0  0  0  0  0  0  0  0  0  0
    5.2199    9.3443   24.6776 H   0  0  0  0  0  0  0  0  0  0  0  0
    5.6873    8.7895   26.2898 H   0  0  0  0  0  0  0  0  0  0  0  0
    9.1166    6.2908   21.4756 H   0  0  0  0  0  0  0  0  0  0  0  0
   10.6658    6.7125   22.2695 H   0  0  0  0  0  0  0  0  0  0  0  0
   10.2000    7.5002   20.7388 H   0  0  0  0  0  0  0  0  0  0  0  0
   12.4595   13.2153   21.6352 H   0  0  0  0  0  0  0  0  0  0  0  0
   12.7086   14.6136   22.7058 H   0  0  0  0  0  0  0  0  0  0  0  0
   10.6801   11.8994   21.8724 H   0  0  0  0  0  0  0  0  0  0  0  0
  1  2  1  0  0  0  0
  1  4  2  0  0  0  0
  1  5  1  0  0  0  0
  2  3  2  0  0  0  0
  2  7  1  0  0  0  0
  3  8  1  0  0  0  0
  3 16  1  0  0  0  0
  4 12  1  0  0  0  0
  4 16  1  0  0  0  0
  5 13  2  0  0  0  0
  5 15  1  0  0  0  0
  6 11  1  0  0  0  0
  6 12  1  0  0  0  0
  6 14  2  0  0  0  0
  7  9  1  0  0  0  0
  8  9  1  0  0  0  0
 10 15  1  0  0  0  0
 11 17  1  0  0  0  0
  7 18  1  0  0  0  0
  7 19  1  0  0  0  0
  8 20  1  0  0  0  0
  8 21  1  0  0  0  0
  9 22  1  0  0  0  0
  9 23  1  0  0  0  0
 10 24  1  0  0  0  0
 10 25  1  0  0  0  0
 10 26  1  0  0  0  0
 11 27  1  0  0  0  0
 11 28  1  0  0  0  0
 12 29  1  0  0  0  0
M  END
> <Catalog ID>
Z56837139

> <MW>
273.023

> <MW (desalted)>
273.736

> <ClogP>
2.959

> <logS>
-3.57

> <HBD>
1

> <HBA>
2

> <TPSA>
55.4

> <RotBonds>
4

> <ROCS_ShapeQuery>
A71EV2A-x0451_0A_A71EV2A-x0310_0A_A71EV2A-x0416_0A_peptide

> <ROCS_TanimotoCombo>
0.445 

> <ROCS_ShapeTanimoto>
0.307 

> <ROCS_ColorTanimoto>
0.139 

> <ROCS_RefTversky>
0.271 

> <ROCS_RefColorTversky>
0.147 

> <ROCS_RefTverskyCombo>
0.418 

> <ROCS_FitTversky>
1.771 

> <ROCS_FitColorTversky>
0.703 

> <ROCS_FitTverskyCombo>
2.474 

> <ROCS_ColorScore>
-4.475

> <ROCS_Overlap>
1875.346

> <ROCS_Rank>
178                 

$$$$
untitled-dbase-38_5
  -OEChem-11112315393D

 31 33  0     0  0  0  0  0  0999 V2000
   12.0810    9.8056   21.6310 C   0  0  0  0  0  0  0  0  0  0  0  0
   12.5924   11.0742   21.8968 C   0  0  0  0  0  0  0  0  0  0  0  0
   10.8548    9.4180   22.1720 C   0  0  0  0  0  0  0  0  0  0  0  0
   11.8798   11.9608   22.7047 C   0  0  0  0  0  0  0  0  0  0  0  0
    6.8606   10.4459   24.9507 C   0  0  0  0  0  0  0  0  0  0  0  0
    6.1480   11.3325   25.7586 C   0  0  0  0  0  0  0  0  0  0  0  0
    7.8855   12.9888   25.4834 C   0  0  0  0  0  0  0  0  0  0  0  0
   10.1364   10.3045   22.9832 C   0  0  0  0  0  0  0  0  0  0  0  0
   10.6489   11.5759   23.2495 C   0  0  0  0  0  0  0  0  0  0  0  0
    8.0914   10.8308   24.4058 C   0  0  0  0  0  0  0  0  0  0  0  0
    8.6039   12.1022   24.6721 C   0  0  0  0  0  0  0  0  0  0  0  0
    6.6594   12.6012   26.0244 C   0  0  0  0  0  0  0  0  0  0  0  0
    8.8389    9.8855   23.5516 C   0  0  0  0  0  0  0  0  0  0  0  0
    9.9014   12.5212   24.1037 C   0  0  0  0  0  0  0  0  0  0  0  0
    4.7162   13.2321   27.4347 C   0  0  0  0  0  0  0  0  0  0  0  0
    4.2328   14.4151   28.2411 C   0  0  0  0  0  0  0  0  0  0  0  0
    5.9436   13.4849   26.8331 N   0  0  0  0  0  0  0  0  0  0  0  0
    8.3892    8.7705   23.3176 O   0  0  0  0  0  0  0  0  0  0  0  0
   10.3516   13.6361   24.3373 O   0  0  0  0  0  0  0  0  0  0  0  0
    4.0313   12.2157   27.3582 O   0  0  0  0  0  0  0  0  0  0  0  0
    3.2574   13.7926   29.5816 Cl  0  0  0  0  0  0  0  0  0  0  0  0
   12.6375    9.1175   21.0012 H   0  0  0  0  0  0  0  0  0  0  0  0
   13.5472   11.3736   21.4741 H   0  0  0  0  0  0  0  0  0  0  0  0
   10.4777    8.4235   21.9495 H   0  0  0  0  0  0  0  0  0  0  0  0
   12.3000   12.9443   22.8968 H   0  0  0  0  0  0  0  0  0  0  0  0
    6.4402    9.4624   24.7585 H   0  0  0  0  0  0  0  0  0  0  0  0
    5.1931   11.0215   26.1757 H   0  0  0  0  0  0  0  0  0  0  0  0
    8.2730   13.9823   25.6988 H   0  0  0  0  0  0  0  0  0  0  0  0
    3.6243   15.1075   27.6539 H   0  0  0  0  0  0  0  0  0  0  0  0
    5.0929   14.9559   28.6457 H   0  0  0  0  0  0  0  0  0  0  0  0
    6.3589   14.3999   26.9977 H   0  0  0  0  0  0  0  0  0  0  0  0
  1  2  1  0  0  0  0
  1  3  2  0  0  0  0
  2  4  2  0  0  0  0
  3  8  1  0  0  0  0
  4  9  1  0  0  0  0
  5  6  2  0  0  0  0
  5 10  1  0  0  0  0
  6 12  1  0  0  0  0
  7 11  1  0  0  0  0
  7 12  2  0  0  0  0
  8  9  2  0  0  0  0
  8 13  1  0  0  0  0
  9 14  1  0  0  0  0
 10 11  2  0  0  0  0
 10 13  1  0  0  0  0
 11 14  1  0  0  0  0
 12 17  1  0  0  0  0
 13 18  2  0  0  0  0
 14 19  2  0  0  0  0
 15 16  1  0  0  0  0
 15 17  1  0  0  0  0
 15 20  2  0  0  0  0
 16 21  1  0  0  0  0
  1 22  1  0  0  0  0
  2 23  1  0  0  0  0
  3 24  1  0  0  0  0
  4 25  1  0  0  0  0
  5 26  1  0  0  0  0
  6 27  1  0  0  0  0
  7 28  1  0  0  0  0
 16 29  1  0  0  0  0
 16 30  1  0  0  0  0
 17 31  1  0  0  0  0
M  END
> <Catalog ID>
Z56763884

> <MW>
299.035

> <MW (desalted)>
299.709

> <ClogP>
3.533

> <logS>
-5.24

> <HBD>
1

> <HBA>
3

> <TPSA>
63.24

> <RotBonds>
2

> <ROCS_ShapeQuery>
A71EV2A-x0451_0A_A71EV2A-x0310_0A_A71EV2A-x0416_0A_peptide

> <ROCS_TanimotoCombo>
0.445 

> <ROCS_ShapeTanimoto>
0.297 

> <ROCS_ColorTanimoto>
0.148 

> <ROCS_RefTversky>
0.271 

> <ROCS_RefColorTversky>
0.164 

> <ROCS_RefTverskyCombo>
0.435 

> <ROCS_FitTversky>
1.473 

> <ROCS_FitColorTversky>
0.607 

> <ROCS_FitTverskyCombo>
2.080 

> <ROCS_ColorScore>
-5.000

> <ROCS_Overlap>
1882.430

> <ROCS_Rank>
179                 

$$$$
untitled-dbase-955_189
  -OEChem-11112315393D

 34 35  0     0  0  0  0  0  0999 V2000
    9.7135   10.2175   23.1955 C   0  0  0  0  0  0  0  0  0  0  0  0
    8.6366   12.3936   24.5639 C   0  0  0  0  0  0  0  0  0  0  0  0
   10.3901   11.4448   23.1860 C   0  0  0  0  0  0  0  0  0  0  0  0
    9.8413   12.5480   23.8627 C   0  0  0  0  0  0  0  0  0  0  0  0
    8.5146   10.0779   23.8937 C   0  0  0  0  0  0  0  0  0  0  0  0
    7.9779   11.1642   24.5797 C   0  0  0  0  0  0  0  0  0  0  0  0
   12.2698   15.1392   22.5164 C   0  0  0  0  0  0  0  0  0  0  0  0
   11.6708   11.5920   22.4087 C   0  0  0  0  0  0  0  0  0  0  0  0
   10.5223   13.8953   23.8611 C   0  0  0  0  0  0  0  0  0  0  0  0
   12.5256   12.7232   22.9663 C   0  0  0  0  0  0  0  0  0  0  0  0
    8.4939    7.8131   23.1683 C   0  0  0  0  0  0  0  0  0  0  0  0
    6.3270   12.2016   25.9413 C   0  0  0  0  0  0  0  0  0  0  0  0
   13.0457   15.0031   21.2294 C   0  0  0  0  0  0  0  0  0  0  0  0
   11.7494   13.9595   23.0539 N   0  0  0  0  0  0  0  0  0  0  0  0
   12.1365   16.2537   23.0277 O   0  0  0  0  0  0  0  0  0  0  0  0
    7.8773    8.8739   23.8954 O   0  0  0  0  0  0  0  0  0  0  0  0
    6.8076   11.0410   25.2660 O   0  0  0  0  0  0  0  0  0  0  0  0
   11.9485   14.2874   20.0545 Cl  0  0  0  0  0  0  0  0  0  0  0  0
   10.1246    9.3662   22.6580 H   0  0  0  0  0  0  0  0  0  0  0  0
    8.2086   13.2393   25.0977 H   0  0  0  0  0  0  0  0  0  0  0  0
   12.2467   10.6601   22.4555 H   0  0  0  0  0  0  0  0  0  0  0  0
   11.4278   11.7840   21.3567 H   0  0  0  0  0  0  0  0  0  0  0  0
    9.8109   14.6456   23.5038 H   0  0  0  0  0  0  0  0  0  0  0  0
   10.8112   14.1534   24.8871 H   0  0  0  0  0  0  0  0  0  0  0  0
   12.8748   12.4883   23.9797 H   0  0  0  0  0  0  0  0  0  0  0  0
   13.4130   12.8600   22.3401 H   0  0  0  0  0  0  0  0  0  0  0  0
    7.8837    6.9105   23.2516 H   0  0  0  0  0  0  0  0  0  0  0  0
    9.4936    7.6283   23.5694 H   0  0  0  0  0  0  0  0  0  0  0  0
    8.5727    8.1014   22.1174 H   0  0  0  0  0  0  0  0  0  0  0  0
    5.3878   11.9666   26.4479 H   0  0  0  0  0  0  0  0  0  0  0  0
    6.1721   13.0068   25.2187 H   0  0  0  0  0  0  0  0  0  0  0  0
    7.0682   12.5155   26.6802 H   0  0  0  0  0  0  0  0  0  0  0  0
   13.8912   14.3467   21.3981 H   0  0  0  0  0  0  0  0  0  0  0  0
   13.3537   15.9884   20.9004 H   0  0  0  0  0  0  0  0  0  0  0  0
  1  3  2  0  0  0  0
  1  5  1  0  0  0  0
  2  4  2  0  0  0  0
  2  6  1  0  0  0  0
  3  4  1  0  0  0  0
  3  8  1  0  0  0  0
  4  9  1  0  0  0  0
  5  6  2  0  0  0  0
  5 16  1  0  0  0  0
  6 17  1  0  0  0  0
  7 13  1  0  0  0  0
  7 14  1  0  0  0  0
  7 15  2  0  0  0  0
  8 10  1  0  0  0  0
  9 14  1  0  0  0  0
 10 14  1  0  0  0  0
 11 16  1  0  0  0  0
 12 17  1  0  0  0  0
 13 18  1  0  0  0  0
  1 19  1  0  0  0  0
  2 20  1  0  0  0  0
  8 21  1  0  0  0  0
  8 22  1  0  0  0  0
  9 23  1  0  0  0  0
  9 24  1  0  0  0  0
 10 25  1  0  0  0  0
 10 26  1  0  0  0  0
 11 27  1  0  0  0  0
 11 28  1  0  0  0  0
 11 29  1  0  0  0  0
 12 30  1  0  0  0  0
 12 31  1  0  0  0  0
 12 32  1  0  0  0  0
 13 33  1  0  0  0  0
 13 34  1  0  0  0  0
M  END
> <Catalog ID>
Z108565160

> <MW>
269.082

> <MW (desalted)>
269.724

> <ClogP>
0.912

> <logS>
-2.4

> <HBD>
0

> <HBA>
3

> <TPSA>
38.77

> <RotBonds>
3

> <ROCS_ShapeQuery>
A71EV2A-x0451_0A_A71EV2A-x0310_0A_A71EV2A-x0416_0A_peptide

> <ROCS_TanimotoCombo>
0.445 

> <ROCS_ShapeTanimoto>
0.328 

> <ROCS_ColorTanimoto>
0.117 

> <ROCS_RefTversky>
0.287 

> <ROCS_RefColorTversky>
0.126 

> <ROCS_RefTverskyCombo>
0.413 

> <ROCS_FitTversky>
1.791 

> <ROCS_FitColorTversky>
0.605 

> <ROCS_FitTverskyCombo>
2.396 

> <ROCS_ColorScore>
-3.839

> <ROCS_Overlap>
1989.107

> <ROCS_Rank>
180                 

$$$$
untitled-dbase-687_494
  -OEChem-11112315393D

 31 32  0     1  0  0  0  0  0999 V2000
    6.1676   10.2717   25.6740 C   0  0  0  0  0  0  0  0  0  0  0  0
    6.2680   11.6246   26.0084 C   0  0  0  0  0  0  0  0  0  0  0  0
    7.0929    9.6697   24.8103 C   0  0  0  0  0  0  0  0  0  0  0  0
    7.2930   12.4244   25.4944 C   0  0  0  0  0  0  0  0  0  0  0  0
    9.2288   10.2346   23.4074 C   0  0  0  0  0  0  0  0  0  0  0  0
    8.1322   10.4553   24.2819 C   0  0  0  0  0  0  0  0  0  0  0  0
    8.1977   11.7982   24.6389 C   0  0  0  0  0  0  0  0  0  0  0  0
    9.8809   11.4403   23.2912 C   0  0  0  0  0  0  0  0  0  0  0  0
   10.8092   14.2852   22.9834 C   0  0  0  0  0  0  0  0  0  0  0  0
   12.3950   11.7053   23.3234 C   0  0  0  0  0  0  0  0  0  0  0  0
   11.0744   13.4014   20.6146 C   0  0  0  0  0  0  0  0  0  0  0  0
   10.7279   15.6762   22.3870 C   0  0  0  0  0  0  0  0  0  0  0  0
   11.0714   11.8683   22.5439 C   0  0  2  0  0  0  0  0  0  0  0  0
   10.9761   13.2451   22.0626 N   0  0  0  0  0  0  0  0  0  0  0  0
   10.7312   14.1030   24.2009 O   0  0  0  0  0  0  0  0  0  0  0  0
    9.2631   12.3953   24.0343 O   0  0  0  0  0  0  0  0  0  0  0  0
   12.3449   16.3920   22.2344 Cl  0  0  0  0  0  0  0  0  0  0  0  0
    5.3594    9.6754   26.0898 H   0  0  0  0  0  0  0  0  0  0  0  0
    5.5356   12.0642   26.6809 H   0  0  0  0  0  0  0  0  0  0  0  0
    7.0019    8.6172   24.5593 H   0  0  0  0  0  0  0  0  0  0  0  0
    7.3773   13.4742   25.7491 H   0  0  0  0  0  0  0  0  0  0  0  0
    9.5070    9.3087   22.9234 H   0  0  0  0  0  0  0  0  0  0  0  0
   12.3520   12.2641   24.2647 H   0  0  0  0  0  0  0  0  0  0  0  0
   12.6055   10.6564   23.5608 H   0  0  0  0  0  0  0  0  0  0  0  0
   13.2468   12.0815   22.7457 H   0  0  0  0  0  0  0  0  0  0  0  0
   12.1286   13.5350   20.3305 H   0  0  0  0  0  0  0  0  0  0  0  0
   10.6726   12.5042   20.1210 H   0  0  0  0  0  0  0  0  0  0  0  0
   10.4957   14.2827   20.3010 H   0  0  0  0  0  0  0  0  0  0  0  0
   10.2932   15.6321   21.3853 H   0  0  0  0  0  0  0  0  0  0  0  0
   10.1389   16.3299   23.0353 H   0  0  0  0  0  0  0  0  0  0  0  0
   11.1967   11.2762   21.6107 H   0  0  0  0  0  0  0  0  0  0  0  0
  1  2  1  0  0  0  0
  1  3  2  0  0  0  0
  2  4  2  0  0  0  0
  3  6  1  0  0  0  0
  4  7  1  0  0  0  0
  5  6  1  0  0  0  0
  5  8  2  0  0  0  0
  6  7  2  0  0  0  0
  7 16  1  0  0  0  0
  8 13  1  0  0  0  0
  8 16  1  0  0  0  0
  9 12  1  0  0  0  0
  9 14  1  0  0  0  0
  9 15  2  0  0  0  0
 10 13  1  0  0  0  0
 11 14  1  0  0  0  0
 12 17  1  0  0  0  0
 13 14  1  0  0  0  0
  1 18  1  0  0  0  0
  2 19  1  0  0  0  0
  3 20  1  0  0  0  0
  4 21  1  0  0  0  0
  5 22  1  0  0  0  0
 10 23  1  0  0  0  0
 10 24  1  0  0  0  0
 10 25  1  0  0  0  0
 11 26  1  0  0  0  0
 11 27  1  0  0  0  0
 11 28  1  0  0  0  0
 12 29  1  0  0  0  0
 12 30  1  0  0  0  0
 13 31  1  0  0  0  0
M  END
> <Catalog ID>
Z561132288

> <MW>
251.071

> <MW (desalted)>
251.709

> <ClogP>
2.448

> <logS>
-3.399

> <HBD>
0

> <HBA>
1

> <TPSA>
33.45

> <RotBonds>
3

> <ROCS_ShapeQuery>
A71EV2A-x0451_0A_A71EV2A-x0310_0A_A71EV2A-x0416_0A_peptide

> <ROCS_TanimotoCombo>
0.445 

> <ROCS_ShapeTanimoto>
0.314 

> <ROCS_ColorTanimoto>
0.131 

> <ROCS_RefTversky>
0.276 

> <ROCS_RefColorTversky>
0.136 

> <ROCS_RefTverskyCombo>
0.413 

> <ROCS_FitTversky>
1.774 

> <ROCS_FitColorTversky>
0.766 

> <ROCS_FitTverskyCombo>
2.540 

> <ROCS_ColorScore>
-4.139

> <ROCS_Overlap>
1914.574

> <ROCS_Rank>
181                 

$$$$
untitled-dbase-420_169
  -OEChem-11112315393D

 34 36  0     0  0  0  0  0  0999 V2000
    6.5179   12.3897   25.7456 C   0  0  0  0  0  0  0  0  0  0  0  0
    6.1562   11.0740   26.0282 C   0  0  0  0  0  0  0  0  0  0  0  0
    7.6222   12.6702   24.9327 C   0  0  0  0  0  0  0  0  0  0  0  0
    6.8839    9.9992   25.5095 C   0  0  0  0  0  0  0  0  0  0  0  0
    9.8005   10.1852   23.3706 C   0  0  0  0  0  0  0  0  0  0  0  0
    8.3711   11.6029   24.3984 C   0  0  0  0  0  0  0  0  0  0  0  0
    9.5175   11.5183   23.5596 C   0  0  0  0  0  0  0  0  0  0  0  0
    7.9854   10.2946   24.6985 C   0  0  0  0  0  0  0  0  0  0  0  0
   11.3729   12.4054   22.1895 C   0  0  0  0  0  0  0  0  0  0  0  0
   10.3002   12.6311   22.9716 C   0  0  0  0  0  0  0  0  0  0  0  0
   12.7063   15.9201   22.0760 C   0  0  0  0  0  0  0  0  0  0  0  0
   12.2308   13.4826   21.5899 C   0  0  0  0  0  0  0  0  0  0  0  0
    9.8746   14.0437   23.2871 C   0  0  0  0  0  0  0  0  0  0  0  0
   10.4068   15.0363   22.2567 C   0  0  0  0  0  0  0  0  0  0  0  0
   13.8371   15.9214   21.0767 C   0  0  0  0  0  0  0  0  0  0  0  0
    8.8709    9.4550   24.0612 N   0  0  0  0  0  0  0  0  0  0  0  0
   11.8357   14.8284   22.0259 N   0  0  0  0  0  0  0  0  0  0  0  0
   12.6044   16.8536   22.8756 O   0  0  0  0  0  0  0  0  0  0  0  0
   13.2284   16.7169   19.6298 Cl  0  0  0  0  0  0  0  0  0  0  0  0
    5.9353   13.2087   26.1590 H   0  0  0  0  0  0  0  0  0  0  0  0
    5.2947   10.8794   26.6615 H   0  0  0  0  0  0  0  0  0  0  0  0
    7.8895   13.7020   24.7222 H   0  0  0  0  0  0  0  0  0  0  0  0
    6.6010    8.9750   25.7290 H   0  0  0  0  0  0  0  0  0  0  0  0
   10.5781    9.6853   22.8087 H   0  0  0  0  0  0  0  0  0  0  0  0
   11.6646   11.3817   21.9642 H   0  0  0  0  0  0  0  0  0  0  0  0
   13.2733   13.2901   21.8565 H   0  0  0  0  0  0  0  0  0  0  0  0
   12.1490   13.4551   20.4978 H   0  0  0  0  0  0  0  0  0  0  0  0
    8.7800   14.1205   23.3015 H   0  0  0  0  0  0  0  0  0  0  0  0
   10.2327   14.3145   24.2884 H   0  0  0  0  0  0  0  0  0  0  0  0
    9.9003   14.9061   21.2922 H   0  0  0  0  0  0  0  0  0  0  0  0
   10.2063   16.0594   22.5912 H   0  0  0  0  0  0  0  0  0  0  0  0
   14.1079   14.8963   20.8526 H   0  0  0  0  0  0  0  0  0  0  0  0
   14.6681   16.4817   21.4888 H   0  0  0  0  0  0  0  0  0  0  0  0
    8.8392    8.4455   24.0978 H   0  0  0  0  0  0  0  0  0  0  0  0
  1  2  1  0  0  0  0
  1  3  2  0  0  0  0
  2  4  2  0  0  0  0
  3  6  1  0  0  0  0
  4  8  1  0  0  0  0
  5  7  2  0  0  0  0
  5 16  1  0  0  0  0
  6  7  1  0  0  0  0
  6  8  2  0  0  0  0
  7 10  1  0  0  0  0
  8 16  1  0  0  0  0
  9 10  2  0  0  0  0
  9 12  1  0  0  0  0
 10 13  1  0  0  0  0
 11 15  1  0  0  0  0
 11 17  1  0  0  0  0
 11 18  2  0  0  0  0
 12 17  1  0  0  0  0
 13 14  1  0  0  0  0
 14 17  1  0  0  0  0
 15 19  1  0  0  0  0
  1 20  1  0  0  0  0
  2 21  1  0  0  0  0
  3 22  1  0  0  0  0
  4 23  1  0  0  0  0
  5 24  1  0  0  0  0
  9 25  1  0  0  0  0
 12 26  1  0  0  0  0
 12 27  1  0  0  0  0
 13 28  1  0  0  0  0
 13 29  1  0  0  0  0
 14 30  1  0  0  0  0
 14 31  1  0  0  0  0
 15 32  1  0  0  0  0
 15 33  1  0  0  0  0
 16 34  1  0  0  0  0
M  END
> <Catalog ID>
Z258606284

> <MW>
274.087

> <MW (desalted)>
274.745

> <ClogP>
1.888

> <logS>
-4.03

> <HBD>
1

> <HBA>
1

> <TPSA>
36.1

> <RotBonds>
2

> <ROCS_ShapeQuery>
A71EV2A-x0451_0A_A71EV2A-x0310_0A_A71EV2A-x0416_0A_peptide

> <ROCS_TanimotoCombo>
0.445 

> <ROCS_ShapeTanimoto>
0.333 

> <ROCS_ColorTanimoto>
0.112 

> <ROCS_RefTversky>
0.292 

> <ROCS_RefColorTversky>
0.122 

> <ROCS_RefTverskyCombo>
0.414 

> <ROCS_FitTversky>
1.727 

> <ROCS_FitColorTversky>
0.582 

> <ROCS_FitTverskyCombo>
2.308 

> <ROCS_ColorScore>
-3.695

> <ROCS_Overlap>
2026.748

> <ROCS_Rank>
182                 

$$$$
untitled-dbase-947_160
  -OEChem-11112315393D

 32 33  0     1  0  0  0  0  0999 V2000
    8.3343   11.7473   24.4726 C   0  0  0  0  0  0  0  0  0  0  0  0
    7.7838   10.4819   24.5362 C   0  0  0  0  0  0  0  0  0  0  0  0
    6.4585   12.2339   25.4949 C   0  0  0  0  0  0  0  0  0  0  0  0
   12.6344   16.2534   22.0623 C   0  0  0  0  0  0  0  0  0  0  0  0
   12.5308   14.9540   22.3576 C   0  0  0  0  0  0  0  0  0  0  0  0
   11.2770   14.4138   22.9478 C   0  0  0  0  0  0  0  0  0  0  0  0
    8.4257    9.2300   24.0443 C   0  0  0  0  0  0  0  0  0  0  0  0
    9.6016    9.5645   23.1104 C   0  0  0  0  0  0  0  0  0  0  0  0
   10.4630   10.7206   23.6527 C   0  0  0  0  0  0  0  0  0  0  0  0
    9.6603   12.0339   23.8363 C   0  0  1  0  0  0  0  0  0  0  0  0
    5.3882   13.0070   26.1622 C   0  0  0  0  0  0  0  0  0  0  0  0
    9.4814   12.7637   22.5027 C   0  0  0  0  0  0  0  0  0  0  0  0
    7.5717   12.7561   25.0262 N   0  0  0  0  0  0  0  0  0  0  0  0
   10.6905   13.4289   22.1517 N   0  0  0  0  0  0  0  0  0  0  0  0
   10.8270   14.8101   24.0181 O   0  0  0  0  0  0  0  0  0  0  0  0
    6.2665   10.5360   25.3060 S   0  0  0  0  0  0  0  0  0  0  0  0
   13.5526   16.6403   21.6329 H   0  0  0  0  0  0  0  0  0  0  0  0
   11.8277   16.9576   22.2333 H   0  0  0  0  0  0  0  0  0  0  0  0
   13.3618   14.2827   22.1702 H   0  0  0  0  0  0  0  0  0  0  0  0
    8.7850    8.6144   24.8782 H   0  0  0  0  0  0  0  0  0  0  0  0
    7.6817    8.6386   23.4942 H   0  0  0  0  0  0  0  0  0  0  0  0
   10.2365    8.6766   22.9850 H   0  0  0  0  0  0  0  0  0  0  0  0
    9.2158    9.8218   22.1164 H   0  0  0  0  0  0  0  0  0  0  0  0
   10.9058   10.4262   24.6152 H   0  0  0  0  0  0  0  0  0  0  0  0
   11.3038   10.8852   22.9606 H   0  0  0  0  0  0  0  0  0  0  0  0
   10.2104   12.6880   24.5168 H   0  0  0  0  0  0  0  0  0  0  0  0
    4.6479   13.3674   25.4310 H   0  0  0  0  0  0  0  0  0  0  0  0
    4.8540   12.4040   26.9145 H   0  0  0  0  0  0  0  0  0  0  0  0
    5.7879   13.8834   26.6983 H   0  0  0  0  0  0  0  0  0  0  0  0
    9.2252   12.0136   21.7566 H   0  0  0  0  0  0  0  0  0  0  0  0
    8.6728   13.4807   22.6337 H   0  0  0  0  0  0  0  0  0  0  0  0
   11.1366   13.1960   21.2579 H   0  0  0  0  0  0  0  0  0  0  0  0
  1  2  2  0  0  0  0
  1 10  1  0  0  0  0
  1 13  1  0  0  0  0
  2  7  1  0  0  0  0
  2 16  1  0  0  0  0
  3 11  1  0  0  0  0
  3 13  2  0  0  0  0
  3 16  1  0  0  0  0
  4  5  2  0  0  0  0
  5  6  1  0  0  0  0
  6 14  1  0  0  0  0
  6 15  2  0  0  0  0
  7  8  1  0  0  0  0
  8  9  1  0  0  0  0
  9 10  1  0  0  0  0
 10 12  1  0  0  0  0
 12 14  1  0  0  0  0
  4 17  1  0  0  0  0
  4 18  1  0  0  0  0
  5 19  1  0  0  0  0
  7 20  1  0  0  0  0
  7 21  1  0  0  0  0
  8 22  1  0  0  0  0
  8 23  1  0  0  0  0
  9 24  1  0  0  0  0
  9 25  1  0  0  0  0
 10 26  1  0  0  0  0
 11 27  1  0  0  0  0
 11 28  1  0  0  0  0
 11 29  1  0  0  0  0
 12 30  1  0  0  0  0
 12 31  1  0  0  0  0
 14 32  1  0  0  0  0
M  END
> <Catalog ID>
Z2737383420

> <MW>
236.333

> <MW (desalted)>
236.333

> <ClogP>
1.42

> <logS>
-2.31

> <HBD>
1

> <HBA>
2

> <TPSA>
41.99

> <RotBonds>
3

> <ROCS_ShapeQuery>
A71EV2A-x0451_0A_A71EV2A-x0310_0A_A71EV2A-x0416_0A_peptide

> <ROCS_TanimotoCombo>
0.445 

> <ROCS_ShapeTanimoto>
0.308 

> <ROCS_ColorTanimoto>
0.137 

> <ROCS_RefTversky>
0.270 

> <ROCS_RefColorTversky>
0.149 

> <ROCS_RefTverskyCombo>
0.419 

> <ROCS_FitTversky>
1.852 

> <ROCS_FitColorTversky>
0.622 

> <ROCS_FitTverskyCombo>
2.475 

> <ROCS_ColorScore>
-4.541

> <ROCS_Overlap>
1869.293

> <ROCS_Rank>
183                 

$$$$
untitled-dbase-232_4
  -OEChem-11112315393D

 28 28  0     0  0  0  0  0  0999 V2000
    7.9566    9.6132   24.3252 C   0  0  0  0  0  0  0  0  0  0  0  0
    7.1349   10.3735   25.1573 C   0  0  0  0  0  0  0  0  0  0  0  0
    8.2959   12.3784   24.4719 C   0  0  0  0  0  0  0  0  0  0  0  0
    8.9479   10.2355   23.5665 C   0  0  0  0  0  0  0  0  0  0  0  0
    9.1175   11.6181   23.6398 C   0  0  0  0  0  0  0  0  0  0  0  0
    7.3045   11.7560   25.2307 C   0  0  0  0  0  0  0  0  0  0  0  0
   10.7740   13.4239   23.2424 C   0  0  0  0  0  0  0  0  0  0  0  0
    9.8134    9.3960   22.6839 C   0  0  0  0  0  0  0  0  0  0  0  0
    7.1351   12.7416   27.8295 C   0  0  0  0  0  0  0  0  0  0  0  0
   11.7783   13.8344   22.1906 C   0  0  0  0  0  0  0  0  0  0  0  0
   10.1049   12.2595   22.8876 N   0  0  0  0  0  0  0  0  0  0  0  0
   10.6196   14.1093   24.2495 O   0  0  0  0  0  0  0  0  0  0  0  0
    6.2415   14.0657   25.7503 O   0  0  0  0  0  0  0  0  0  0  0  0
    5.0297   11.9854   26.4918 O   0  0  0  0  0  0  0  0  0  0  0  0
    6.2757   12.7071   26.2727 S   0  0  0  0  0  0  0  0  0  0  0  0
   11.3274   15.4466   21.6134 Cl  0  0  0  0  0  0  0  0  0  0  0  0
    7.8163    8.5366   24.2751 H   0  0  0  0  0  0  0  0  0  0  0  0
    6.3658    9.8785   25.7442 H   0  0  0  0  0  0  0  0  0  0  0  0
    8.4270   13.4566   24.5301 H   0  0  0  0  0  0  0  0  0  0  0  0
    9.3650    9.3060   21.6880 H   0  0  0  0  0  0  0  0  0  0  0  0
   10.8138    9.8331   22.5793 H   0  0  0  0  0  0  0  0  0  0  0  0
    9.9458    8.3902   23.1007 H   0  0  0  0  0  0  0  0  0  0  0  0
    6.5435   13.3253   28.5365 H   0  0  0  0  0  0  0  0  0  0  0  0
    7.2497   11.7156   28.1824 H   0  0  0  0  0  0  0  0  0  0  0  0
    8.1109   13.2041   27.6739 H   0  0  0  0  0  0  0  0  0  0  0  0
   11.8040   13.1493   21.3395 H   0  0  0  0  0  0  0  0  0  0  0  0
   12.7754   13.8806   22.6375 H   0  0  0  0  0  0  0  0  0  0  0  0
   10.3569   11.8346   21.9981 H   0  0  0  0  0  0  0  0  0  0  0  0
  1  2  2  0  0  0  0
  1  4  1  0  0  0  0
  2  6  1  0  0  0  0
  3  5  1  0  0  0  0
  3  6  2  0  0  0  0
  4  5  2  0  0  0  0
  4  8  1  0  0  0  0
  5 11  1  0  0  0  0
  6 15  1  0  0  0  0
  7 10  1  0  0  0  0
  7 11  1  0  0  0  0
  7 12  2  0  0  0  0
  9 15  1  0  0  0  0
 10 16  1  0  0  0  0
 13 15  2  0  0  0  0
 14 15  2  0  0  0  0
  1 17  1  0  0  0  0
  2 18  1  0  0  0  0
  3 19  1  0  0  0  0
  8 20  1  0  0  0  0
  8 21  1  0  0  0  0
  8 22  1  0  0  0  0
  9 23  1  0  0  0  0
  9 24  1  0  0  0  0
  9 25  1  0  0  0  0
 10 26  1  0  0  0  0
 10 27  1  0  0  0  0
 11 28  1  0  0  0  0
M  END
> <Catalog ID>
Z391881394

> <MW>
261.023

> <MW (desalted)>
261.725

> <ClogP>
0.626

> <logS>
-2.302

> <HBD>
1

> <HBA>
3

> <TPSA>
63.24

> <RotBonds>
3

> <ROCS_ShapeQuery>
A71EV2A-x0451_0A_A71EV2A-x0310_0A_A71EV2A-x0416_0A_peptide

> <ROCS_TanimotoCombo>
0.444 

> <ROCS_ShapeTanimoto>
0.306 

> <ROCS_ColorTanimoto>
0.138 

> <ROCS_RefTversky>
0.268 

> <ROCS_RefColorTversky>
0.147 

> <ROCS_RefTverskyCombo>
0.415 

> <ROCS_FitTversky>
1.870 

> <ROCS_FitColorTversky>
0.702 

> <ROCS_FitTverskyCombo>
2.572 

> <ROCS_ColorScore>
-4.450

> <ROCS_Overlap>
1857.792

> <ROCS_Rank>
184                 

$$$$
untitled-dbase-620_6
  -OEChem-11112315393D

 24 25  0     0  0  0  0  0  0999 V2000
    5.3999   12.3053   28.4239 C   0  0  0  0  0  0  0  0  0  0  0  0
    5.1723   11.0783   27.8009 C   0  0  0  0  0  0  0  0  0  0  0  0
    6.4045   13.1508   27.9532 C   0  0  0  0  0  0  0  0  0  0  0  0
    5.9495   10.6967   26.7072 C   0  0  0  0  0  0  0  0  0  0  0  0
    7.1817   12.7692   26.8596 C   0  0  0  0  0  0  0  0  0  0  0  0
    6.9541   11.5421   26.2365 C   0  0  0  0  0  0  0  0  0  0  0  0
    7.7570   11.1478   25.1051 C   0  0  0  0  0  0  0  0  0  0  0  0
    9.2649   11.3750   23.6593 C   0  0  0  0  0  0  0  0  0  0  0  0
   10.8515   13.2488   23.2927 C   0  0  0  0  0  0  0  0  0  0  0  0
   11.9595   13.6304   22.3387 C   0  0  0  0  0  0  0  0  0  0  0  0
    7.7211   10.0583   24.3741 N   0  0  0  0  0  0  0  0  0  0  0  0
    8.7133   10.2077   23.4230 N   0  0  0  0  0  0  0  0  0  0  0  0
   10.2931   11.9917   23.0002 N   0  0  0  0  0  0  0  0  0  0  0  0
   10.5175   14.0175   24.1902 O   0  0  0  0  0  0  0  0  0  0  0  0
    8.7124   12.0348   24.7138 O   0  0  0  0  0  0  0  0  0  0  0  0
   11.9755   15.3963   22.2082 Cl  0  0  0  0  0  0  0  0  0  0  0  0
    4.7944   12.6027   29.2751 H   0  0  0  0  0  0  0  0  0  0  0  0
    4.3901   10.4200   28.1677 H   0  0  0  0  0  0  0  0  0  0  0  0
    6.5810   14.1068   28.4377 H   0  0  0  0  0  0  0  0  0  0  0  0
    5.7580    9.7382   26.2308 H   0  0  0  0  0  0  0  0  0  0  0  0
    7.9616   13.4390   26.5053 H   0  0  0  0  0  0  0  0  0  0  0  0
   11.8250   13.2042   21.3414 H   0  0  0  0  0  0  0  0  0  0  0  0
   12.9188   13.2929   22.7411 H   0  0  0  0  0  0  0  0  0  0  0  0
   10.7020   11.4805   22.2046 H   0  0  0  0  0  0  0  0  0  0  0  0
  1  2  1  0  0  0  0
  1  3  2  0  0  0  0
  2  4  2  0  0  0  0
  3  5  1  0  0  0  0
  4  6  1  0  0  0  0
  5  6  2  0  0  0  0
  6  7  1  0  0  0  0
  7 11  2  0  0  0  0
  7 15  1  0  0  0  0
  8 12  2  0  0  0  0
  8 13  1  0  0  0  0
  8 15  1  0  0  0  0
  9 10  1  0  0  0  0
  9 13  1  0  0  0  0
  9 14  2  0  0  0  0
 10 16  1  0  0  0  0
 11 12  1  0  0  0  0
  1 17  1  0  0  0  0
  2 18  1  0  0  0  0
  3 19  1  0  0  0  0
  4 20  1  0  0  0  0
  5 21  1  0  0  0  0
 10 22  1  0  0  0  0
 10 23  1  0  0  0  0
 13 24  1  0  0  0  0
M  END
> <Catalog ID>
Z56887695

> <MW>
237.031

> <MW (desalted)>
237.642

> <ClogP>
1.566

> <logS>
-3.84

> <HBD>
1

> <HBA>
3

> <TPSA>
68.02

> <RotBonds>
3

> <ROCS_ShapeQuery>
A71EV2A-x0451_0A_A71EV2A-x0310_0A_A71EV2A-x0416_0A_peptide

> <ROCS_TanimotoCombo>
0.444 

> <ROCS_ShapeTanimoto>
0.277 

> <ROCS_ColorTanimoto>
0.167 

> <ROCS_RefTversky>
0.250 

> <ROCS_RefColorTversky>
0.179 

> <ROCS_RefTverskyCombo>
0.429 

> <ROCS_FitTversky>
1.653 

> <ROCS_FitColorTversky>
0.720 

> <ROCS_FitTverskyCombo>
2.372 

> <ROCS_ColorScore>
-5.445

> <ROCS_Overlap>
1731.008

> <ROCS_Rank>
185                 

$$$$
untitled-dbase-202_31
  -OEChem-11112315393D

 36 38  0     1  0  0  0  0  0999 V2000
    6.3900   10.6581   25.8901 C   0  0  0  0  0  0  0  0  0  0  0  0
    6.7135    9.4213   25.3430 C   0  0  0  0  0  0  0  0  0  0  0  0
    7.1029   11.8041   25.5262 C   0  0  0  0  0  0  0  0  0  0  0  0
    7.7550    9.2961   24.4201 C   0  0  0  0  0  0  0  0  0  0  0  0
    8.1601   11.7056   24.5958 C   0  0  0  0  0  0  0  0  0  0  0  0
    8.4669   10.4514   24.0593 C   0  0  0  0  0  0  0  0  0  0  0  0
    9.8338   12.2944   23.2847 C   0  0  0  0  0  0  0  0  0  0  0  0
   15.2072   11.3216   23.4562 C   0  0  0  0  0  0  0  0  0  0  0  0
   14.8711   12.1550   22.4694 C   0  0  0  0  0  0  0  0  0  0  0  0
   13.8908   13.2248   22.7425 C   0  0  0  0  0  0  0  0  0  0  0  0
   11.0738   14.3939   22.6691 C   0  0  0  0  0  0  0  0  0  0  0  0
   12.7103   14.3163   19.4668 C   0  0  0  0  0  0  0  0  0  0  0  0
   11.7167   15.0505   20.3586 C   0  0  0  0  0  0  0  0  0  0  0  0
   13.1482   13.1311   20.3092 C   0  0  0  0  0  0  0  0  0  0  0  0
   12.2127   14.7858   21.7788 C   0  0  2  0  0  0  0  0  0  0  0  0
    8.9516   12.7509   24.1427 N   0  0  0  0  0  0  0  0  0  0  0  0
   13.1017   13.6320   21.6795 N   0  0  0  0  0  0  0  0  0  0  0  0
   10.8237   13.0297   22.5906 N   0  0  0  0  0  0  0  0  0  0  0  0
   13.8154   13.6776   23.8845 O   0  0  0  0  0  0  0  0  0  0  0  0
   10.4921   15.2318   23.3505 O   0  0  0  0  0  0  0  0  0  0  0  0
    9.7860   10.6155   22.9611 S   0  0  0  0  0  0  0  0  0  0  0  0
    5.5765   10.7362   26.6060 H   0  0  0  0  0  0  0  0  0  0  0  0
    6.1501    8.5391   25.6364 H   0  0  0  0  0  0  0  0  0  0  0  0
    6.8422   12.7652   25.9605 H   0  0  0  0  0  0  0  0  0  0  0  0
    8.0012    8.3274   23.9960 H   0  0  0  0  0  0  0  0  0  0  0  0
   15.9212   10.5167   23.3169 H   0  0  0  0  0  0  0  0  0  0  0  0
   14.7632   11.4352   24.4395 H   0  0  0  0  0  0  0  0  0  0  0  0
   15.2924   12.0739   21.4760 H   0  0  0  0  0  0  0  0  0  0  0  0
   12.2122   13.9668   18.5536 H   0  0  0  0  0  0  0  0  0  0  0  0
   13.5508   14.9529   19.1717 H   0  0  0  0  0  0  0  0  0  0  0  0
   11.7582   16.1283   20.1472 H   0  0  0  0  0  0  0  0  0  0  0  0
   10.6888   14.7080   20.1849 H   0  0  0  0  0  0  0  0  0  0  0  0
   12.4915   12.2702   20.1877 H   0  0  0  0  0  0  0  0  0  0  0  0
   14.1780   12.8450   20.0872 H   0  0  0  0  0  0  0  0  0  0  0  0
   12.7232   15.6457   22.2203 H   0  0  0  0  0  0  0  0  0  0  0  0
   11.4140   12.4843   21.9659 H   0  0  0  0  0  0  0  0  0  0  0  0
  1  2  1  0  0  0  0
  1  3  2  0  0  0  0
  2  4  2  0  0  0  0
  3  5  1  0  0  0  0
  4  6  1  0  0  0  0
  5  6  2  0  0  0  0
  5 16  1  0  0  0  0
  6 21  1  0  0  0  0
  7 16  2  0  0  0  0
  7 18  1  0  0  0  0
  7 21  1  0  0  0  0
  8  9  2  0  0  0  0
  9 10  1  0  0  0  0
 10 17  1  0  0  0  0
 10 19  2  0  0  0  0
 11 15  1  0  0  0  0
 11 18  1  0  0  0  0
 11 20  2  0  0  0  0
 12 13  1  0  0  0  0
 12 14  1  0  0  0  0
 13 15  1  0  0  0  0
 14 17  1  0  0  0  0
 15 17  1  0  0  0  0
  1 22  1  0  0  0  0
  2 23  1  0  0  0  0
  3 24  1  0  0  0  0
  4 25  1  0  0  0  0
  8 26  1  0  0  0  0
  8 27  1  0  0  0  0
  9 28  1  0  0  0  0
 12 29  1  0  0  0  0
 12 30  1  0  0  0  0
 13 31  1  0  0  0  0
 13 32  1  0  0  0  0
 14 33  1  0  0  0  0
 14 34  1  0  0  0  0
 15 35  1  0  0  0  0
 18 36  1  0  0  0  0
M  END
> <Catalog ID>
Z2285377339

> <MW>
301.364

> <MW (desalted)>
301.364

> <ClogP>
2.451

> <logS>
-4.564

> <HBD>
1

> <HBA>
3

> <TPSA>
62.3

> <RotBonds>
3

> <ROCS_ShapeQuery>
A71EV2A-x0451_0A_A71EV2A-x0310_0A_A71EV2A-x0416_0A_peptide

> <ROCS_TanimotoCombo>
0.444 

> <ROCS_ShapeTanimoto>
0.302 

> <ROCS_ColorTanimoto>
0.142 

> <ROCS_RefTversky>
0.274 

> <ROCS_RefColorTversky>
0.162 

> <ROCS_RefTverskyCombo>
0.436 

> <ROCS_FitTversky>
1.508 

> <ROCS_FitColorTversky>
0.537 

> <ROCS_FitTverskyCombo>
2.045 

> <ROCS_ColorScore>
-4.937

> <ROCS_Overlap>
1901.630

> <ROCS_Rank>
186                 

$$$$
untitled-dbase-664_46
  -OEChem-11112315393D

 37 38  0     1  0  0  0  0  0999 V2000
    9.4496    9.3897   23.0700 C   0  0  0  0  0  0  0  0  0  0  0  0
    9.2482    8.0113   23.1513 C   0  0  0  0  0  0  0  0  0  0  0  0
    7.8350    8.3340   25.0734 C   0  0  0  0  0  0  0  0  0  0  0  0
    8.8551   10.2660   23.9960 C   0  0  0  0  0  0  0  0  0  0  0  0
    8.0132    9.7269   24.9987 C   0  0  0  0  0  0  0  0  0  0  0  0
    8.4459    7.4831   24.1551 C   0  0  0  0  0  0  0  0  0  0  0  0
   11.6799   13.6256   20.9861 C   0  0  0  0  0  0  0  0  0  0  0  0
   11.9420   13.5886   22.2961 C   0  0  0  0  0  0  0  0  0  0  0  0
   10.8426   13.3932   23.2785 C   0  0  0  0  0  0  0  0  0  0  0  0
    6.3747   12.8900   26.4687 C   0  0  0  0  0  0  0  0  0  0  0  0
    7.3276   10.5879   26.0423 C   0  0  0  0  0  0  0  0  0  0  0  0
    7.7719   12.4657   23.4143 C   0  0  0  0  0  0  0  0  0  0  0  0
    6.4957   12.0498   24.1557 C   0  0  0  0  0  0  0  0  0  0  0  0
    9.0527   11.7718   23.9164 C   0  0  2  0  0  0  0  0  0  0  0  0
    6.6466   12.6421   27.9327 C   0  0  0  0  0  0  0  0  0  0  0  0
    6.7291   11.8602   25.5887 N   0  0  0  0  0  0  0  0  0  0  0  0
   10.1805   12.1952   23.0775 N   0  0  0  0  0  0  0  0  0  0  0  0
   10.5800   14.2178   24.1481 O   0  0  0  0  0  0  0  0  0  0  0  0
    5.8741   13.9611   26.1174 O   0  0  0  0  0  0  0  0  0  0  0  0
    8.2564    6.1595   24.2367 F   0  0  0  0  0  0  0  0  0  0  0  0
   10.0777    9.7732   22.2718 H   0  0  0  0  0  0  0  0  0  0  0  0
    9.7181    7.3507   22.4270 H   0  0  0  0  0  0  0  0  0  0  0  0
    7.2146    7.8989   25.8518 H   0  0  0  0  0  0  0  0  0  0  0  0
   12.4871   13.7696   20.2755 H   0  0  0  0  0  0  0  0  0  0  0  0
   10.6774   13.5156   20.5873 H   0  0  0  0  0  0  0  0  0  0  0  0
   12.9597   13.7024   22.6536 H   0  0  0  0  0  0  0  0  0  0  0  0
    6.5405    9.9896   26.5630 H   0  0  0  0  0  0  0  0  0  0  0  0
    8.0473   10.8319   26.8617 H   0  0  0  0  0  0  0  0  0  0  0  0
    7.6369   12.2148   22.3639 H   0  0  0  0  0  0  0  0  0  0  0  0
    7.8903   13.5444   23.4748 H   0  0  0  0  0  0  0  0  0  0  0  0
    5.7328   12.8145   23.9913 H   0  0  0  0  0  0  0  0  0  0  0  0
    6.0848   11.1204   23.7462 H   0  0  0  0  0  0  0  0  0  0  0  0
    9.2433   12.1747   24.8938 H   0  0  0  0  0  0  0  0  0  0  0  0
    7.6444   12.9941   28.1726 H   0  0  0  0  0  0  0  0  0  0  0  0
    6.5702   11.5782   28.1329 H   0  0  0  0  0  0  0  0  0  0  0  0
    5.9117   13.1769   28.5255 H   0  0  0  0  0  0  0  0  0  0  0  0
   10.4472   11.5863   22.3103 H   0  0  0  0  0  0  0  0  0  0  0  0
  1  2  2  0  0  0  0
  1  4  1  0  0  0  0
  2  6  1  0  0  0  0
  3  5  1  0  0  0  0
  3  6  2  0  0  0  0
  4  5  2  0  0  0  0
  4 14  1  0  0  0  0
  5 11  1  0  0  0  0
  6 20  1  0  0  0  0
  7  8  2  0  0  0  0
  8  9  1  0  0  0  0
  9 17  1  0  0  0  0
  9 18  2  0  0  0  0
 10 15  1  0  0  0  0
 10 16  1  0  0  0  0
 10 19  2  0  0  0  0
 11 16  1  0  0  0  0
 12 13  1  0  0  0  0
 12 14  1  0  0  0  0
 13 16  1  0  0  0  0
 14 17  1  0  0  0  0
  1 21  1  0  0  0  0
  2 22  1  0  0  0  0
  3 23  1  0  0  0  0
  7 24  1  0  0  0  0
  7 25  1  0  0  0  0
  8 26  1  0  0  0  0
 11 27  1  0  0  0  0
 11 28  1  0  0  0  0
 12 29  1  0  0  0  0
 12 30  1  0  0  0  0
 13 31  1  0  0  0  0
 13 32  1  0  0  0  0
 14 33  1  0  0  0  0
 15 34  1  0  0  0  0
 15 35  1  0  0  0  0
 15 36  1  0  0  0  0
 17 37  1  0  0  0  0
M  END
> <Catalog ID>
Z2737383392

> <MW>
276.306

> <MW (desalted)>
276.306

> <ClogP>
-0.363

> <logS>
-3.21

> <HBD>
1

> <HBA>
2

> <TPSA>
49.41

> <RotBonds>
2

> <ROCS_ShapeQuery>
A71EV2A-x0451_0A_A71EV2A-x0310_0A_A71EV2A-x0416_0A_peptide

> <ROCS_TanimotoCombo>
0.444 

> <ROCS_ShapeTanimoto>
0.316 

> <ROCS_ColorTanimoto>
0.128 

> <ROCS_RefTversky>
0.281 

> <ROCS_RefColorTversky>
0.141 

> <ROCS_RefTverskyCombo>
0.422 

> <ROCS_FitTversky>
1.630 

> <ROCS_FitColorTversky>
0.587 

> <ROCS_FitTverskyCombo>
2.216 

> <ROCS_ColorScore>
-4.275

> <ROCS_Overlap>
1952.911

> <ROCS_Rank>
187                 

$$$$
untitled-dbase-502_6
  -OEChem-11112315393D

 48 51  0     0  0  0  0  0  0999 V2000
   14.8316   11.2228   28.9034 C   0  0  0  0  0  0  0  0  0  0  0  0
   15.4880   11.2297   27.7414 C   0  0  0  0  0  0  0  0  0  0  0  0
   15.3670   12.4127   26.8584 C   0  0  0  0  0  0  0  0  0  0  0  0
   10.6172   13.3713   24.2309 C   0  0  0  0  0  0  0  0  0  0  0  0
    7.0897   11.0112   25.0402 C   0  0  0  0  0  0  0  0  0  0  0  0
    7.7382   10.5415   22.6632 C   0  0  0  0  0  0  0  0  0  0  0  0
    8.9390    9.3916   24.5408 C   0  0  0  0  0  0  0  0  0  0  0  0
    8.2626   12.7688   23.6892 C   0  0  0  0  0  0  0  0  0  0  0  0
    9.4653   11.6167   25.5700 C   0  0  0  0  0  0  0  0  0  0  0  0
   10.1149   11.1476   23.1895 C   0  0  0  0  0  0  0  0  0  0  0  0
   13.6123   14.0754   26.1078 C   0  0  0  0  0  0  0  0  0  0  0  0
   13.0757   11.6715   26.3245 C   0  0  0  0  0  0  0  0  0  0  0  0
   12.9269   14.0999   24.7443 C   0  0  0  0  0  0  0  0  0  0  0  0
   12.3918   11.6995   24.9604 C   0  0  0  0  0  0  0  0  0  0  0  0
    7.2371   11.6229   23.6363 C   0  0  0  0  0  0  0  0  0  0  0  0
    8.4445   10.4663   25.5247 C   0  0  0  0  0  0  0  0  0  0  0  0
    9.0972    9.9946   23.1340 C   0  0  0  0  0  0  0  0  0  0  0  0
    9.6278   12.2351   24.1671 C   0  0  0  0  0  0  0  0  0  0  0  0
   14.0874   12.7232   26.4238 N   0  0  0  0  0  0  0  0  0  0  0  0
   11.9070   13.0518   24.6517 N   0  0  0  0  0  0  0  0  0  0  0  0
   16.4148   12.9917   26.6032 O   0  0  0  0  0  0  0  0  0  0  0  0
   10.2525   14.5077   23.9188 O   0  0  0  0  0  0  0  0  0  0  0  0
   14.8810   10.3858   29.5918 H   0  0  0  0  0  0  0  0  0  0  0  0
   14.2218   12.0735   29.1891 H   0  0  0  0  0  0  0  0  0  0  0  0
   16.1060   10.4008   27.4219 H   0  0  0  0  0  0  0  0  0  0  0  0
    6.7186   11.7687   25.7415 H   0  0  0  0  0  0  0  0  0  0  0  0
    6.3476   10.2039   25.0203 H   0  0  0  0  0  0  0  0  0  0  0  0
    7.0074    9.7258   22.6018 H   0  0  0  0  0  0  0  0  0  0  0  0
    7.8329   10.9609   21.6540 H   0  0  0  0  0  0  0  0  0  0  0  0
    9.8977    8.9830   24.8831 H   0  0  0  0  0  0  0  0  0  0  0  0
    8.2292    8.5557   24.5121 H   0  0  0  0  0  0  0  0  0  0  0  0
    8.3593   13.2309   22.6980 H   0  0  0  0  0  0  0  0  0  0  0  0
    7.9034   13.5589   24.3619 H   0  0  0  0  0  0  0  0  0  0  0  0
    9.1361   12.3786   26.2889 H   0  0  0  0  0  0  0  0  0  0  0  0
   10.4311   11.2459   25.9376 H   0  0  0  0  0  0  0  0  0  0  0  0
   11.0958   10.7650   23.5006 H   0  0  0  0  0  0  0  0  0  0  0  0
   10.2545   11.5705   22.1859 H   0  0  0  0  0  0  0  0  0  0  0  0
   14.4251   14.8025   26.0930 H   0  0  0  0  0  0  0  0  0  0  0  0
   12.9125   14.3706   26.8983 H   0  0  0  0  0  0  0  0  0  0  0  0
   12.3435   11.8468   27.1219 H   0  0  0  0  0  0  0  0  0  0  0  0
   13.5152   10.6841   26.4973 H   0  0  0  0  0  0  0  0  0  0  0  0
   12.4865   15.0867   24.5698 H   0  0  0  0  0  0  0  0  0  0  0  0
   13.6553   13.9193   23.9447 H   0  0  0  0  0  0  0  0  0  0  0  0
   13.1003   11.4210   24.1712 H   0  0  0  0  0  0  0  0  0  0  0  0
   11.5854   10.9642   24.9460 H   0  0  0  0  0  0  0  0  0  0  0  0
    6.2693   12.0073   23.2963 H   0  0  0  0  0  0  0  0  0  0  0  0
    8.3328   10.0306   26.5236 H   0  0  0  0  0  0  0  0  0  0  0  0
    9.4479    9.2246   22.4381 H   0  0  0  0  0  0  0  0  0  0  0  0
  1  2  2  0  0  0  0
  2  3  1  0  0  0  0
  3 19  1  0  0  0  0
  3 21  2  0  0  0  0
  4 18  1  0  0  0  0
  4 20  1  0  0  0  0
  4 22  2  0  0  0  0
  5 15  1  0  0  0  0
  5 16  1  0  0  0  0
  6 15  1  0  0  0  0
  6 17  1  0  0  0  0
  7 16  1  0  0  0  0
  7 17  1  0  0  0  0
  8 15  1  0  0  0  0
  8 18  1  0  0  0  0
  9 16  1  0  0  0  0
  9 18  1  0  0  0  0
 10 17  1  0  0  0  0
 10 18  1  0  0  0  0
 11 13  1  0  0  0  0
 11 19  1  0  0  0  0
 12 14  1  0  0  0  0
 12 19  1  0  0  0  0
 13 20  1  0  0  0  0
 14 20  1  0  0  0  0
  1 23  1  0  0  0  0
  1 24  1  0  0  0  0
  2 25  1  0  0  0  0
  5 26  1  0  0  0  0
  5 27  1  0  0  0  0
  6 28  1  0  0  0  0
  6 29  1  0  0  0  0
  7 30  1  0  0  0  0
  7 31  1  0  0  0  0
  8 32  1  0  0  0  0
  8 33  1  0  0  0  0
  9 34  1  0  0  0  0
  9 35  1  0  0  0  0
 10 36  1  0  0  0  0
 10 37  1  0  0  0  0
 11 38  1  0  0  0  0
 11 39  1  0  0  0  0
 12 40  1  0  0  0  0
 12 41  1  0  0  0  0
 13 42  1  0  0  0  0
 13 43  1  0  0  0  0
 14 44  1  0  0  0  0
 14 45  1  0  0  0  0
 15 46  1  0  0  0  0
 16 47  1  0  0  0  0
 17 48  1  0  0  0  0
M  END
> <Catalog ID>
Z2285377335

> <MW>
302.411

> <MW (desalted)>
302.411

> <ClogP>
2.172

> <logS>
-4.602

> <HBD>
0

> <HBA>
2

> <TPSA>
40.62

> <RotBonds>
2

> <ROCS_ShapeQuery>
A71EV2A-x0451_0A_A71EV2A-x0310_0A_A71EV2A-x0416_0A_peptide

> <ROCS_TanimotoCombo>
0.444 

> <ROCS_ShapeTanimoto>
0.265 

> <ROCS_ColorTanimoto>
0.178 

> <ROCS_RefTversky>
0.249 

> <ROCS_RefColorTversky>
0.208 

> <ROCS_RefTverskyCombo>
0.457 

> <ROCS_FitTversky>
1.320 

> <ROCS_FitColorTversky>
0.554 

> <ROCS_FitTverskyCombo>
1.874 

> <ROCS_ColorScore>
-6.385

> <ROCS_Overlap>
1730.653

> <ROCS_Rank>
188                 

$$$$
untitled-dbase-503_208
  -OEChem-11112315393D

 50 52  0     1  0  0  0  0  0999 V2000
    7.6267   11.9612   24.3469 C   0  0  0  0  0  0  0  0  0  0  0  0
   11.7300   15.6276   19.9843 C   0  0  0  0  0  0  0  0  0  0  0  0
   12.5406   15.6549   21.0442 C   0  0  0  0  0  0  0  0  0  0  0  0
   11.9494   15.5949   22.3957 C   0  0  0  0  0  0  0  0  0  0  0  0
    8.7561    9.2624   23.9876 C   0  0  0  0  0  0  0  0  0  0  0  0
    8.9277   10.3343   22.9104 C   0  0  0  0  0  0  0  0  0  0  0  0
    4.9863   11.0893   25.5466 C   0  0  0  0  0  0  0  0  0  0  0  0
    6.5725   12.1402   27.1835 C   0  0  0  0  0  0  0  0  0  0  0  0
    8.3720    9.8224   25.3481 C   0  0  0  0  0  0  0  0  0  0  0  0
   11.3615   13.1151   22.2120 C   0  0  0  0  0  0  0  0  0  0  0  0
    9.9783   14.6622   23.5361 C   0  0  0  0  0  0  0  0  0  0  0  0
   11.2290   12.0785   23.3308 C   0  0  0  0  0  0  0  0  0  0  0  0
    9.8706   13.5972   24.6292 C   0  0  0  0  0  0  0  0  0  0  0  0
    3.8916   11.2892   26.5869 C   0  0  0  0  0  0  0  0  0  0  0  0
    5.3893   12.2795   28.1329 C   0  0  0  0  0  0  0  0  0  0  0  0
    8.8175   11.7669   23.4213 C   0  0  2  0  0  0  0  0  0  0  0  0
    6.3549   10.9738   26.2185 C   0  0  0  0  0  0  0  0  0  0  0  0
    7.4074   10.9082   25.2355 N   0  0  0  0  0  0  0  0  0  0  0  0
   11.1868   14.4784   22.7301 N   0  0  0  0  0  0  0  0  0  0  0  0
   10.0082   12.2207   24.1355 N   0  0  0  0  0  0  0  0  0  0  0  0
    6.9813   13.0099   24.3266 O   0  0  0  0  0  0  0  0  0  0  0  0
   12.1651   16.5450   23.1510 O   0  0  0  0  0  0  0  0  0  0  0  0
    4.1707   12.4258   27.4042 O   0  0  0  0  0  0  0  0  0  0  0  0
   12.1048   15.6687   18.9670 H   0  0  0  0  0  0  0  0  0  0  0  0
   10.6559   15.5621   20.1221 H   0  0  0  0  0  0  0  0  0  0  0  0
   13.6165   15.7194   20.9473 H   0  0  0  0  0  0  0  0  0  0  0  0
    7.9957    8.5168   23.6571 H   0  0  0  0  0  0  0  0  0  0  0  0
    9.7006    8.6800   24.0812 H   0  0  0  0  0  0  0  0  0  0  0  0
    9.9135   10.1760   22.4027 H   0  0  0  0  0  0  0  0  0  0  0  0
    8.1733   10.1592   22.1034 H   0  0  0  0  0  0  0  0  0  0  0  0
    4.7923   10.1536   25.0135 H   0  0  0  0  0  0  0  0  0  0  0  0
    4.9711   11.8950   24.8097 H   0  0  0  0  0  0  0  0  0  0  0  0
    6.7500   13.0734   26.6474 H   0  0  0  0  0  0  0  0  0  0  0  0
    7.4667   11.9246   27.7745 H   0  0  0  0  0  0  0  0  0  0  0  0
    7.9446    9.0291   25.9558 H   0  0  0  0  0  0  0  0  0  0  0  0
    9.2508   10.2212   25.8502 H   0  0  0  0  0  0  0  0  0  0  0  0
   12.3563   13.0687   21.7580 H   0  0  0  0  0  0  0  0  0  0  0  0
   10.6264   12.8816   21.4428 H   0  0  0  0  0  0  0  0  0  0  0  0
    9.0842   14.6372   22.9090 H   0  0  0  0  0  0  0  0  0  0  0  0
   10.0390   15.6607   23.9810 H   0  0  0  0  0  0  0  0  0  0  0  0
   11.2901   11.0602   22.8924 H   0  0  0  0  0  0  0  0  0  0  0  0
   12.1158   12.1738   23.9884 H   0  0  0  0  0  0  0  0  0  0  0  0
   10.6634   13.8007   25.3802 H   0  0  0  0  0  0  0  0  0  0  0  0
    8.9089   13.7264   25.1747 H   0  0  0  0  0  0  0  0  0  0  0  0
    2.9060   11.4072   26.1204 H   0  0  0  0  0  0  0  0  0  0  0  0
    3.8397   10.4139   27.2430 H   0  0  0  0  0  0  0  0  0  0  0  0
    5.3010   11.3805   28.7506 H   0  0  0  0  0  0  0  0  0  0  0  0
    5.5138   13.1326   28.8095 H   0  0  0  0  0  0  0  0  0  0  0  0
    8.6270   12.4364   22.5588 H   0  0  0  0  0  0  0  0  0  0  0  0
    6.4055   10.0262   26.7766 H   0  0  0  0  0  0  0  0  0  0  0  0
  1 16  1  0  0  0  0
  1 18  1  0  0  0  0
  1 21  2  0  0  0  0
  2  3  2  0  0  0  0
  3  4  1  0  0  0  0
  4 19  1  0  0  0  0
  4 22  2  0  0  0  0
  5  6  1  0  0  0  0
  5  9  1  0  0  0  0
  6 16  1  0  0  0  0
  7 14  1  0  0  0  0
  7 17  1  0  0  0  0
  8 15  1  0  0  0  0
  8 17  1  0  0  0  0
  9 18  1  0  0  0  0
 10 12  1  0  0  0  0
 10 19  1  0  0  0  0
 11 13  1  0  0  0  0
 11 19  1  0  0  0  0
 12 20  1  0  0  0  0
 13 20  1  0  0  0  0
 14 23  1  0  0  0  0
 15 23  1  0  0  0  0
 16 20  1  0  0  0  0
 17 18  1  0  0  0  0
  2 24  1  0  0  0  0
  2 25  1  0  0  0  0
  3 26  1  0  0  0  0
  5 27  1  0  0  0  0
  5 28  1  0  0  0  0
  6 29  1  0  0  0  0
  6 30  1  0  0  0  0
  7 31  1  0  0  0  0
  7 32  1  0  0  0  0
  8 33  1  0  0  0  0
  8 34  1  0  0  0  0
  9 35  1  0  0  0  0
  9 36  1  0  0  0  0
 10 37  1  0  0  0  0
 10 38  1  0  0  0  0
 11 39  1  0  0  0  0
 11 40  1  0  0  0  0
 12 41  1  0  0  0  0
 12 42  1  0  0  0  0
 13 43  1  0  0  0  0
 13 44  1  0  0  0  0
 14 45  1  0  0  0  0
 14 46  1  0  0  0  0
 15 47  1  0  0  0  0
 15 48  1  0  0  0  0
 16 49  1  0  0  0  0
 17 50  1  0  0  0  0
M  END
> <Catalog ID>
Z2285377853

> <MW>
321.415

> <MW (desalted)>
321.415

> <ClogP>
0.114

> <logS>
-1.91

> <HBD>
0

> <HBA>
4

> <TPSA>
53.09

> <RotBonds>
3

> <ROCS_ShapeQuery>
A71EV2A-x0451_0A_A71EV2A-x0310_0A_A71EV2A-x0416_0A_peptide

> <ROCS_TanimotoCombo>
0.444 

> <ROCS_ShapeTanimoto>
0.352 

> <ROCS_ColorTanimoto>
0.092 

> <ROCS_RefTversky>
0.310 

> <ROCS_RefColorTversky>
0.109 

> <ROCS_RefTverskyCombo>
0.419 

> <ROCS_FitTversky>
1.621 

> <ROCS_FitColorTversky>
0.363 

> <ROCS_FitTverskyCombo>
1.985 

> <ROCS_ColorScore>
-3.338

> <ROCS_Overlap>
2153.157

> <ROCS_Rank>
189                 

$$$$
untitled-dbase-636_8
  -OEChem-11112315393D

 38 40  0     0  0  0  0  0  0999 V2000
    8.0170   12.1742   24.5722 C   0  0  0  0  0  0  0  0  0  0  0  0
    9.5433   10.8844   23.2142 C   0  0  0  0  0  0  0  0  0  0  0  0
    7.3130   11.0114   24.8853 C   0  0  0  0  0  0  0  0  0  0  0  0
    8.8393    9.7217   23.5273 C   0  0  0  0  0  0  0  0  0  0  0  0
    9.1321   12.1107   23.7366 C   0  0  0  0  0  0  0  0  0  0  0  0
    7.7242    9.7852   24.3629 C   0  0  0  0  0  0  0  0  0  0  0  0
    9.8607   13.3141   23.4122 C   0  0  0  0  0  0  0  0  0  0  0  0
   10.7855   14.9501   22.3045 C   0  0  0  0  0  0  0  0  0  0  0  0
    7.3171    7.3400   24.2280 C   0  0  0  0  0  0  0  0  0  0  0  0
   11.2179   15.8077   21.1729 C   0  0  0  0  0  0  0  0  0  0  0  0
   12.0785   15.0542   20.1600 C   0  0  0  0  0  0  0  0  0  0  0  0
   11.2871   14.1153   19.2452 C   0  0  0  0  0  0  0  0  0  0  0  0
   10.6749   12.8973   19.9415 C   0  0  0  0  0  0  0  0  0  0  0  0
    9.5585   13.2423   20.9235 C   0  0  0  0  0  0  0  0  0  0  0  0
    6.3427    6.3180   24.7661 C   0  0  0  0  0  0  0  0  0  0  0  0
   10.4498   14.0983   24.2857 N   0  0  0  0  0  0  0  0  0  0  0  0
   11.0350   15.1333   23.5863 N   0  0  0  0  0  0  0  0  0  0  0  0
   10.0447   13.8102   22.1595 N   0  0  0  0  0  0  0  0  0  0  0  0
    7.0201    8.6221   24.6760 N   0  0  0  0  0  0  0  0  0  0  0  0
    8.2218    6.9931   23.4735 O   0  0  0  0  0  0  0  0  0  0  0  0
    6.9846    5.7166   26.3029 Cl  0  0  0  0  0  0  0  0  0  0  0  0
    7.6842   13.1228   24.9870 H   0  0  0  0  0  0  0  0  0  0  0  0
   10.4106   10.8188   22.5615 H   0  0  0  0  0  0  0  0  0  0  0  0
    6.4451   11.0725   25.5369 H   0  0  0  0  0  0  0  0  0  0  0  0
    9.1693    8.7719   23.1138 H   0  0  0  0  0  0  0  0  0  0  0  0
   10.3439   16.2523   20.6828 H   0  0  0  0  0  0  0  0  0  0  0  0
   11.8066   16.6400   21.5780 H   0  0  0  0  0  0  0  0  0  0  0  0
   12.5748   15.7959   19.5213 H   0  0  0  0  0  0  0  0  0  0  0  0
   12.8742   14.4954   20.6683 H   0  0  0  0  0  0  0  0  0  0  0  0
   10.5017   14.6789   18.7268 H   0  0  0  0  0  0  0  0  0  0  0  0
   11.9692   13.7500   18.4669 H   0  0  0  0  0  0  0  0  0  0  0  0
   10.2538   12.2481   19.1638 H   0  0  0  0  0  0  0  0  0  0  0  0
   11.4621   12.3207   20.4427 H   0  0  0  0  0  0  0  0  0  0  0  0
    8.8531   13.9608   20.4900 H   0  0  0  0  0  0  0  0  0  0  0  0
    8.9932   12.3332   21.1516 H   0  0  0  0  0  0  0  0  0  0  0  0
    6.1991    5.4724   24.0887 H   0  0  0  0  0  0  0  0  0  0  0  0
    5.3755    6.7959   24.9450 H   0  0  0  0  0  0  0  0  0  0  0  0
    6.2136    8.7215   25.2898 H   0  0  0  0  0  0  0  0  0  0  0  0
  1  3  2  0  0  0  0
  1  5  1  0  0  0  0
  2  4  1  0  0  0  0
  2  5  2  0  0  0  0
  3  6  1  0  0  0  0
  4  6  2  0  0  0  0
  5  7  1  0  0  0  0
  6 19  1  0  0  0  0
  7 16  2  0  0  0  0
  7 18  1  0  0  0  0
  8 10  1  0  0  0  0
  8 17  2  0  0  0  0
  8 18  1  0  0  0  0
  9 15  1  0  0  0  0
  9 19  1  0  0  0  0
  9 20  2  0  0  0  0
 10 11  1  0  0  0  0
 11 12  1  0  0  0  0
 12 13  1  0  0  0  0
 13 14  1  0  0  0  0
 14 18  1  0  0  0  0
 15 21  1  0  0  0  0
 16 17  1  0  0  0  0
  1 22  1  0  0  0  0
  2 23  1  0  0  0  0
  3 24  1  0  0  0  0
  4 25  1  0  0  0  0
 10 26  1  0  0  0  0
 10 27  1  0  0  0  0
 11 28  1  0  0  0  0
 11 29  1  0  0  0  0
 12 30  1  0  0  0  0
 12 31  1  0  0  0  0
 13 32  1  0  0  0  0
 13 33  1  0  0  0  0
 14 34  1  0  0  0  0
 14 35  1  0  0  0  0
 15 36  1  0  0  0  0
 15 37  1  0  0  0  0
 19 38  1  0  0  0  0
M  END
> <Catalog ID>
Z211318958

> <MW>
304.109

> <MW (desalted)>
304.775

> <ClogP>
2.3

> <logS>
-3.57

> <HBD>
1

> <HBA>
3

> <TPSA>
59.81

> <RotBonds>
3

> <ROCS_ShapeQuery>
A71EV2A-x0451_0A_A71EV2A-x0310_0A_A71EV2A-x0416_0A_peptide

> <ROCS_TanimotoCombo>
0.443 

> <ROCS_ShapeTanimoto>
0.284 

> <ROCS_ColorTanimoto>
0.159 

> <ROCS_RefTversky>
0.261 

> <ROCS_RefColorTversky>
0.176 

> <ROCS_RefTverskyCombo>
0.437 

> <ROCS_FitTversky>
1.441 

> <ROCS_FitColorTversky>
0.628 

> <ROCS_FitTverskyCombo>
2.069 

> <ROCS_ColorScore>
-5.357

> <ROCS_Overlap>
1814.700

> <ROCS_Rank>
190                 

$$$$
untitled-dbase-685_150
  -OEChem-11112315393D

 23 23  0     0  0  0  0  0  0999 V2000
    7.2656   11.3036   24.3134 C   0  0  0  0  0  0  0  0  0  0  0  0
    7.7066    9.9803   24.3067 C   0  0  0  0  0  0  0  0  0  0  0  0
    8.1643   12.3395   24.0585 C   0  0  0  0  0  0  0  0  0  0  0  0
    9.0462    9.6929   24.0452 C   0  0  0  0  0  0  0  0  0  0  0  0
    9.5039   12.0521   23.7970 C   0  0  0  0  0  0  0  0  0  0  0  0
    9.9449   10.7288   23.7904 C   0  0  0  0  0  0  0  0  0  0  0  0
   10.4239   13.1885   23.5313 C   0  0  0  0  0  0  0  0  0  0  0  0
   13.0017   14.4291   22.7555 C   0  0  0  0  0  0  0  0  0  0  0  0
   13.8217   15.6063   22.2953 C   0  0  0  0  0  0  0  0  0  0  0  0
   11.0336   13.1880   22.2913 N   0  0  0  0  0  0  0  0  0  0  0  0
   11.8835   14.2194   21.9729 N   0  0  0  0  0  0  0  0  0  0  0  0
   10.5800   14.0509   24.3922 O   0  0  0  0  0  0  0  0  0  0  0  0
   13.3181   13.7612   23.7385 O   0  0  0  0  0  0  0  0  0  0  0  0
   11.5946   10.3300   23.4712 Cl  0  0  0  0  0  0  0  0  0  0  0  0
   13.5867   15.7845   20.5496 Cl  0  0  0  0  0  0  0  0  0  0  0  0
    6.2225   11.5272   24.5172 H   0  0  0  0  0  0  0  0  0  0  0  0
    7.0066    9.1739   24.5051 H   0  0  0  0  0  0  0  0  0  0  0  0
    7.8076   13.3665   24.0667 H   0  0  0  0  0  0  0  0  0  0  0  0
    9.3736    8.6563   24.0437 H   0  0  0  0  0  0  0  0  0  0  0  0
   13.4730   16.5120   22.7990 H   0  0  0  0  0  0  0  0  0  0  0  0
   14.8886   15.4751   22.4931 H   0  0  0  0  0  0  0  0  0  0  0  0
   10.8571   12.4406   21.6290 H   0  0  0  0  0  0  0  0  0  0  0  0
   11.6927   14.8172   21.1758 H   0  0  0  0  0  0  0  0  0  0  0  0
  1  2  1  0  0  0  0
  1  3  2  0  0  0  0
  2  4  2  0  0  0  0
  3  5  1  0  0  0  0
  4  6  1  0  0  0  0
  5  6  2  0  0  0  0
  5  7  1  0  0  0  0
  6 14  1  0  0  0  0
  7 10  1  0  0  0  0
  7 12  2  0  0  0  0
  8  9  1  0  0  0  0
  8 11  1  0  0  0  0
  8 13  2  0  0  0  0
  9 15  1  0  0  0  0
 10 11  1  0  0  0  0
  1 16  1  0  0  0  0
  2 17  1  0  0  0  0
  3 18  1  0  0  0  0
  4 19  1  0  0  0  0
  9 20  1  0  0  0  0
  9 21  1  0  0  0  0
 10 22  1  0  0  0  0
 11 23  1  0  0  0  0
M  END
> <Catalog ID>
Z90661300

> <MW>
245.996

> <MW (desalted)>
247.078

> <ClogP>
1.009

> <logS>
-3.39

> <HBD>
2

> <HBA>
2

> <TPSA>
58.2

> <RotBonds>
3

> <ROCS_ShapeQuery>
A71EV2A-x0451_0A_A71EV2A-x0310_0A_A71EV2A-x0416_0A_peptide

> <ROCS_TanimotoCombo>
0.443 

> <ROCS_ShapeTanimoto>
0.266 

> <ROCS_ColorTanimoto>
0.178 

> <ROCS_RefTversky>
0.239 

> <ROCS_RefColorTversky>
0.184 

> <ROCS_RefTverskyCombo>
0.423 

> <ROCS_FitTversky>
1.715 

> <ROCS_FitColorTversky>
0.843 

> <ROCS_FitTverskyCombo>
2.558 

> <ROCS_ColorScore>
-5.581

> <ROCS_Overlap>
1656.903

> <ROCS_Rank>
191                 

$$$$
untitled-dbase-843_4
  -OEChem-11112315393D

 30 31  0     0  0  0  0  0  0999 V2000
    7.7787   13.2404   25.0550 C   0  0  0  0  0  0  0  0  0  0  0  0
    6.6461   13.2191   25.8759 C   0  0  0  0  0  0  0  0  0  0  0  0
    6.4528   10.8515   25.5475 C   0  0  0  0  0  0  0  0  0  0  0  0
    7.5977   10.8571   24.7293 C   0  0  0  0  0  0  0  0  0  0  0  0
    8.2881   12.0652   24.4743 C   0  0  0  0  0  0  0  0  0  0  0  0
    5.9848   12.0254   26.1257 C   0  0  0  0  0  0  0  0  0  0  0  0
   10.3038   13.1866   23.4956 C   0  0  0  0  0  0  0  0  0  0  0  0
    8.0171    9.5471   24.1148 C   0  0  0  0  0  0  0  0  0  0  0  0
    9.4647    9.5890   23.6678 C   0  0  0  0  0  0  0  0  0  0  0  0
    9.7021   10.8397   22.8403 C   0  0  0  0  0  0  0  0  0  0  0  0
    4.4829   13.2433   27.5101 C   0  0  0  0  0  0  0  0  0  0  0  0
   11.0073   13.3502   22.1663 C   0  0  0  0  0  0  0  0  0  0  0  0
    9.4507   12.0730   23.6092 N   0  0  0  0  0  0  0  0  0  0  0  0
   10.5348   14.0151   24.3788 O   0  0  0  0  0  0  0  0  0  0  0  0
    4.8966   12.0016   26.9403 O   0  0  0  0  0  0  0  0  0  0  0  0
   11.2165   15.0792   21.9222 Cl  0  0  0  0  0  0  0  0  0  0  0  0
    8.2569   14.2054   24.9290 H   0  0  0  0  0  0  0  0  0  0  0  0
    6.2969   14.1439   26.3281 H   0  0  0  0  0  0  0  0  0  0  0  0
    5.9253    9.9182   25.7338 H   0  0  0  0  0  0  0  0  0  0  0  0
    7.8770    8.7536   24.8591 H   0  0  0  0  0  0  0  0  0  0  0  0
    7.3855    9.3112   23.2500 H   0  0  0  0  0  0  0  0  0  0  0  0
   10.1237    9.5837   24.5432 H   0  0  0  0  0  0  0  0  0  0  0  0
    9.7111    8.6990   23.0748 H   0  0  0  0  0  0  0  0  0  0  0  0
   10.7348   10.8854   22.4731 H   0  0  0  0  0  0  0  0  0  0  0  0
    9.0453   10.7897   21.9680 H   0  0  0  0  0  0  0  0  0  0  0  0
    3.6038   13.0817   28.1387 H   0  0  0  0  0  0  0  0  0  0  0  0
    4.2479   13.9514   26.7115 H   0  0  0  0  0  0  0  0  0  0  0  0
    5.2962   13.6426   28.1208 H   0  0  0  0  0  0  0  0  0  0  0  0
   10.3791   12.9351   21.3886 H   0  0  0  0  0  0  0  0  0  0  0  0
   11.9705   12.8598   22.2215 H   0  0  0  0  0  0  0  0  0  0  0  0
  1  2  2  0  0  0  0
  1  5  1  0  0  0  0
  2  6  1  0  0  0  0
  3  4  1  0  0  0  0
  3  6  2  0  0  0  0
  4  5  2  0  0  0  0
  4  8  1  0  0  0  0
  5 13  1  0  0  0  0
  6 15  1  0  0  0  0
  7 12  1  0  0  0  0
  7 13  1  0  0  0  0
  7 14  2  0  0  0  0
  8  9  1  0  0  0  0
  9 10  1  0  0  0  0
 10 13  1  0  0  0  0
 11 15  1  0  0  0  0
 12 16  1  0  0  0  0
  1 17  1  0  0  0  0
  2 18  1  0  0  0  0
  3 19  1  0  0  0  0
  8 20  1  0  0  0  0
  8 21  1  0  0  0  0
  9 22  1  0  0  0  0
  9 23  1  0  0  0  0
 10 24  1  0  0  0  0
 10 25  1  0  0  0  0
 11 26  1  0  0  0  0
 11 27  1  0  0  0  0
 11 28  1  0  0  0  0
 12 29  1  0  0  0  0
 12 30  1  0  0  0  0
M  END
> <Catalog ID>
Z199424120

> <MW>
239.071

> <MW (desalted)>
239.698

> <ClogP>
2.303

> <logS>
-2.9

> <HBD>
0

> <HBA>
2

> <TPSA>
29.54

> <RotBonds>
2

> <ROCS_ShapeQuery>
A71EV2A-x0451_0A_A71EV2A-x0310_0A_A71EV2A-x0416_0A_peptide

> <ROCS_TanimotoCombo>
0.443 

> <ROCS_ShapeTanimoto>
0.309 

> <ROCS_ColorTanimoto>
0.134 

> <ROCS_RefTversky>
0.271 

> <ROCS_RefColorTversky>
0.139 

> <ROCS_RefTverskyCombo>
0.410 

> <ROCS_FitTversky>
1.827 

> <ROCS_FitColorTversky>
0.784 

> <ROCS_FitTverskyCombo>
2.612 

> <ROCS_ColorScore>
-4.228

> <ROCS_Overlap>
1878.439

> <ROCS_Rank>
192                 

$$$$
untitled-dbase-711_143
  -OEChem-11112315393D

 33 34  0     1  0  0  0  0  0999 V2000
    8.5688   10.1954   23.7479 C   0  0  0  0  0  0  0  0  0  0  0  0
    7.4755   10.1360   24.6636 C   0  0  0  0  0  0  0  0  0  0  0  0
    7.3490   11.3144   25.3735 C   0  0  0  0  0  0  0  0  0  0  0  0
    9.2274   11.4049   23.8023 C   0  0  0  0  0  0  0  0  0  0  0  0
    8.9671    9.1389   22.8513 C   0  0  0  0  0  0  0  0  0  0  0  0
   10.9107   13.1413   23.2417 C   0  0  0  0  0  0  0  0  0  0  0  0
    6.5366    8.9867   24.8546 C   0  0  0  0  0  0  0  0  0  0  0  0
    6.3231   11.5774   26.4322 C   0  0  0  0  0  0  0  0  0  0  0  0
    5.7372    9.1128   26.1615 C   0  0  0  0  0  0  0  0  0  0  0  0
    5.1798   10.5402   26.3537 C   0  0  1  0  0  0  0  0  0  0  0  0
    4.3035   10.6167   27.6021 C   0  0  0  0  0  0  0  0  0  0  0  0
   12.0902   13.3245   22.3151 C   0  0  0  0  0  0  0  0  0  0  0  0
    8.2333    7.9494   22.8655 N   0  0  0  0  0  0  0  0  0  0  0  0
   10.3094   11.8774   23.1096 N   0  0  0  0  0  0  0  0  0  0  0  0
    9.9488    9.2565   22.0863 O   0  0  0  0  0  0  0  0  0  0  0  0
   10.5631   14.0537   23.9866 O   0  0  0  0  0  0  0  0  0  0  0  0
    8.5305   12.4658   24.9517 S   0  0  0  0  0  0  0  0  0  0  0  0
   12.2013   15.0462   21.9161 Cl  0  0  0  0  0  0  0  0  0  0  0  0
    5.8415    8.9587   24.0062 H   0  0  0  0  0  0  0  0  0  0  0  0
    7.0860    8.0385   24.8594 H   0  0  0  0  0  0  0  0  0  0  0  0
    6.8121   11.5223   27.4136 H   0  0  0  0  0  0  0  0  0  0  0  0
    5.9076   12.5868   26.3281 H   0  0  0  0  0  0  0  0  0  0  0  0
    4.9206    8.3811   26.1540 H   0  0  0  0  0  0  0  0  0  0  0  0
    6.3860    8.8583   27.0102 H   0  0  0  0  0  0  0  0  0  0  0  0
    4.5519   10.7790   25.4838 H   0  0  0  0  0  0  0  0  0  0  0  0
    4.8973   10.3847   28.4848 H   0  0  0  0  0  0  0  0  0  0  0  0
    3.4864    9.9014   27.5240 H   0  0  0  0  0  0  0  0  0  0  0  0
    3.8914   11.6195   27.7030 H   0  0  0  0  0  0  0  0  0  0  0  0
   11.9934   12.7532   21.3885 H   0  0  0  0  0  0  0  0  0  0  0  0
   13.0064   13.0162   22.8266 H   0  0  0  0  0  0  0  0  0  0  0  0
    8.5021    7.1975   22.2401 H   0  0  0  0  0  0  0  0  0  0  0  0
    7.4393    7.8162   23.4835 H   0  0  0  0  0  0  0  0  0  0  0  0
   10.7275   11.2389   22.4179 H   0  0  0  0  0  0  0  0  0  0  0  0
  1  2  1  0  0  0  0
  1  4  2  0  0  0  0
  1  5  1  0  0  0  0
  2  3  2  0  0  0  0
  2  7  1  0  0  0  0
  3  8  1  0  0  0  0
  3 17  1  0  0  0  0
  4 14  1  0  0  0  0
  4 17  1  0  0  0  0
  5 13  1  0  0  0  0
  5 15  2  0  0  0  0
  6 12  1  0  0  0  0
  6 14  1  0  0  0  0
  6 16  2  0  0  0  0
  7  9  1  0  0  0  0
  8 10  1  0  0  0  0
  9 10  1  0  0  0  0
 10 11  1  0  0  0  0
 12 18  1  0  0  0  0
  7 19  1  0  0  0  0
  7 20  1  0  0  0  0
  8 21  1  0  0  0  0
  8 22  1  0  0  0  0
  9 23  1  0  0  0  0
  9 24  1  0  0  0  0
 10 25  1  0  0  0  0
 11 26  1  0  0  0  0
 11 27  1  0  0  0  0
 11 28  1  0  0  0  0
 12 29  1  0  0  0  0
 12 30  1  0  0  0  0
 13 31  1  0  0  0  0
 13 32  1  0  0  0  0
 14 33  1  0  0  0  0
M  END
> <Catalog ID>
Z56886529

> <MW>
286.054

> <MW (desalted)>
286.778

> <ClogP>
2.817

> <logS>
-4.4

> <HBD>
2

> <HBA>
2

> <TPSA>
72.19

> <RotBonds>
3

> <ROCS_ShapeQuery>
A71EV2A-x0451_0A_A71EV2A-x0310_0A_A71EV2A-x0416_0A_peptide

> <ROCS_TanimotoCombo>
0.443 

> <ROCS_ShapeTanimoto>
0.304 

> <ROCS_ColorTanimoto>
0.139 

> <ROCS_RefTversky>
0.270 

> <ROCS_RefColorTversky>
0.151 

> <ROCS_RefTverskyCombo>
0.421 

> <ROCS_FitTversky>
1.720 

> <ROCS_FitColorTversky>
0.631 

> <ROCS_FitTverskyCombo>
2.351 

> <ROCS_ColorScore>
-4.606

> <ROCS_Overlap>
1870.467

> <ROCS_Rank>
193                 

$$$$
untitled-dbase-518_65
  -OEChem-11112315393D

 34 35  0     0  0  0  0  0  0999 V2000
   10.2095    9.2065   23.0813 C   0  0  0  0  0  0  0  0  0  0  0  0
    7.4213   16.1367   24.3681 C   0  0  0  0  0  0  0  0  0  0  0  0
    7.6428   15.3987   25.5307 C   0  0  0  0  0  0  0  0  0  0  0  0
    7.4848   15.5119   23.1226 C   0  0  0  0  0  0  0  0  0  0  0  0
    7.9280   14.0358   25.4480 C   0  0  0  0  0  0  0  0  0  0  0  0
    7.7700   14.1490   23.0398 C   0  0  0  0  0  0  0  0  0  0  0  0
    9.2777   10.1437   23.6171 C   0  0  0  0  0  0  0  0  0  0  0  0
    8.1242    9.8602   24.3892 C   0  0  0  0  0  0  0  0  0  0  0  0
    7.9916   13.4109   24.2025 C   0  0  0  0  0  0  0  0  0  0  0  0
    7.5227   11.0631   24.6869 C   0  0  0  0  0  0  0  0  0  0  0  0
    9.3460   11.5112   23.4666 C   0  0  0  0  0  0  0  0  0  0  0  0
   10.6663   13.5842   23.1170 C   0  0  0  0  0  0  0  0  0  0  0  0
    7.6461    8.5240   24.8038 C   0  0  0  0  0  0  0  0  0  0  0  0
    6.2933   11.3369   25.4653 C   0  0  0  0  0  0  0  0  0  0  0  0
   11.0931   14.3693   21.8984 C   0  0  0  0  0  0  0  0  0  0  0  0
   10.9677    8.4438   22.6453 N   0  0  0  0  0  0  0  0  0  0  0  0
    8.2742   12.0597   24.1213 N   0  0  0  0  0  0  0  0  0  0  0  0
   10.2752   12.2749   22.8012 N   0  0  0  0  0  0  0  0  0  0  0  0
   10.6702   14.1136   24.2251 O   0  0  0  0  0  0  0  0  0  0  0  0
   12.3125   15.5454   22.4135 Cl  0  0  0  0  0  0  0  0  0  0  0  0
    7.1975   17.1975   24.4320 H   0  0  0  0  0  0  0  0  0  0  0  0
    7.5921   15.8847   26.5006 H   0  0  0  0  0  0  0  0  0  0  0  0
    7.3108   16.0870   22.2177 H   0  0  0  0  0  0  0  0  0  0  0  0
    8.0978   13.4720   26.3620 H   0  0  0  0  0  0  0  0  0  0  0  0
    7.8158   13.6743   22.0626 H   0  0  0  0  0  0  0  0  0  0  0  0
    8.0778    8.2338   25.7747 H   0  0  0  0  0  0  0  0  0  0  0  0
    6.5483    8.4914   24.8997 H   0  0  0  0  0  0  0  0  0  0  0  0
    7.9131    7.7457   24.0698 H   0  0  0  0  0  0  0  0  0  0  0  0
    6.5266   11.4764   26.5319 H   0  0  0  0  0  0  0  0  0  0  0  0
    5.7772   12.2430   25.1099 H   0  0  0  0  0  0  0  0  0  0  0  0
    5.5648   10.5144   25.3824 H   0  0  0  0  0  0  0  0  0  0  0  0
   10.2642   14.9038   21.4275 H   0  0  0  0  0  0  0  0  0  0  0  0
   11.5380   13.6906   21.1653 H   0  0  0  0  0  0  0  0  0  0  0  0
   10.7304   11.8417   21.9883 H   0  0  0  0  0  0  0  0  0  0  0  0
  1  7  1  0  0  0  0
  1 16  3  0  0  0  0
  2  3  1  0  0  0  0
  2  4  2  0  0  0  0
  3  5  2  0  0  0  0
  4  6  1  0  0  0  0
  5  9  1  0  0  0  0
  6  9  2  0  0  0  0
  7  8  1  0  0  0  0
  7 11  2  0  0  0  0
  8 10  2  0  0  0  0
  8 13  1  0  0  0  0
  9 17  1  0  0  0  0
 10 14  1  0  0  0  0
 10 17  1  0  0  0  0
 11 17  1  0  0  0  0
 11 18  1  0  0  0  0
 12 15  1  0  0  0  0
 12 18  1  0  0  0  0
 12 19  2  0  0  0  0
 15 20  1  0  0  0  0
  2 21  1  0  0  0  0
  3 22  1  0  0  0  0
  4 23  1  0  0  0  0
  5 24  1  0  0  0  0
  6 25  1  0  0  0  0
 13 26  1  0  0  0  0
 13 27  1  0  0  0  0
 13 28  1  0  0  0  0
 14 29  1  0  0  0  0
 14 30  1  0  0  0  0
 14 31  1  0  0  0  0
 15 32  1  0  0  0  0
 15 33  1  0  0  0  0
 18 34  1  0  0  0  0
M  END
> <Catalog ID>
Z220323540

> <MW>
287.083

> <MW (desalted)>
287.744

> <ClogP>
3.482

> <logS>
-3.7

> <HBD>
1

> <HBA>
2

> <TPSA>
57.82

> <RotBonds>
3

> <ROCS_ShapeQuery>
A71EV2A-x0451_0A_A71EV2A-x0310_0A_A71EV2A-x0416_0A_peptide

> <ROCS_TanimotoCombo>
0.443 

> <ROCS_ShapeTanimoto>
0.308 

> <ROCS_ColorTanimoto>
0.134 

> <ROCS_RefTversky>
0.277 

> <ROCS_RefColorTversky>
0.143 

> <ROCS_RefTverskyCombo>
0.420 

> <ROCS_FitTversky>
1.583 

> <ROCS_FitColorTversky>
0.686 

> <ROCS_FitTverskyCombo>
2.270 

> <ROCS_ColorScore>
-4.349

> <ROCS_Overlap>
1921.911

> <ROCS_Rank>
194                 

$$$$
untitled-dbase-873_165
  -OEChem-11112315393D

 24 24  0     0  0  0  0  0  0999 V2000
    5.0252   11.1416   26.5856 C   0  0  0  0  0  0  0  0  0  0  0  0
    8.2457   12.3930   24.3723 C   0  0  0  0  0  0  0  0  0  0  0  0
    7.1906   11.8176   25.0805 C   0  0  0  0  0  0  0  0  0  0  0  0
    7.8942    9.6256   24.3478 C   0  0  0  0  0  0  0  0  0  0  0  0
    8.9493   10.2009   23.6396 C   0  0  0  0  0  0  0  0  0  0  0  0
    9.1250   11.5846   23.6518 C   0  0  0  0  0  0  0  0  0  0  0  0
    7.0149   10.4339   25.0683 C   0  0  0  0  0  0  0  0  0  0  0  0
   10.8228   13.3595   23.2913 C   0  0  0  0  0  0  0  0  0  0  0  0
    9.8758    9.3116   22.8761 C   0  0  0  0  0  0  0  0  0  0  0  0
   11.9116   13.7078   22.3030 C   0  0  0  0  0  0  0  0  0  0  0  0
    4.5839   12.1288   27.0059 N   0  0  0  0  0  0  0  0  0  0  0  0
   10.1746   12.1798   22.9478 N   0  0  0  0  0  0  0  0  0  0  0  0
   10.5938   14.0998   24.2439 O   0  0  0  0  0  0  0  0  0  0  0  0
    5.6670    9.6996   25.9734 S   0  0  0  0  0  0  0  0  0  0  0  0
   12.6665   15.2167   22.8407 Cl  0  0  0  0  0  0  0  0  0  0  0  0
    8.3720   13.4727   24.3889 H   0  0  0  0  0  0  0  0  0  0  0  0
    6.5154   12.4642   25.6356 H   0  0  0  0  0  0  0  0  0  0  0  0
    7.7644    8.5455   24.3324 H   0  0  0  0  0  0  0  0  0  0  0  0
    9.5086    9.1700   21.8533 H   0  0  0  0  0  0  0  0  0  0  0  0
   10.8852    9.7380   22.8298 H   0  0  0  0  0  0  0  0  0  0  0  0
    9.9655    8.3290   23.3552 H   0  0  0  0  0  0  0  0  0  0  0  0
   11.5329   13.8452   21.2870 H   0  0  0  0  0  0  0  0  0  0  0  0
   12.6641   12.9143   22.2956 H   0  0  0  0  0  0  0  0  0  0  0  0
   10.4936   11.7057   22.1059 H   0  0  0  0  0  0  0  0  0  0  0  0
  1 11  3  0  0  0  0
  1 14  1  0  0  0  0
  2  3  2  0  0  0  0
  2  6  1  0  0  0  0
  3  7  1  0  0  0  0
  4  5  1  0  0  0  0
  4  7  2  0  0  0  0
  5  6  2  0  0  0  0
  5  9  1  0  0  0  0
  6 12  1  0  0  0  0
  7 14  1  0  0  0  0
  8 10  1  0  0  0  0
  8 12  1  0  0  0  0
  8 13  2  0  0  0  0
 10 15  1  0  0  0  0
  2 16  1  0  0  0  0
  3 17  1  0  0  0  0
  4 18  1  0  0  0  0
  9 19  1  0  0  0  0
  9 20  1  0  0  0  0
  9 21  1  0  0  0  0
 10 22  1  0  0  0  0
 10 23  1  0  0  0  0
 12 24  1  0  0  0  0
M  END
> <Catalog ID>
Z56948417

> <MW>
240.012

> <MW (desalted)>
240.709

> <ClogP>
2.036

> <logS>
-3.7

> <HBD>
1

> <HBA>
2

> <TPSA>
52.89

> <RotBonds>
3

> <ROCS_ShapeQuery>
A71EV2A-x0451_0A_A71EV2A-x0310_0A_A71EV2A-x0416_0A_peptide

> <ROCS_TanimotoCombo>
0.442 

> <ROCS_ShapeTanimoto>
0.289 

> <ROCS_ColorTanimoto>
0.153 

> <ROCS_RefTversky>
0.255 

> <ROCS_RefColorTversky>
0.156 

> <ROCS_RefTverskyCombo>
0.412 

> <ROCS_FitTversky>
1.854 

> <ROCS_FitColorTversky>
0.881 

> <ROCS_FitTverskyCombo>
2.735 

> <ROCS_ColorScore>
-4.744

> <ROCS_Overlap>
1767.461

> <ROCS_Rank>
195                 

$$$$
untitled-dbase-562_93
  -OEChem-11112315393D

 21 21  0     0  0  0  0  0  0999 V2000
    5.0383   11.1452   26.5767 C   0  0  0  0  0  0  0  0  0  0  0  0
    8.2612   12.3884   24.3622 C   0  0  0  0  0  0  0  0  0  0  0  0
    7.2043   11.8159   25.0698 C   0  0  0  0  0  0  0  0  0  0  0  0
    7.9014    9.6221   24.3361 C   0  0  0  0  0  0  0  0  0  0  0  0
    9.1382   11.5778   23.6415 C   0  0  0  0  0  0  0  0  0  0  0  0
    7.0244   10.4328   25.0568 C   0  0  0  0  0  0  0  0  0  0  0  0
    8.9583   10.1947   23.6285 C   0  0  0  0  0  0  0  0  0  0  0  0
   10.8262   13.3645   23.2934 C   0  0  0  0  0  0  0  0  0  0  0  0
   11.9137   13.7252   22.3082 C   0  0  0  0  0  0  0  0  0  0  0  0
    4.6005   12.1335   26.9982 N   0  0  0  0  0  0  0  0  0  0  0  0
   10.1858   12.1839   22.9414 N   0  0  0  0  0  0  0  0  0  0  0  0
   10.5923   14.0975   24.2505 O   0  0  0  0  0  0  0  0  0  0  0  0
    5.6750    9.7016   25.9630 S   0  0  0  0  0  0  0  0  0  0  0  0
   10.0204    9.1543   22.7479 Cl  0  0  0  0  0  0  0  0  0  0  0  0
   11.1873   14.7346   21.0476 Cl  0  0  0  0  0  0  0  0  0  0  0  0
    8.3908   13.4675   24.3799 H   0  0  0  0  0  0  0  0  0  0  0  0
    6.5314   12.4643   25.6258 H   0  0  0  0  0  0  0  0  0  0  0  0
    7.7635    8.5426   24.3248 H   0  0  0  0  0  0  0  0  0  0  0  0
   12.3684   12.8486   21.8399 H   0  0  0  0  0  0  0  0  0  0  0  0
   12.6932   14.2972   22.8194 H   0  0  0  0  0  0  0  0  0  0  0  0
   10.5082   11.7174   22.0972 H   0  0  0  0  0  0  0  0  0  0  0  0
  1 10  3  0  0  0  0
  1 13  1  0  0  0  0
  2  3  2  0  0  0  0
  2  5  1  0  0  0  0
  3  6  1  0  0  0  0
  4  6  2  0  0  0  0
  4  7  1  0  0  0  0
  5  7  2  0  0  0  0
  5 11  1  0  0  0  0
  6 13  1  0  0  0  0
  7 14  1  0  0  0  0
  8  9  1  0  0  0  0
  8 11  1  0  0  0  0
  8 12  2  0  0  0  0
  9 15  1  0  0  0  0
  2 16  1  0  0  0  0
  3 17  1  0  0  0  0
  4 18  1  0  0  0  0
  9 19  1  0  0  0  0
  9 20  1  0  0  0  0
 11 21  1  0  0  0  0
M  END
> <Catalog ID>
Z56941040

> <MW>
259.958

> <MW (desalted)>
261.128

> <ClogP>
2.308

> <logS>
-4.17

> <HBD>
1

> <HBA>
2

> <TPSA>
52.89

> <RotBonds>
3

> <ROCS_ShapeQuery>
A71EV2A-x0451_0A_A71EV2A-x0310_0A_A71EV2A-x0416_0A_peptide

> <ROCS_TanimotoCombo>
0.442 

> <ROCS_ShapeTanimoto>
0.289 

> <ROCS_ColorTanimoto>
0.153 

> <ROCS_RefTversky>
0.255 

> <ROCS_RefColorTversky>
0.156 

> <ROCS_RefTverskyCombo>
0.411 

> <ROCS_FitTversky>
1.865 

> <ROCS_FitColorTversky>
0.880 

> <ROCS_FitTverskyCombo>
2.746 

> <ROCS_ColorScore>
-4.740

> <ROCS_Overlap>
1766.083

> <ROCS_Rank>
196                 

$$$$
untitled-dbase-439_16
  -OEChem-11112315393D

 22 22  0     0  0  0  0  0  0999 V2000
    9.3344   11.4522   23.4981 C   0  0  0  0  0  0  0  0  0  0  0  0
    8.3219   11.8829   24.3762 C   0  0  0  0  0  0  0  0  0  0  0  0
    9.1935   10.0867   23.4549 C   0  0  0  0  0  0  0  0  0  0  0  0
   10.8258   13.4195   23.2368 C   0  0  0  0  0  0  0  0  0  0  0  0
    8.0108   13.2627   24.7909 C   0  0  0  0  0  0  0  0  0  0  0  0
    9.9306    9.0366   22.7307 C   0  0  0  0  0  0  0  0  0  0  0  0
   11.8241   13.9657   22.2426 C   0  0  0  0  0  0  0  0  0  0  0  0
    7.5916   10.8728   24.8562 N   0  0  0  0  0  0  0  0  0  0  0  0
    8.1457    9.7939   24.2775 N   0  0  0  0  0  0  0  0  0  0  0  0
   10.2674   12.2011   22.8225 N   0  0  0  0  0  0  0  0  0  0  0  0
   10.5707   14.0448   24.2625 O   0  0  0  0  0  0  0  0  0  0  0  0
   10.9438   14.9984   21.1050 Cl  0  0  0  0  0  0  0  0  0  0  0  0
    7.2782   13.7287   24.1105 H   0  0  0  0  0  0  0  0  0  0  0  0
    7.5921   13.3058   25.8117 H   0  0  0  0  0  0  0  0  0  0  0  0
    8.9088   13.9053   24.8046 H   0  0  0  0  0  0  0  0  0  0  0  0
   10.7789    8.6595   23.3269 H   0  0  0  0  0  0  0  0  0  0  0  0
    9.2886    8.1729   22.4821 H   0  0  0  0  0  0  0  0  0  0  0  0
   10.3349    9.3993   21.7689 H   0  0  0  0  0  0  0  0  0  0  0  0
   12.3364   13.1797   21.6819 H   0  0  0  0  0  0  0  0  0  0  0  0
   12.5700   14.5680   22.7689 H   0  0  0  0  0  0  0  0  0  0  0  0
    7.7557    8.8840   24.4902 H   0  0  0  0  0  0  0  0  0  0  0  0
   10.5897   11.8301   21.9199 H   0  0  0  0  0  0  0  0  0  0  0  0
  1  2  1  0  0  0  0
  1  3  2  0  0  0  0
  1 10  1  0  0  0  0
  2  5  1  0  0  0  0
  2  8  2  0  0  0  0
  3  6  1  0  0  0  0
  3  9  1  0  0  0  0
  4  7  1  0  0  0  0
  4 10  1  0  0  0  0
  4 11  2  0  0  0  0
  7 12  1  0  0  0  0
  8  9  1  0  0  0  0
  5 13  1  0  0  0  0
  5 14  1  0  0  0  0
  5 15  1  0  0  0  0
  6 16  1  0  0  0  0
  6 17  1  0  0  0  0
  6 18  1  0  0  0  0
  7 19  1  0  0  0  0
  7 20  1  0  0  0  0
  9 21  1  0  0  0  0
 10 22  1  0  0  0  0
M  END
> <Catalog ID>
Z56951954

> <MW>
187.051

> <MW (desalted)>
187.627

> <ClogP>
-0.107

> <logS>
-1.33

> <HBD>
2

> <HBA>
2

> <TPSA>
57.78

> <RotBonds>
2

> <ROCS_ShapeQuery>
A71EV2A-x0451_0A_A71EV2A-x0310_0A_A71EV2A-x0416_0A_peptide

> <ROCS_TanimotoCombo>
0.442 

> <ROCS_ShapeTanimoto>
0.266 

> <ROCS_ColorTanimoto>
0.176 

> <ROCS_RefTversky>
0.236 

> <ROCS_RefColorTversky>
0.181 

> <ROCS_RefTverskyCombo>
0.417 

> <ROCS_FitTversky>
1.916 

> <ROCS_FitColorTversky>
0.867 

> <ROCS_FitTverskyCombo>
2.783 

> <ROCS_ColorScore>
-5.491

> <ROCS_Overlap>
1635.071

> <ROCS_Rank>
197                 

$$$$
untitled-dbase-531_889
  -OEChem-11112315393D

 38 39  0     1  0  0  0  0  0999 V2000
   13.4076   14.7369   23.8659 C   0  0  0  0  0  0  0  0  0  0  0  0
   12.6177   14.2606   22.8988 C   0  0  0  0  0  0  0  0  0  0  0  0
   11.2230   13.8432   23.2033 C   0  0  0  0  0  0  0  0  0  0  0  0
    9.9270   11.4766   24.8333 C   0  0  0  0  0  0  0  0  0  0  0  0
    8.6721   12.0603   25.4694 C   0  0  0  0  0  0  0  0  0  0  0  0
    6.3520   12.1897   24.4240 C   0  0  0  0  0  0  0  0  0  0  0  0
    6.8920   10.2955   25.9634 C   0  0  0  0  0  0  0  0  0  0  0  0
    5.6287   12.8451   25.5956 C   0  0  0  0  0  0  0  0  0  0  0  0
    6.1150   11.0427   27.0450 C   0  0  0  0  0  0  0  0  0  0  0  0
    9.4872   11.0702   23.4302 C   0  0  1  0  0  0  0  0  0  0  0  0
    8.0896   10.4804   23.6705 C   0  0  2  0  0  0  0  0  0  0  0  0
    7.4832   11.2434   24.8924 C   0  0  0  0  0  0  0  0  0  0  0  0
    9.4727   12.2516   22.4627 C   0  0  0  0  0  0  0  0  0  0  0  0
   10.7771   12.8188   22.3683 N   0  0  0  0  0  0  0  0  0  0  0  0
   10.5584   14.3618   24.0947 O   0  0  0  0  0  0  0  0  0  0  0  0
    5.0945   11.8547   26.4705 O   0  0  0  0  0  0  0  0  0  0  0  0
    8.2433    9.0916   23.9676 O   0  0  0  0  0  0  0  0  0  0  0  0
   14.4243   15.0383   23.6363 H   0  0  0  0  0  0  0  0  0  0  0  0
   13.0761   14.8407   24.8932 H   0  0  0  0  0  0  0  0  0  0  0  0
   12.9884   14.1733   21.8833 H   0  0  0  0  0  0  0  0  0  0  0  0
   10.7361   12.2057   24.8359 H   0  0  0  0  0  0  0  0  0  0  0  0
   10.2621   10.5985   25.3867 H   0  0  0  0  0  0  0  0  0  0  0  0
    8.7261   12.0404   26.5620 H   0  0  0  0  0  0  0  0  0  0  0  0
    8.5793   13.1139   25.1737 H   0  0  0  0  0  0  0  0  0  0  0  0
    5.6195   11.6064   23.8503 H   0  0  0  0  0  0  0  0  0  0  0  0
    6.7427   12.9622   23.7504 H   0  0  0  0  0  0  0  0  0  0  0  0
    7.6691    9.6812   26.4367 H   0  0  0  0  0  0  0  0  0  0  0  0
    6.1939    9.5999   25.4753 H   0  0  0  0  0  0  0  0  0  0  0  0
    6.2888   13.5157   26.1571 H   0  0  0  0  0  0  0  0  0  0  0  0
    4.7918   13.4444   25.2238 H   0  0  0  0  0  0  0  0  0  0  0  0
    5.6280   10.3219   27.7099 H   0  0  0  0  0  0  0  0  0  0  0  0
    6.7699   11.6628   27.6664 H   0  0  0  0  0  0  0  0  0  0  0  0
   10.1537   10.3149   23.0346 H   0  0  0  0  0  0  0  0  0  0  0  0
    7.4622   10.5689   22.7981 H   0  0  0  0  0  0  0  0  0  0  0  0
    9.1497   11.8753   21.4922 H   0  0  0  0  0  0  0  0  0  0  0  0
    8.7659   12.9842   22.8522 H   0  0  0  0  0  0  0  0  0  0  0  0
   11.4058   12.4790   21.6335 H   0  0  0  0  0  0  0  0  0  0  0  0
    8.6735    8.6815   23.1981 H   0  0  0  0  0  0  0  0  0  0  0  0
  1  2  2  0  0  0  0
  2  3  1  0  0  0  0
  3 14  1  0  0  0  0
  3 15  2  0  0  0  0
  4  5  1  0  0  0  0
  4 10  1  0  0  0  0
  5 12  1  0  0  0  0
  6  8  1  0  0  0  0
  6 12  1  0  0  0  0
  7  9  1  0  0  0  0
  7 12  1  0  0  0  0
  8 16  1  0  0  0  0
  9 16  1  0  0  0  0
 10 11  1  0  0  0  0
 10 13  1  0  0  0  0
 11 12  1  0  0  0  0
 11 17  1  0  0  0  0
 13 14  1  0  0  0  0
  1 18  1  0  0  0  0
  1 19  1  0  0  0  0
  2 20  1  0  0  0  0
  4 21  1  0  0  0  0
  4 22  1  0  0  0  0
  5 23  1  0  0  0  0
  5 24  1  0  0  0  0
  6 25  1  0  0  0  0
  6 26  1  0  0  0  0
  7 27  1  0  0  0  0
  7 28  1  0  0  0  0
  8 29  1  0  0  0  0
  8 30  1  0  0  0  0
  9 31  1  0  0  0  0
  9 32  1  0  0  0  0
 10 33  1  0  0  0  0
 11 34  1  0  0  0  0
 13 35  1  0  0  0  0
 13 36  1  0  0  0  0
 14 37  1  0  0  0  0
 17 38  1  0  0  0  0
M  END
> <Catalog ID>
Z2737383501

> <MW>
239.311

> <MW (desalted)>
239.311

> <ClogP>
-0.207

> <logS>
-1.215

> <HBD>
2

> <HBA>
3

> <TPSA>
58.56

> <RotBonds>
3

> <ROCS_ShapeQuery>
A71EV2A-x0451_0A_A71EV2A-x0310_0A_A71EV2A-x0416_0A_peptide

> <ROCS_TanimotoCombo>
0.442 

> <ROCS_ShapeTanimoto>
0.282 

> <ROCS_ColorTanimoto>
0.160 

> <ROCS_RefTversky>
0.253 

> <ROCS_RefColorTversky>
0.180 

> <ROCS_RefTverskyCombo>
0.433 

> <ROCS_FitTversky>
1.664 

> <ROCS_FitColorTversky>
0.598 

> <ROCS_FitTverskyCombo>
2.262 

> <ROCS_ColorScore>
-5.489

> <ROCS_Overlap>
1755.820

> <ROCS_Rank>
198                 

$$$$
untitled-dbase-921_2
  -OEChem-11112315393D

 24 24  0     0  0  0  0  0  0999 V2000
    8.2458    9.5350   24.0810 C   0  0  0  0  0  0  0  0  0  0  0  0
    7.3258   10.2447   24.8528 C   0  0  0  0  0  0  0  0  0  0  0  0
    8.4185   12.3141   24.2523 C   0  0  0  0  0  0  0  0  0  0  0  0
    9.2522   10.2149   23.3950 C   0  0  0  0  0  0  0  0  0  0  0  0
    9.3385   11.6045   23.4806 C   0  0  0  0  0  0  0  0  0  0  0  0
    7.4121   11.6342   24.9384 C   0  0  0  0  0  0  0  0  0  0  0  0
   10.9152   13.5016   23.2023 C   0  0  0  0  0  0  0  0  0  0  0  0
   10.2238    9.4287   22.5761 C   0  0  0  0  0  0  0  0  0  0  0  0
   11.9670   13.9721   22.2247 C   0  0  0  0  0  0  0  0  0  0  0  0
   10.3392   12.3032   22.8006 N   0  0  0  0  0  0  0  0  0  0  0  0
    6.4752   12.3563   25.7242 N   0  3  0  0  0  0  0  0  0  0  0  0
    5.5779   11.7251   26.3331 O   0  5  0  0  0  0  0  0  0  0  0  0
   10.6515   14.1732   24.1961 O   0  0  0  0  0  0  0  0  0  0  0  0
    6.5701   13.6059   25.7877 O   0  0  0  0  0  0  0  0  0  0  0  0
   11.4685   15.5589   21.6171 Cl  0  0  0  0  0  0  0  0  0  0  0  0
    8.1699    8.4525   24.0208 H   0  0  0  0  0  0  0  0  0  0  0  0
    6.5465    9.7022   25.3824 H   0  0  0  0  0  0  0  0  0  0  0  0
    8.4868   13.3983   24.3184 H   0  0  0  0  0  0  0  0  0  0  0  0
    9.8532    9.3179   21.5508 H   0  0  0  0  0  0  0  0  0  0  0  0
   11.2031    9.9214   22.5432 H   0  0  0  0  0  0  0  0  0  0  0  0
   10.3823    8.4301   23.0012 H   0  0  0  0  0  0  0  0  0  0  0  0
   12.0914   13.2931   21.3774 H   0  0  0  0  0  0  0  0  0  0  0  0
   12.9257   14.0721   22.7414 H   0  0  0  0  0  0  0  0  0  0  0  0
   10.6771   11.8967   21.9312 H   0  0  0  0  0  0  0  0  0  0  0  0
  1  2  2  0  0  0  0
  1  4  1  0  0  0  0
  2  6  1  0  0  0  0
  3  5  1  0  0  0  0
  3  6  2  0  0  0  0
  4  5  2  0  0  0  0
  4  8  1  0  0  0  0
  5 10  1  0  0  0  0
  6 11  1  0  0  0  0
  7  9  1  0  0  0  0
  7 10  1  0  0  0  0
  7 13  2  0  0  0  0
  9 15  1  0  0  0  0
 11 12  1  0  0  0  0
 11 14  2  0  0  0  0
  1 16  1  0  0  0  0
  2 17  1  0  0  0  0
  3 18  1  0  0  0  0
  8 19  1  0  0  0  0
  8 20  1  0  0  0  0
  8 21  1  0  0  0  0
  9 22  1  0  0  0  0
  9 23  1  0  0  0  0
 10 24  1  0  0  0  0
M  CHG  2  11   1  12  -1
M  END
> <Catalog ID>
Z57033984

> <MW>
228.03

> <MW (desalted)>
228.632

> <ClogP>
1.918

> <logS>
-3.18

> <HBD>
1

> <HBA>
3

> <TPSA>
72.24

> <RotBonds>
3

> <ROCS_ShapeQuery>
A71EV2A-x0451_0A_A71EV2A-x0310_0A_A71EV2A-x0416_0A_peptide

> <ROCS_TanimotoCombo>
0.442 

> <ROCS_ShapeTanimoto>
0.308 

> <ROCS_ColorTanimoto>
0.134 

> <ROCS_RefTversky>
0.269 

> <ROCS_RefColorTversky>
0.142 

> <ROCS_RefTverskyCombo>
0.412 

> <ROCS_FitTversky>
1.898 

> <ROCS_FitColorTversky>
0.681 

> <ROCS_FitTverskyCombo>
2.580 

> <ROCS_ColorScore>
-4.327

> <ROCS_Overlap>
1864.865

> <ROCS_Rank>
199                 

$$$$
untitled-dbase-402_82
  -OEChem-11112315393D

 27 27  0     0  0  0  0  0  0999 V2000
    8.3389   12.3109   24.3517 C   0  0  0  0  0  0  0  0  0  0  0  0
   10.0515   10.9564   23.3177 C   0  0  0  0  0  0  0  0  0  0  0  0
    7.5619   11.1710   24.5580 C   0  0  0  0  0  0  0  0  0  0  0  0
    9.2746    9.8164   23.5240 C   0  0  0  0  0  0  0  0  0  0  0  0
    9.5837   12.2036   23.7315 C   0  0  0  0  0  0  0  0  0  0  0  0
    8.0297    9.9238   24.1442 C   0  0  0  0  0  0  0  0  0  0  0  0
   10.4117   13.4178   23.5118 C   0  0  0  0  0  0  0  0  0  0  0  0
   13.3122   14.5529   22.7709 C   0  0  0  0  0  0  0  0  0  0  0  0
    7.8109    7.5686   23.8974 C   0  0  0  0  0  0  0  0  0  0  0  0
   14.0419   15.8162   22.3947 C   0  0  0  0  0  0  0  0  0  0  0  0
   11.2874   13.3603   22.4444 N   0  0  0  0  0  0  0  0  0  0  0  0
   12.0712   14.4557   22.1735 N   0  0  0  0  0  0  0  0  0  0  0  0
   10.2709   14.3854   24.2555 O   0  0  0  0  0  0  0  0  0  0  0  0
   13.7965   13.7286   23.5445 O   0  0  0  0  0  0  0  0  0  0  0  0
    7.2717    8.8114   24.3452 O   0  0  0  0  0  0  0  0  0  0  0  0
   13.4991   16.2983   20.7799 Cl  0  0  0  0  0  0  0  0  0  0  0  0
    7.9641   13.2774   24.6787 H   0  0  0  0  0  0  0  0  0  0  0  0
   11.0203   10.8621   22.8337 H   0  0  0  0  0  0  0  0  0  0  0  0
    6.5930   11.2611   25.0415 H   0  0  0  0  0  0  0  0  0  0  0  0
    9.6441    8.8476   23.1992 H   0  0  0  0  0  0  0  0  0  0  0  0
    7.1057    6.7637   24.1188 H   0  0  0  0  0  0  0  0  0  0  0  0
    8.7633    7.3815   24.3997 H   0  0  0  0  0  0  0  0  0  0  0  0
    7.9743    7.6201   22.8184 H   0  0  0  0  0  0  0  0  0  0  0  0
   13.7931   16.6066   23.1081 H   0  0  0  0  0  0  0  0  0  0  0  0
   15.1264   15.6818   22.3735 H   0  0  0  0  0  0  0  0  0  0  0  0
   11.3503   12.5256   21.8720 H   0  0  0  0  0  0  0  0  0  0  0  0
   11.7434   15.1813   21.5448 H   0  0  0  0  0  0  0  0  0  0  0  0
  1  3  2  0  0  0  0
  1  5  1  0  0  0  0
  2  4  1  0  0  0  0
  2  5  2  0  0  0  0
  3  6  1  0  0  0  0
  4  6  2  0  0  0  0
  5  7  1  0  0  0  0
  6 15  1  0  0  0  0
  7 11  1  0  0  0  0
  7 13  2  0  0  0  0
  8 10  1  0  0  0  0
  8 12  1  0  0  0  0
  8 14  2  0  0  0  0
  9 15  1  0  0  0  0
 10 16  1  0  0  0  0
 11 12  1  0  0  0  0
  1 17  1  0  0  0  0
  2 18  1  0  0  0  0
  3 19  1  0  0  0  0
  4 20  1  0  0  0  0
  9 21  1  0  0  0  0
  9 22  1  0  0  0  0
  9 23  1  0  0  0  0
 10 24  1  0  0  0  0
 10 25  1  0  0  0  0
 11 26  1  0  0  0  0
 12 27  1  0  0  0  0
M  END
> <Catalog ID>
Z89283290

> <MW>
242.046

> <MW (desalted)>
242.659

> <ClogP>
1.125

> <logS>
-2.66

> <HBD>
2

> <HBA>
3

> <TPSA>
67.43

> <RotBonds>
4

> <ROCS_ShapeQuery>
A71EV2A-x0451_0A_A71EV2A-x0310_0A_A71EV2A-x0416_0A_peptide

> <ROCS_TanimotoCombo>
0.442 

> <ROCS_ShapeTanimoto>
0.280 

> <ROCS_ColorTanimoto>
0.162 

> <ROCS_RefTversky>
0.251 

> <ROCS_RefColorTversky>
0.174 

> <ROCS_RefTverskyCombo>
0.425 

> <ROCS_FitTversky>
1.711 

> <ROCS_FitColorTversky>
0.699 

> <ROCS_FitTverskyCombo>
2.410 

> <ROCS_ColorScore>
-5.294

> <ROCS_Overlap>
1739.340

> <ROCS_Rank>
200                 

$$$$
untitled-dbase-924_260
  -OEChem-11112315393D

 33 34  0     0  0  0  0  0  0999 V2000
    9.0411   11.0713   23.9418 C   0  0  0  0  0  0  0  0  0  0  0  0
    7.4331   11.8227   25.0044 C   0  0  0  0  0  0  0  0  0  0  0  0
   10.5179   13.5014   23.1751 C   0  0  0  0  0  0  0  0  0  0  0  0
   11.7548    8.3716   23.5574 C   0  0  0  0  0  0  0  0  0  0  0  0
   11.6939    9.4230   24.6582 C   0  0  0  0  0  0  0  0  0  0  0  0
   10.5787    8.4964   22.5971 C   0  0  0  0  0  0  0  0  0  0  0  0
   11.5978   10.8303   24.0704 C   0  0  0  0  0  0  0  0  0  0  0  0
   10.4326    9.9196   22.0490 C   0  0  0  0  0  0  0  0  0  0  0  0
   10.3659   11.0170   23.1425 C   0  0  0  0  0  0  0  0  0  0  0  0
    6.4057   12.5927   25.7185 C   0  0  0  0  0  0  0  0  0  0  0  0
   10.6449   14.7060   22.2778 C   0  0  0  0  0  0  0  0  0  0  0  0
    8.5217   12.2426   24.4109 N   0  0  0  0  0  0  0  0  0  0  0  0
    8.3332    9.9712   24.2150 N   0  0  0  0  0  0  0  0  0  0  0  0
   10.4692   12.3112   22.4734 N   0  0  0  0  0  0  0  0  0  0  0  0
   10.4814   13.6058   24.3999 O   0  0  0  0  0  0  0  0  0  0  0  0
    7.2442   10.4789   24.9347 O   0  0  0  0  0  0  0  0  0  0  0  0
   12.1416   14.5364   21.3473 Cl  0  0  0  0  0  0  0  0  0  0  0  0
   12.6962    8.4698   23.0039 H   0  0  0  0  0  0  0  0  0  0  0  0
   11.7541    7.3709   24.0080 H   0  0  0  0  0  0  0  0  0  0  0  0
   10.8287    9.2332   25.2975 H   0  0  0  0  0  0  0  0  0  0  0  0
   12.5838    9.3453   25.2883 H   0  0  0  0  0  0  0  0  0  0  0  0
   10.7032    7.7886   21.7655 H   0  0  0  0  0  0  0  0  0  0  0  0
    9.6528    8.2092   23.1142 H   0  0  0  0  0  0  0  0  0  0  0  0
   11.5414   11.5512   24.8960 H   0  0  0  0  0  0  0  0  0  0  0  0
   12.5217   11.0651   23.5287 H   0  0  0  0  0  0  0  0  0  0  0  0
   11.2631   10.1259   21.3539 H   0  0  0  0  0  0  0  0  0  0  0  0
    9.5207    9.9649   21.4298 H   0  0  0  0  0  0  0  0  0  0  0  0
    5.5999   12.9204   25.0373 H   0  0  0  0  0  0  0  0  0  0  0  0
    5.9331   12.0108   26.5317 H   0  0  0  0  0  0  0  0  0  0  0  0
    6.8182   13.4989   26.2005 H   0  0  0  0  0  0  0  0  0  0  0  0
    9.8083   14.8007   21.5812 H   0  0  0  0  0  0  0  0  0  0  0  0
   10.7042   15.6102   22.8898 H   0  0  0  0  0  0  0  0  0  0  0  0
   10.5063   12.3376   21.4608 H   0  0  0  0  0  0  0  0  0  0  0  0
  1  9  1  0  0  0  0
  1 12  1  0  0  0  0
  1 13  2  0  0  0  0
  2 10  1  0  0  0  0
  2 12  2  0  0  0  0
  2 16  1  0  0  0  0
  3 11  1  0  0  0  0
  3 14  1  0  0  0  0
  3 15  2  0  0  0  0
  4  5  1  0  0  0  0
  4  6  1  0  0  0  0
  5  7  1  0  0  0  0
  6  8  1  0  0  0  0
  7  9  1  0  0  0  0
  8  9  1  0  0  0  0
  9 14  1  0  0  0  0
 11 17  1  0  0  0  0
 13 16  1  0  0  0  0
  4 18  1  0  0  0  0
  4 19  1  0  0  0  0
  5 20  1  0  0  0  0
  5 21  1  0  0  0  0
  6 22  1  0  0  0  0
  6 23  1  0  0  0  0
  7 24  1  0  0  0  0
  7 25  1  0  0  0  0
  8 26  1  0  0  0  0
  8 27  1  0  0  0  0
 10 28  1  0  0  0  0
 10 29  1  0  0  0  0
 10 30  1  0  0  0  0
 11 31  1  0  0  0  0
 11 32  1  0  0  0  0
 14 33  1  0  0  0  0
M  END
> <Catalog ID>
Z291278950

> <MW>
257.093

> <MW (desalted)>
257.717

> <ClogP>
1.205

> <logS>
-2.179

> <HBD>
1

> <HBA>
3

> <TPSA>
68.02

> <RotBonds>
3

> <ROCS_ShapeQuery>
A71EV2A-x0451_0A_A71EV2A-x0310_0A_A71EV2A-x0416_0A_peptide

> <ROCS_TanimotoCombo>
0.442 

> <ROCS_ShapeTanimoto>
0.296 

> <ROCS_ColorTanimoto>
0.146 

> <ROCS_RefTversky>
0.264 

> <ROCS_RefColorTversky>
0.158 

> <ROCS_RefTverskyCombo>
0.421 

> <ROCS_FitTversky>
1.711 

> <ROCS_FitColorTversky>
0.658 

> <ROCS_FitTverskyCombo>
2.369 

> <ROCS_ColorScore>
-4.800

> <ROCS_Overlap>
1828.165

> <ROCS_Rank>
201                 

$$$$
untitled-dbase-215_61
  -OEChem-11112315393D

 32 33  0     0  0  0  0  0  0999 V2000
    9.1463   10.1948   23.4592 C   0  0  0  0  0  0  0  0  0  0  0  0
    8.0441    9.8672   24.3044 C   0  0  0  0  0  0  0  0  0  0  0  0
    7.4993   10.9984   24.8820 C   0  0  0  0  0  0  0  0  0  0  0  0
    9.3963   11.5501   23.4330 C   0  0  0  0  0  0  0  0  0  0  0  0
    9.9342    9.2496   22.7080 C   0  0  0  0  0  0  0  0  0  0  0  0
   10.9200   13.4942   23.1851 C   0  0  0  0  0  0  0  0  0  0  0  0
    7.4872    8.4994   24.5519 C   0  0  0  0  0  0  0  0  0  0  0  0
    6.3507   11.0057   25.8415 C   0  0  0  0  0  0  0  0  0  0  0  0
    6.5702    8.4716   25.7848 C   0  0  0  0  0  0  0  0  0  0  0  0
    5.6024    9.6639   25.7978 C   0  0  0  0  0  0  0  0  0  0  0  0
   12.1122    8.8209   21.8060 C   0  0  0  0  0  0  0  0  0  0  0  0
   11.9349   14.0252   22.1994 C   0  0  0  0  0  0  0  0  0  0  0  0
   10.3429   12.2820   22.7680 N   0  0  0  0  0  0  0  0  0  0  0  0
    9.5111    8.1693   22.2554 O   0  0  0  0  0  0  0  0  0  0  0  0
   10.6662   14.1230   24.2090 O   0  0  0  0  0  0  0  0  0  0  0  0
   11.2284    9.6757   22.5394 O   0  0  0  0  0  0  0  0  0  0  0  0
    8.3058   12.4252   24.4217 S   0  0  0  0  0  0  0  0  0  0  0  0
   11.0801   15.0719   21.0551 Cl  0  0  0  0  0  0  0  0  0  0  0  0
    6.9270    8.1479   23.6780 H   0  0  0  0  0  0  0  0  0  0  0  0
    8.3229    7.8055   24.7068 H   0  0  0  0  0  0  0  0  0  0  0  0
    6.6919   11.1985   26.8648 H   0  0  0  0  0  0  0  0  0  0  0  0
    5.6619   11.8129   25.5636 H   0  0  0  0  0  0  0  0  0  0  0  0
    5.9903    7.5396   25.7906 H   0  0  0  0  0  0  0  0  0  0  0  0
    7.1811    8.4745   26.6947 H   0  0  0  0  0  0  0  0  0  0  0  0
    4.9457    9.5817   26.6736 H   0  0  0  0  0  0  0  0  0  0  0  0
    4.9583    9.6339   24.9117 H   0  0  0  0  0  0  0  0  0  0  0  0
   13.1017    9.2810   21.7495 H   0  0  0  0  0  0  0  0  0  0  0  0
   11.7149    8.6612   20.8004 H   0  0  0  0  0  0  0  0  0  0  0  0
   12.1881    7.8611   22.3223 H   0  0  0  0  0  0  0  0  0  0  0  0
   12.4396   13.2317   21.6426 H   0  0  0  0  0  0  0  0  0  0  0  0
   12.6856   14.6157   22.7322 H   0  0  0  0  0  0  0  0  0  0  0  0
   10.6667   11.9045   21.8661 H   0  0  0  0  0  0  0  0  0  0  0  0
  1  2  1  0  0  0  0
  1  4  2  0  0  0  0
  1  5  1  0  0  0  0
  2  3  2  0  0  0  0
  2  7  1  0  0  0  0
  3  8  1  0  0  0  0
  3 17  1  0  0  0  0
  4 13  1  0  0  0  0
  4 17  1  0  0  0  0
  5 14  2  0  0  0  0
  5 16  1  0  0  0  0
  6 12  1  0  0  0  0
  6 13  1  0  0  0  0
  6 15  2  0  0  0  0
  7  9  1  0  0  0  0
  8 10  1  0  0  0  0
  9 10  1  0  0  0  0
 11 16  1  0  0  0  0
 12 18  1  0  0  0  0
  7 19  1  0  0  0  0
  7 20  1  0  0  0  0
  8 21  1  0  0  0  0
  8 22  1  0  0  0  0
  9 23  1  0  0  0  0
  9 24  1  0  0  0  0
 10 25  1  0  0  0  0
 10 26  1  0  0  0  0
 11 27  1  0  0  0  0
 11 28  1  0  0  0  0
 11 29  1  0  0  0  0
 12 30  1  0  0  0  0
 12 31  1  0  0  0  0
 13 32  1  0  0  0  0
M  END
> <Catalog ID>
Z56876365

> <MW>
287.038

> <MW (desalted)>
287.762

> <ClogP>
3.518

> <logS>
-4.08

> <HBD>
1

> <HBA>
2

> <TPSA>
55.4

> <RotBonds>
4

> <ROCS_ShapeQuery>
A71EV2A-x0451_0A_A71EV2A-x0310_0A_A71EV2A-x0416_0A_peptide

> <ROCS_TanimotoCombo>
0.442 

> <ROCS_ShapeTanimoto>
0.305 

> <ROCS_ColorTanimoto>
0.136 

> <ROCS_RefTversky>
0.271 

> <ROCS_RefColorTversky>
0.145 

> <ROCS_RefTverskyCombo>
0.416 

> <ROCS_FitTversky>
1.715 

> <ROCS_FitColorTversky>
0.694 

> <ROCS_FitTverskyCombo>
2.409 

> <ROCS_ColorScore>
-4.407

> <ROCS_Overlap>
1878.478

> <ROCS_Rank>
202                 

$$$$
untitled-dbase-195_301
  -OEChem-11112315393D

 24 25  0     0  0  0  0  0  0999 V2000
    5.9665   11.3848   25.8964 C   0  0  0  0  0  0  0  0  0  0  0  0
    6.0031   10.0186   25.6401 C   0  0  0  0  0  0  0  0  0  0  0  0
    6.9583   12.2295   25.3895 C   0  0  0  0  0  0  0  0  0  0  0  0
    7.0286    9.4605   24.8727 C   0  0  0  0  0  0  0  0  0  0  0  0
    8.0059   11.6914   24.6110 C   0  0  0  0  0  0  0  0  0  0  0  0
    8.0216   10.3148   24.3668 C   0  0  0  0  0  0  0  0  0  0  0  0
    9.8398   11.5814   23.3897 C   0  0  0  0  0  0  0  0  0  0  0  0
   10.8375   14.4464   22.9531 C   0  0  0  0  0  0  0  0  0  0  0  0
   11.0586   11.9953   22.6612 C   0  0  0  0  0  0  0  0  0  0  0  0
   10.7820   15.7422   22.1849 C   0  0  0  0  0  0  0  0  0  0  0  0
    9.0537   12.4031   24.0451 N   0  0  0  0  0  0  0  0  0  0  0  0
   10.9673   13.3384   22.1342 N   0  0  0  0  0  0  0  0  0  0  0  0
   10.7865   14.4178   24.1815 O   0  0  0  0  0  0  0  0  0  0  0  0
    9.3963    9.9294   23.4002 S   0  0  0  0  0  0  0  0  0  0  0  0
   11.7255   15.5362   20.7009 Cl  0  0  0  0  0  0  0  0  0  0  0  0
    5.1612   11.8007   26.4955 H   0  0  0  0  0  0  0  0  0  0  0  0
    5.2247    9.3749   26.0414 H   0  0  0  0  0  0  0  0  0  0  0  0
    6.9191   13.2955   25.5951 H   0  0  0  0  0  0  0  0  0  0  0  0
    7.0498    8.3931   24.6758 H   0  0  0  0  0  0  0  0  0  0  0  0
   11.9517   11.9650   23.3088 H   0  0  0  0  0  0  0  0  0  0  0  0
   11.2769   11.3325   21.8066 H   0  0  0  0  0  0  0  0  0  0  0  0
    9.7622   16.0269   21.9149 H   0  0  0  0  0  0  0  0  0  0  0  0
   11.2284   16.5397   22.7852 H   0  0  0  0  0  0  0  0  0  0  0  0
   10.9996   13.4734   21.1290 H   0  0  0  0  0  0  0  0  0  0  0  0
  1  2  1  0  0  0  0
  1  3  2  0  0  0  0
  2  4  2  0  0  0  0
  3  5  1  0  0  0  0
  4  6  1  0  0  0  0
  5  6  2  0  0  0  0
  5 11  1  0  0  0  0
  6 14  1  0  0  0  0
  7  9  1  0  0  0  0
  7 11  2  0  0  0  0
  7 14  1  0  0  0  0
  8 10  1  0  0  0  0
  8 12  1  0  0  0  0
  8 13  2  0  0  0  0
  9 12  1  0  0  0  0
 10 15  1  0  0  0  0
  1 16  1  0  0  0  0
  2 17  1  0  0  0  0
  3 18  1  0  0  0  0
  4 19  1  0  0  0  0
  9 20  1  0  0  0  0
  9 21  1  0  0  0  0
 10 22  1  0  0  0  0
 10 23  1  0  0  0  0
 12 24  1  0  0  0  0
M  END
> <Catalog ID>
Z90662187

> <MW>
240.012

> <MW (desalted)>
240.709

> <ClogP>
1.501

> <logS>
-2.56

> <HBD>
1

> <HBA>
2

> <TPSA>
41.99

> <RotBonds>
3

> <ROCS_ShapeQuery>
A71EV2A-x0451_0A_A71EV2A-x0310_0A_A71EV2A-x0416_0A_peptide

> <ROCS_TanimotoCombo>
0.442 

> <ROCS_ShapeTanimoto>
0.291 

> <ROCS_ColorTanimoto>
0.150 

> <ROCS_RefTversky>
0.257 

> <ROCS_RefColorTversky>
0.158 

> <ROCS_RefTverskyCombo>
0.415 

> <ROCS_FitTversky>
1.830 

> <ROCS_FitColorTversky>
0.756 

> <ROCS_FitTverskyCombo>
2.587 

> <ROCS_ColorScore>
-4.801

> <ROCS_Overlap>
1782.381

> <ROCS_Rank>
203                 

$$$$
untitled-dbase-881_385
  -OEChem-11112315393D

 37 38  0     1  0  0  0  0  0999 V2000
    7.9964   12.0278   24.4217 C   0  0  0  0  0  0  0  0  0  0  0  0
    7.6869   10.7323   24.8774 C   0  0  0  0  0  0  0  0  0  0  0  0
    8.9453   11.8317   23.4482 C   0  0  0  0  0  0  0  0  0  0  0  0
   10.4638   13.7859   23.1597 C   0  0  0  0  0  0  0  0  0  0  0  0
   15.4696   12.3610   22.7470 C   0  0  0  0  0  0  0  0  0  0  0  0
   14.4693   12.8560   22.0118 C   0  0  0  0  0  0  0  0  0  0  0  0
   13.3135   13.5252   22.6664 C   0  0  0  0  0  0  0  0  0  0  0  0
    9.3351   13.9624   20.4765 C   0  0  0  0  0  0  0  0  0  0  0  0
   10.2947   15.0491   20.9503 C   0  0  0  0  0  0  0  0  0  0  0  0
    9.5768   12.6276   21.1576 C   0  0  0  0  0  0  0  0  0  0  0  0
   11.1760   14.6536   22.1304 C   0  0  2  0  0  0  0  0  0  0  0  0
    6.7236   10.3570   25.9263 C   0  0  0  0  0  0  0  0  0  0  0  0
   10.0449    9.7753   22.5073 C   0  0  0  0  0  0  0  0  0  0  0  0
    8.3826    9.7834   24.2454 N   0  0  0  0  0  0  0  0  0  0  0  0
    9.1387   10.4832   23.3824 N   0  0  0  0  0  0  0  0  0  0  0  0
    9.6472   12.7745   22.6169 N   0  0  0  0  0  0  0  0  0  0  0  0
   12.3818   13.9709   21.7426 N   0  0  0  0  0  0  0  0  0  0  0  0
   10.6524   14.0071   24.3571 O   0  0  0  0  0  0  0  0  0  0  0  0
   13.2276   13.6535   23.8834 O   0  0  0  0  0  0  0  0  0  0  0  0
    7.5877   12.9717   24.7534 H   0  0  0  0  0  0  0  0  0  0  0  0
   16.3089   11.8733   22.2623 H   0  0  0  0  0  0  0  0  0  0  0  0
   15.4861   12.4242   23.8294 H   0  0  0  0  0  0  0  0  0  0  0  0
   14.4919   12.7723   20.9306 H   0  0  0  0  0  0  0  0  0  0  0  0
    8.2882   14.2876   20.6468 H   0  0  0  0  0  0  0  0  0  0  0  0
    9.4295   13.8411   19.3791 H   0  0  0  0  0  0  0  0  0  0  0  0
   10.9324   15.3718   20.0843 H   0  0  0  0  0  0  0  0  0  0  0  0
    9.7024   15.9652   21.2100 H   0  0  0  0  0  0  0  0  0  0  0  0
    8.7795   11.9367   20.9135 H   0  0  0  0  0  0  0  0  0  0  0  0
   10.5273   12.2180   20.8337 H   0  0  0  0  0  0  0  0  0  0  0  0
   11.4990   15.5682   22.6724 H   0  0  0  0  0  0  0  0  0  0  0  0
    5.7189   10.1834   25.5040 H   0  0  0  0  0  0  0  0  0  0  0  0
    7.0238    9.4369   26.4586 H   0  0  0  0  0  0  0  0  0  0  0  0
    6.6275   11.1371   26.7027 H   0  0  0  0  0  0  0  0  0  0  0  0
   11.0057    9.6825   23.0204 H   0  0  0  0  0  0  0  0  0  0  0  0
    9.6351    8.7869   22.2814 H   0  0  0  0  0  0  0  0  0  0  0  0
   10.1602   10.3366   21.5759 H   0  0  0  0  0  0  0  0  0  0  0  0
   12.5546   13.8464   20.7481 H   0  0  0  0  0  0  0  0  0  0  0  0
  1  2  1  0  0  0  0
  1  3  2  0  0  0  0
  2 12  1  0  0  0  0
  2 14  2  0  0  0  0
  3 15  1  0  0  0  0
  3 16  1  0  0  0  0
  4 11  1  0  0  0  0
  4 16  1  0  0  0  0
  4 18  2  0  0  0  0
  5  6  2  0  0  0  0
  6  7  1  0  0  0  0
  7 17  1  0  0  0  0
  7 19  2  0  0  0  0
  8  9  1  0  0  0  0
  8 10  1  0  0  0  0
  9 11  1  0  0  0  0
 10 16  1  0  0  0  0
 11 17  1  0  0  0  0
 13 15  1  0  0  0  0
 14 15  1  0  0  0  0
  1 20  1  0  0  0  0
  5 21  1  0  0  0  0
  5 22  1  0  0  0  0
  6 23  1  0  0  0  0
  8 24  1  0  0  0  0
  8 25  1  0  0  0  0
  9 26  1  0  0  0  0
  9 27  1  0  0  0  0
 10 28  1  0  0  0  0
 10 29  1  0  0  0  0
 11 30  1  0  0  0  0
 12 31  1  0  0  0  0
 12 32  1  0  0  0  0
 12 33  1  0  0  0  0
 13 34  1  0  0  0  0
 13 35  1  0  0  0  0
 13 36  1  0  0  0  0
 17 37  1  0  0  0  0
M  END
> <Catalog ID>
Z2285377640

> <MW>
262.308

> <MW (desalted)>
262.308

> <ClogP>
0.31

> <logS>
-2.22

> <HBD>
1

> <HBA>
3

> <TPSA>
67.23

> <RotBonds>
3

> <ROCS_ShapeQuery>
A71EV2A-x0451_0A_A71EV2A-x0310_0A_A71EV2A-x0416_0A_peptide

> <ROCS_TanimotoCombo>
0.441 

> <ROCS_ShapeTanimoto>
0.285 

> <ROCS_ColorTanimoto>
0.156 

> <ROCS_RefTversky>
0.259 

> <ROCS_RefColorTversky>
0.172 

> <ROCS_RefTverskyCombo>
0.431 

> <ROCS_FitTversky>
1.538 

> <ROCS_FitColorTversky>
0.635 

> <ROCS_FitTverskyCombo>
2.172 

> <ROCS_ColorScore>
-5.226

> <ROCS_Overlap>
1797.176

> <ROCS_Rank>
204                 

$$$$
untitled-dbase-697_193
  -OEChem-11112315393D

 35 36  0     1  0  0  0  0  0999 V2000
    9.1485   10.1950   23.4586 C   0  0  0  0  0  0  0  0  0  0  0  0
    8.0436    9.8671   24.3007 C   0  0  0  0  0  0  0  0  0  0  0  0
    7.5032   10.9969   24.8847 C   0  0  0  0  0  0  0  0  0  0  0  0
    9.3982   11.5501   23.4322 C   0  0  0  0  0  0  0  0  0  0  0  0
    9.9337    9.2502   22.7036 C   0  0  0  0  0  0  0  0  0  0  0  0
   10.9208   13.4950   23.1834 C   0  0  0  0  0  0  0  0  0  0  0  0
    7.5148    8.4945   24.5766 C   0  0  0  0  0  0  0  0  0  0  0  0
    6.3193   11.0147   25.8033 C   0  0  0  0  0  0  0  0  0  0  0  0
    6.1241    8.5396   25.2298 C   0  0  0  0  0  0  0  0  0  0  0  0
    6.0080    9.6012   26.3464 C   0  0  1  0  0  0  0  0  0  0  0  0
    6.8920    9.2572   27.5499 C   0  0  0  0  0  0  0  0  0  0  0  0
   12.1429    8.3802   22.3823 C   0  0  0  0  0  0  0  0  0  0  0  0
   11.9347   14.0266   22.1972 C   0  0  0  0  0  0  0  0  0  0  0  0
   10.3439   12.2826   22.7666 N   0  0  0  0  0  0  0  0  0  0  0  0
    9.4844    8.4924   21.8235 O   0  0  0  0  0  0  0  0  0  0  0  0
   10.6674   14.1235   24.2076 O   0  0  0  0  0  0  0  0  0  0  0  0
   11.2581    9.2757   23.0642 O   0  0  0  0  0  0  0  0  0  0  0  0
    8.3067   12.4245   24.4198 S   0  0  0  0  0  0  0  0  0  0  0  0
   11.0786   15.0731   21.0536 Cl  0  0  0  0  0  0  0  0  0  0  0  0
    7.4518    7.9473   23.6280 H   0  0  0  0  0  0  0  0  0  0  0  0
    8.2007    7.9425   25.2288 H   0  0  0  0  0  0  0  0  0  0  0  0
    6.5367   11.6975   26.6384 H   0  0  0  0  0  0  0  0  0  0  0  0
    5.4335   11.4097   25.2858 H   0  0  0  0  0  0  0  0  0  0  0  0
    5.3678    8.7248   24.4477 H   0  0  0  0  0  0  0  0  0  0  0  0
    5.8884    7.5447   25.6495 H   0  0  0  0  0  0  0  0  0  0  0  0
    4.9536    9.5968   26.6972 H   0  0  0  0  0  0  0  0  0  0  0  0
    7.9385    9.2506   27.2494 H   0  0  0  0  0  0  0  0  0  0  0  0
    6.6254    8.2743   27.9348 H   0  0  0  0  0  0  0  0  0  0  0  0
    6.7511    9.9981   28.3352 H   0  0  0  0  0  0  0  0  0  0  0  0
   13.1579    8.5066   22.7668 H   0  0  0  0  0  0  0  0  0  0  0  0
   12.1193    8.5896   21.3099 H   0  0  0  0  0  0  0  0  0  0  0  0
   11.8143    7.3532   22.5584 H   0  0  0  0  0  0  0  0  0  0  0  0
   12.4394   13.2334   21.6398 H   0  0  0  0  0  0  0  0  0  0  0  0
   12.6855   14.6175   22.7295 H   0  0  0  0  0  0  0  0  0  0  0  0
   10.6673   11.9053   21.8643 H   0  0  0  0  0  0  0  0  0  0  0  0
  1  2  1  0  0  0  0
  1  4  2  0  0  0  0
  1  5  1  0  0  0  0
  2  3  2  0  0  0  0
  2  7  1  0  0  0  0
  3  8  1  0  0  0  0
  3 18  1  0  0  0  0
  4 14  1  0  0  0  0
  4 18  1  0  0  0  0
  5 15  2  0  0  0  0
  5 17  1  0  0  0  0
  6 13  1  0  0  0  0
  6 14  1  0  0  0  0
  6 16  2  0  0  0  0
  7  9  1  0  0  0  0
  8 10  1  0  0  0  0
  9 10  1  0  0  0  0
 10 11  1  0  0  0  0
 12 17  1  0  0  0  0
 13 19  1  0  0  0  0
  7 20  1  0  0  0  0
  7 21  1  0  0  0  0
  8 22  1  0  0  0  0
  8 23  1  0  0  0  0
  9 24  1  0  0  0  0
  9 25  1  0  0  0  0
 10 26  1  0  0  0  0
 11 27  1  0  0  0  0
 11 28  1  0  0  0  0
 11 29  1  0  0  0  0
 12 30  1  0  0  0  0
 12 31  1  0  0  0  0
 12 32  1  0  0  0  0
 13 33  1  0  0  0  0
 13 34  1  0  0  0  0
 14 35  1  0  0  0  0
M  END
> <Catalog ID>
Z56913101

> <MW>
301.054

> <MW (desalted)>
301.789

> <ClogP>
4.037

> <logS>
-4.51

> <HBD>
1

> <HBA>
2

> <TPSA>
55.4

> <RotBonds>
4

> <ROCS_ShapeQuery>
A71EV2A-x0451_0A_A71EV2A-x0310_0A_A71EV2A-x0416_0A_peptide

> <ROCS_TanimotoCombo>
0.441 

> <ROCS_ShapeTanimoto>
0.304 

> <ROCS_ColorTanimoto>
0.136 

> <ROCS_RefTversky>
0.271 

> <ROCS_RefColorTversky>
0.145 

> <ROCS_RefTverskyCombo>
0.417 

> <ROCS_FitTversky>
1.661 

> <ROCS_FitColorTversky>
0.694 

> <ROCS_FitTverskyCombo>
2.355 

> <ROCS_ColorScore>
-4.406

> <ROCS_Overlap>
1883.254

> <ROCS_Rank>
205                 

$$$$
untitled-dbase-307_820
  -OEChem-11112315393D

 31 32  0     0  0  0  0  0  0999 V2000
   10.6881   11.1054   22.8150 C   0  0  0  0  0  0  0  0  0  0  0  0
    9.7279   10.1413   23.1234 C   0  0  0  0  0  0  0  0  0  0  0  0
    9.5121   12.7219   24.1751 C   0  0  0  0  0  0  0  0  0  0  0  0
   10.5832   12.3921   23.3442 C   0  0  0  0  0  0  0  0  0  0  0  0
    8.6636   10.4665   23.9648 C   0  0  0  0  0  0  0  0  0  0  0  0
    8.5440   11.7624   24.4730 C   0  0  0  0  0  0  0  0  0  0  0  0
   11.6763   15.6893   22.0474 C   0  0  0  0  0  0  0  0  0  0  0  0
    6.9355    9.8035   25.3650 C   0  0  0  0  0  0  0  0  0  0  0  0
    6.4186   11.2228   25.2328 C   0  0  0  0  0  0  0  0  0  0  0  0
   10.1066   13.9110   21.1329 C   0  0  0  0  0  0  0  0  0  0  0  0
   11.6155   13.4181   23.0178 C   0  0  0  0  0  0  0  0  0  0  0  0
   11.7093   16.3860   20.7018 C   0  0  0  0  0  0  0  0  0  0  0  0
   11.1429   14.3848   22.0595 N   0  0  0  0  0  0  0  0  0  0  0  0
   12.0952   16.2424   23.0673 O   0  0  0  0  0  0  0  0  0  0  0  0
    7.7640    9.4719   24.2471 O   0  0  0  0  0  0  0  0  0  0  0  0
    7.5050   12.1519   25.2773 O   0  0  0  0  0  0  0  0  0  0  0  0
   13.2201   16.0263   19.8427 Cl  0  0  0  0  0  0  0  0  0  0  0  0
   11.5180   10.8435   22.1638 H   0  0  0  0  0  0  0  0  0  0  0  0
    9.8219    9.1396   22.7130 H   0  0  0  0  0  0  0  0  0  0  0  0
    9.4259   13.7268   24.5816 H   0  0  0  0  0  0  0  0  0  0  0  0
    7.5179    9.6693   26.2850 H   0  0  0  0  0  0  0  0  0  0  0  0
    6.1016    9.0950   25.3833 H   0  0  0  0  0  0  0  0  0  0  0  0
    5.8714   11.3680   24.2930 H   0  0  0  0  0  0  0  0  0  0  0  0
    5.7434   11.4602   26.0607 H   0  0  0  0  0  0  0  0  0  0  0  0
   10.5820   13.4861   20.2365 H   0  0  0  0  0  0  0  0  0  0  0  0
    9.4989   13.1385   21.6266 H   0  0  0  0  0  0  0  0  0  0  0  0
    9.4624   14.7537   20.8416 H   0  0  0  0  0  0  0  0  0  0  0  0
   11.9246   13.9688   23.9172 H   0  0  0  0  0  0  0  0  0  0  0  0
   12.5218   12.9588   22.5999 H   0  0  0  0  0  0  0  0  0  0  0  0
   10.8849   16.0357   20.0757 H   0  0  0  0  0  0  0  0  0  0  0  0
   11.6581   17.4693   20.8375 H   0  0  0  0  0  0  0  0  0  0  0  0
  1  2  2  0  0  0  0
  1  4  1  0  0  0  0
  2  5  1  0  0  0  0
  3  4  2  0  0  0  0
  3  6  1  0  0  0  0
  4 11  1  0  0  0  0
  5  6  2  0  0  0  0
  5 15  1  0  0  0  0
  6 16  1  0  0  0  0
  7 12  1  0  0  0  0
  7 13  1  0  0  0  0
  7 14  2  0  0  0  0
  8  9  1  0  0  0  0
  8 15  1  0  0  0  0
  9 16  1  0  0  0  0
 10 13  1  0  0  0  0
 11 13  1  0  0  0  0
 12 17  1  0  0  0  0
  1 18  1  0  0  0  0
  2 19  1  0  0  0  0
  3 20  1  0  0  0  0
  8 21  1  0  0  0  0
  8 22  1  0  0  0  0
  9 23  1  0  0  0  0
  9 24  1  0  0  0  0
 10 25  1  0  0  0  0
 10 26  1  0  0  0  0
 10 27  1  0  0  0  0
 11 28  1  0  0  0  0
 11 29  1  0  0  0  0
 12 30  1  0  0  0  0
 12 31  1  0  0  0  0
M  END
> <Catalog ID>
Z147433544

> <MW>
255.066

> <MW (desalted)>
255.697

> <ClogP>
1.503

> <logS>
-2.67

> <HBD>
0

> <HBA>
3

> <TPSA>
38.77

> <RotBonds>
3

> <ROCS_ShapeQuery>
A71EV2A-x0451_0A_A71EV2A-x0310_0A_A71EV2A-x0416_0A_peptide

> <ROCS_TanimotoCombo>
0.440 

> <ROCS_ShapeTanimoto>
0.317 

> <ROCS_ColorTanimoto>
0.123 

> <ROCS_RefTversky>
0.278 

> <ROCS_RefColorTversky>
0.132 

> <ROCS_RefTverskyCombo>
0.411 

> <ROCS_FitTversky>
1.797 

> <ROCS_FitColorTversky>
0.634 

> <ROCS_FitTverskyCombo>
2.431 

> <ROCS_ColorScore>
-4.024

> <ROCS_Overlap>
1929.085

> <ROCS_Rank>
206                 

$$$$
untitled-dbase-318_2267
  -OEChem-11112315393D

 25 25  0     0  0  0  0  0  0999 V2000
    6.9467   11.5299   25.2714 C   0  0  0  0  0  0  0  0  0  0  0  0
    6.9233   10.1602   25.1118 C   0  0  0  0  0  0  0  0  0  0  0  0
    8.7599   10.5911   23.9933 C   0  0  0  0  0  0  0  0  0  0  0  0
   10.8898   11.6234   23.1999 C   0  0  0  0  0  0  0  0  0  0  0  0
   11.2698   14.5651   23.2104 C   0  0  0  0  0  0  0  0  0  0  0  0
    5.8965    9.2468   25.6513 C   0  0  0  0  0  0  0  0  0  0  0  0
   10.0062   10.3941   23.1717 C   0  0  0  0  0  0  0  0  0  0  0  0
   12.1115   15.7942   22.9848 C   0  0  0  0  0  0  0  0  0  0  0  0
    7.9620    9.6202   24.3789 N   0  0  0  0  0  0  0  0  0  0  0  0
   10.5741   12.5316   22.2085 N   0  0  0  0  0  0  0  0  0  0  0  0
   11.2832   13.7038   22.1309 N   0  0  0  0  0  0  0  0  0  0  0  0
   11.7718   11.7697   24.0445 O   0  0  0  0  0  0  0  0  0  0  0  0
   10.6655   14.3761   24.2647 O   0  0  0  0  0  0  0  0  0  0  0  0
    8.3217   12.1782   24.4773 S   0  0  0  0  0  0  0  0  0  0  0  0
   12.1009   16.1498   21.2503 Cl  0  0  0  0  0  0  0  0  0  0  0  0
    6.2473   12.1630   25.7990 H   0  0  0  0  0  0  0  0  0  0  0  0
    5.0701    9.1110   24.9348 H   0  0  0  0  0  0  0  0  0  0  0  0
    6.3093    8.2496   25.8801 H   0  0  0  0  0  0  0  0  0  0  0  0
    5.4643    9.6217   26.5948 H   0  0  0  0  0  0  0  0  0  0  0  0
   10.5936    9.5504   23.5543 H   0  0  0  0  0  0  0  0  0  0  0  0
    9.7286   10.1264   22.1451 H   0  0  0  0  0  0  0  0  0  0  0  0
   11.7306   16.6658   23.5233 H   0  0  0  0  0  0  0  0  0  0  0  0
   13.1383   15.5964   23.3048 H   0  0  0  0  0  0  0  0  0  0  0  0
    9.8297   12.3351   21.5480 H   0  0  0  0  0  0  0  0  0  0  0  0
   11.7845   13.8785   21.2664 H   0  0  0  0  0  0  0  0  0  0  0  0
  1  2  2  0  0  0  0
  1 14  1  0  0  0  0
  2  6  1  0  0  0  0
  2  9  1  0  0  0  0
  3  7  1  0  0  0  0
  3  9  2  0  0  0  0
  3 14  1  0  0  0  0
  4  7  1  0  0  0  0
  4 10  1  0  0  0  0
  4 12  2  0  0  0  0
  5  8  1  0  0  0  0
  5 11  1  0  0  0  0
  5 13  2  0  0  0  0
  8 15  1  0  0  0  0
 10 11  1  0  0  0  0
  1 16  1  0  0  0  0
  6 17  1  0  0  0  0
  6 18  1  0  0  0  0
  6 19  1  0  0  0  0
  7 20  1  0  0  0  0
  7 21  1  0  0  0  0
  8 22  1  0  0  0  0
  8 23  1  0  0  0  0
 10 24  1  0  0  0  0
 11 25  1  0  0  0  0
M  END
> <Catalog ID>
Z119894752

> <MW>
282.995

> <MW (desalted)>
247.702

> <ClogP>
-0.374

> <logS>
-1.95

> <HBD>
2

> <HBA>
3

> <TPSA>
71.09

> <RotBonds>
4

> <ROCS_ShapeQuery>
A71EV2A-x0451_0A_A71EV2A-x0310_0A_A71EV2A-x0416_0A_peptide

> <ROCS_TanimotoCombo>
0.440 

> <ROCS_ShapeTanimoto>
0.273 

> <ROCS_ColorTanimoto>
0.167 

> <ROCS_RefTversky>
0.244 

> <ROCS_RefColorTversky>
0.179 

> <ROCS_RefTverskyCombo>
0.423 

> <ROCS_FitTversky>
1.776 

> <ROCS_FitColorTversky>
0.718 

> <ROCS_FitTverskyCombo>
2.494 

> <ROCS_ColorScore>
-5.440

> <ROCS_Overlap>
1692.073

> <ROCS_Rank>
207                 

$$$$
untitled-dbase-25_221
  -OEChem-11112315393D

 38 39  0     1  0  0  0  0  0999 V2000
    6.3202   12.3366   26.1666 C   0  0  0  0  0  0  0  0  0  0  0  0
    6.4491   11.0220   26.5953 C   0  0  0  0  0  0  0  0  0  0  0  0
    6.9977   12.7626   25.0261 C   0  0  0  0  0  0  0  0  0  0  0  0
    7.2617   10.1375   25.8864 C   0  0  0  0  0  0  0  0  0  0  0  0
    7.8258   11.8837   24.3049 C   0  0  0  0  0  0  0  0  0  0  0  0
    7.9731   10.5481   24.7419 C   0  0  0  0  0  0  0  0  0  0  0  0
   13.2336   13.6185   23.4732 C   0  0  0  0  0  0  0  0  0  0  0  0
   12.1780   13.1839   22.7817 C   0  0  0  0  0  0  0  0  0  0  0  0
   10.8504   13.1881   23.4288 C   0  0  0  0  0  0  0  0  0  0  0  0
    8.4680   12.3786   23.0291 C   0  0  0  0  0  0  0  0  0  0  0  0
   10.1826    9.9013   23.8444 C   0  0  0  0  0  0  0  0  0  0  0  0
   10.4094   10.8797   22.6982 C   0  0  0  0  0  0  0  0  0  0  0  0
    6.5886    8.8810   23.3241 C   0  0  0  0  0  0  0  0  0  0  0  0
    8.4443    7.2385   23.7765 C   0  0  0  0  0  0  0  0  0  0  0  0
    8.0879    8.6268   23.2655 C   0  0  0  0  0  0  0  0  0  0  0  0
    8.7711    9.6182   24.0805 N   0  0  2  0  0  0  0  0  0  0  0  0
    9.9258   12.2197   23.0340 N   0  0  0  0  0  0  0  0  0  0  0  0
   10.6359   14.0552   24.2781 O   0  0  0  0  0  0  0  0  0  0  0  0
    5.6892   13.0303   26.7166 H   0  0  0  0  0  0  0  0  0  0  0  0
    5.9255   10.6873   27.4848 H   0  0  0  0  0  0  0  0  0  0  0  0
    6.8616   13.7884   24.6968 H   0  0  0  0  0  0  0  0  0  0  0  0
    7.3428    9.1279   26.2681 H   0  0  0  0  0  0  0  0  0  0  0  0
   14.2333   13.6394   23.0524 H   0  0  0  0  0  0  0  0  0  0  0  0
   13.1099   13.9674   24.4930 H   0  0  0  0  0  0  0  0  0  0  0  0
   12.2612   12.8287   21.7629 H   0  0  0  0  0  0  0  0  0  0  0  0
    8.0594   11.8539   22.1595 H   0  0  0  0  0  0  0  0  0  0  0  0
    8.2231   13.4365   22.8746 H   0  0  0  0  0  0  0  0  0  0  0  0
   10.7271    8.9672   23.6132 H   0  0  0  0  0  0  0  0  0  0  0  0
   10.6610   10.2583   24.7756 H   0  0  0  0  0  0  0  0  0  0  0  0
   11.4752   10.9625   22.4850 H   0  0  0  0  0  0  0  0  0  0  0  0
    9.9125   10.5187   21.7985 H   0  0  0  0  0  0  0  0  0  0  0  0
    6.2151    8.7761   24.3479 H   0  0  0  0  0  0  0  0  0  0  0  0
    6.3396    9.8881   22.9714 H   0  0  0  0  0  0  0  0  0  0  0  0
    6.0486    8.1681   22.6914 H   0  0  0  0  0  0  0  0  0  0  0  0
    8.1023    7.1051   24.8087 H   0  0  0  0  0  0  0  0  0  0  0  0
    9.5277    7.0815   23.7553 H   0  0  0  0  0  0  0  0  0  0  0  0
    7.9742    6.4559   23.1705 H   0  0  0  0  0  0  0  0  0  0  0  0
    8.4389    8.7370   22.2337 H   0  0  0  0  0  0  0  0  0  0  0  0
  1  2  1  0  0  0  0
  1  3  2  0  0  0  0
  2  4  2  0  0  0  0
  3  5  1  0  0  0  0
  4  6  1  0  0  0  0
  5  6  2  0  0  0  0
  5 10  1  0  0  0  0
  6 16  1  0  0  0  0
  7  8  2  0  0  0  0
  8  9  1  0  0  0  0
  9 17  1  0  0  0  0
  9 18  2  0  0  0  0
 10 17  1  0  0  0  0
 11 12  1  0  0  0  0
 11 16  1  0  0  0  0
 12 17  1  0  0  0  0
 13 15  1  0  0  0  0
 14 15  1  0  0  0  0
 15 16  1  0  0  0  0
  1 19  1  0  0  0  0
  2 20  1  0  0  0  0
  3 21  1  0  0  0  0
  4 22  1  0  0  0  0
  7 23  1  0  0  0  0
  7 24  1  0  0  0  0
  8 25  1  0  0  0  0
 10 26  1  0  0  0  0
 10 27  1  0  0  0  0
 11 28  1  0  0  0  0
 11 29  1  0  0  0  0
 12 30  1  0  0  0  0
 12 31  1  0  0  0  0
 13 32  1  0  0  0  0
 13 33  1  0  0  0  0
 13 34  1  0  0  0  0
 14 35  1  0  0  0  0
 14 36  1  0  0  0  0
 14 37  1  0  0  0  0
 15 38  1  0  0  0  0
M  END
> <Catalog ID>
Z2737383363

> <MW>
244.332

> <MW (desalted)>
244.332

> <ClogP>
2.493

> <logS>
-3.07

> <HBD>
0

> <HBA>
2

> <TPSA>
23.55

> <RotBonds>
2

> <ROCS_ShapeQuery>
A71EV2A-x0451_0A_A71EV2A-x0310_0A_A71EV2A-x0416_0A_peptide

> <ROCS_TanimotoCombo>
0.440 

> <ROCS_ShapeTanimoto>
0.318 

> <ROCS_ColorTanimoto>
0.122 

> <ROCS_RefTversky>
0.280 

> <ROCS_RefColorTversky>
0.132 

> <ROCS_RefTverskyCombo>
0.412 

> <ROCS_FitTversky>
1.741 

> <ROCS_FitColorTversky>
0.630 

> <ROCS_FitTverskyCombo>
2.372 

> <ROCS_ColorScore>
-3.994

> <ROCS_Overlap>
1942.880

> <ROCS_Rank>
208                 

$$$$
untitled-dbase-86_23
  -OEChem-11112315393D

 46 49  0     1  0  0  0  0  0999 V2000
    8.4549   12.6454   24.1089 C   0  0  0  0  0  0  0  0  0  0  0  0
    9.7937   10.3928   23.1863 C   0  0  0  0  0  0  0  0  0  0  0  0
    9.5962   12.8064   23.2973 C   0  0  0  0  0  0  0  0  0  0  0  0
   10.2965   11.6630   22.8423 C   0  0  0  0  0  0  0  0  0  0  0  0
    7.9894   11.3783   24.4489 C   0  0  0  0  0  0  0  0  0  0  0  0
    8.6434   10.2522   23.9649 C   0  0  0  0  0  0  0  0  0  0  0  0
   13.7509   16.1498   20.6112 C   0  0  0  0  0  0  0  0  0  0  0  0
   13.4896   15.1696   21.4786 C   0  0  0  0  0  0  0  0  0  0  0  0
   12.2880   15.2735   22.3319 C   0  0  0  0  0  0  0  0  0  0  0  0
   13.1527   10.2628   23.0384 C   0  0  0  0  0  0  0  0  0  0  0  0
   12.8158    9.7009   21.6643 C   0  0  0  0  0  0  0  0  0  0  0  0
   12.8261   11.7454   22.9433 C   0  0  0  0  0  0  0  0  0  0  0  0
   11.8518   10.6923   21.0023 C   0  0  0  0  0  0  0  0  0  0  0  0
   11.5411   13.1730   21.2855 C   0  0  0  0  0  0  0  0  0  0  0  0
    6.6994   10.0033   25.8019 C   0  0  0  0  0  0  0  0  0  0  0  0
    6.8795    8.9505   24.7256 C   0  0  0  0  0  0  0  0  0  0  0  0
   10.0394   14.2256   22.9553 C   0  0  2  0  0  0  0  0  0  0  0  0
   11.5854   11.8241   22.0250 C   0  0  0  0  0  0  0  0  0  0  0  0
    8.9653   14.9672   22.1449 C   0  0  0  0  0  0  0  0  0  0  0  0
   11.3221   14.2712   22.2251 N   0  0  0  0  0  0  0  0  0  0  0  0
   12.2107   16.2440   23.0875 O   0  0  0  0  0  0  0  0  0  0  0  0
    6.8814   11.3108   25.2512 O   0  0  0  0  0  0  0  0  0  0  0  0
    8.2209    8.9754   24.2299 O   0  0  0  0  0  0  0  0  0  0  0  0
    7.9243   13.5218   24.4762 H   0  0  0  0  0  0  0  0  0  0  0  0
   10.3125    9.4920   22.8657 H   0  0  0  0  0  0  0  0  0  0  0  0
   14.6172   16.1302   19.9585 H   0  0  0  0  0  0  0  0  0  0  0  0
   13.0870   17.0048   20.5400 H   0  0  0  0  0  0  0  0  0  0  0  0
   14.1275   14.3012   21.5785 H   0  0  0  0  0  0  0  0  0  0  0  0
   12.5859    9.7629   23.8382 H   0  0  0  0  0  0  0  0  0  0  0  0
   14.2240   10.1197   23.2556 H   0  0  0  0  0  0  0  0  0  0  0  0
   13.7231    9.5426   21.0503 H   0  0  0  0  0  0  0  0  0  0  0  0
   12.3339    8.7087   21.7670 H   0  0  0  0  0  0  0  0  0  0  0  0
   12.6109   12.1206   23.9518 H   0  0  0  0  0  0  0  0  0  0  0  0
   13.6847   12.3141   22.5733 H   0  0  0  0  0  0  0  0  0  0  0  0
   12.3483   11.0842   20.0987 H   0  0  0  0  0  0  0  0  0  0  0  0
   10.9462   10.1826   20.6403 H   0  0  0  0  0  0  0  0  0  0  0  0
   12.4601   13.3311   20.7173 H   0  0  0  0  0  0  0  0  0  0  0  0
   10.7153   13.1966   20.5681 H   0  0  0  0  0  0  0  0  0  0  0  0
    5.7020    9.9502   26.2562 H   0  0  0  0  0  0  0  0  0  0  0  0
    7.4429    9.8692   26.5939 H   0  0  0  0  0  0  0  0  0  0  0  0
    6.6653    7.9441   25.1054 H   0  0  0  0  0  0  0  0  0  0  0  0
    6.2095    9.1484   23.8836 H   0  0  0  0  0  0  0  0  0  0  0  0
   10.1763   14.7386   23.9097 H   0  0  0  0  0  0  0  0  0  0  0  0
    8.8207   14.4653   21.1927 H   0  0  0  0  0  0  0  0  0  0  0  0
    9.2865   15.9900   21.9709 H   0  0  0  0  0  0  0  0  0  0  0  0
    8.0317   14.9692   22.6998 H   0  0  0  0  0  0  0  0  0  0  0  0
  1  3  1  0  0  0  0
  1  5  2  0  0  0  0
  2  4  1  0  0  0  0
  2  6  2  0  0  0  0
  3  4  2  0  0  0  0
  3 17  1  0  0  0  0
  4 18  1  0  0  0  0
  5  6  1  0  0  0  0
  5 22  1  0  0  0  0
  6 23  1  0  0  0  0
  7  8  2  0  0  0  0
  8  9  1  0  0  0  0
  9 20  1  0  0  0  0
  9 21  2  0  0  0  0
 10 11  1  0  0  0  0
 10 12  1  0  0  0  0
 11 13  1  0  0  0  0
 12 18  1  0  0  0  0
 13 18  1  0  0  0  0
 14 18  1  0  0  0  0
 14 20  1  0  0  0  0
 15 16  1  0  0  0  0
 15 22  1  0  0  0  0
 16 23  1  0  0  0  0
 17 19  1  0  0  0  0
 17 20  1  0  0  0  0
  1 24  1  0  0  0  0
  2 25  1  0  0  0  0
  7 26  1  0  0  0  0
  7 27  1  0  0  0  0
  8 28  1  0  0  0  0
 10 29  1  0  0  0  0
 10 30  1  0  0  0  0
 11 31  1  0  0  0  0
 11 32  1  0  0  0  0
 12 33  1  0  0  0  0
 12 34  1  0  0  0  0
 13 35  1  0  0  0  0
 13 36  1  0  0  0  0
 14 37  1  0  0  0  0
 14 38  1  0  0  0  0
 15 39  1  0  0  0  0
 15 40  1  0  0  0  0
 16 41  1  0  0  0  0
 16 42  1  0  0  0  0
 17 43  1  0  0  0  0
 19 44  1  0  0  0  0
 19 45  1  0  0  0  0
 19 46  1  0  0  0  0
M  END
> <Catalog ID>
Z1937819977

> <MW>
313.391

> <MW (desalted)>
313.391

> <ClogP>
3.261

> <logS>
-4.442

> <HBD>
0

> <HBA>
3

> <TPSA>
38.77

> <RotBonds>
1

> <ROCS_ShapeQuery>
A71EV2A-x0451_0A_A71EV2A-x0310_0A_A71EV2A-x0416_0A_peptide

> <ROCS_TanimotoCombo>
0.440 

> <ROCS_ShapeTanimoto>
0.324 

> <ROCS_ColorTanimoto>
0.116 

> <ROCS_RefTversky>
0.293 

> <ROCS_RefColorTversky>
0.135 

> <ROCS_RefTverskyCombo>
0.428 

> <ROCS_FitTversky>
1.494 

> <ROCS_FitColorTversky>
0.448 

> <ROCS_FitTverskyCombo>
1.942 

> <ROCS_ColorScore>
-4.122

> <ROCS_Overlap>
2034.403

> <ROCS_Rank>
209                 

$$$$
untitled-dbase-600_268
  -OEChem-11112315393D

 35 37  0     1  0  0  0  0  0999 V2000
   10.0683   10.5207   23.1226 C   0  0  0  0  0  0  0  0  0  0  0  0
    9.1219    9.8716   23.9158 C   0  0  0  0  0  0  0  0  0  0  0  0
    8.9937   12.6414   23.5633 C   0  0  0  0  0  0  0  0  0  0  0  0
   10.0010   11.9026   22.9421 C   0  0  0  0  0  0  0  0  0  0  0  0
    8.1056   10.6077   24.5255 C   0  0  0  0  0  0  0  0  0  0  0  0
    8.0547   11.9948   24.3674 C   0  0  0  0  0  0  0  0  0  0  0  0
   12.7758   13.2579   23.7255 C   0  0  0  0  0  0  0  0  0  0  0  0
   10.2680   14.8117   21.4620 C   0  0  0  0  0  0  0  0  0  0  0  0
   10.3834   13.3921   20.9167 C   0  0  0  0  0  0  0  0  0  0  0  0
   11.5081   14.9553   22.3309 C   0  0  0  0  0  0  0  0  0  0  0  0
    6.0274   10.6915   25.5549 C   0  0  0  0  0  0  0  0  0  0  0  0
    6.4239   12.0803   26.0166 C   0  0  0  0  0  0  0  0  0  0  0  0
   11.0238   12.6036   22.0642 C   0  0  1  0  0  0  0  0  0  0  0  0
   12.4799   12.0383   24.5612 C   0  0  0  0  0  0  0  0  0  0  0  0
   11.7974   13.6039   22.8053 N   0  0  0  0  0  0  0  0  0  0  0  0
   13.8332   13.8728   23.8745 O   0  0  0  0  0  0  0  0  0  0  0  0
    7.1930    9.9115   25.2743 O   0  0  0  0  0  0  0  0  0  0  0  0
    7.1021   12.7763   24.9670 O   0  0  0  0  0  0  0  0  0  0  0  0
   13.8733   11.7953   25.6086 Cl  0  0  0  0  0  0  0  0  0  0  0  0
   10.8582    9.9415   22.6516 H   0  0  0  0  0  0  0  0  0  0  0  0
    9.1894    8.7969   24.0611 H   0  0  0  0  0  0  0  0  0  0  0  0
    8.9340   13.7167   23.4134 H   0  0  0  0  0  0  0  0  0  0  0  0
   10.2270   15.5602   20.6655 H   0  0  0  0  0  0  0  0  0  0  0  0
    9.3638   14.9087   22.0740 H   0  0  0  0  0  0  0  0  0  0  0  0
    9.4153   12.9997   20.5892 H   0  0  0  0  0  0  0  0  0  0  0  0
   11.0605   13.3950   20.0531 H   0  0  0  0  0  0  0  0  0  0  0  0
   12.3678   15.2942   21.7423 H   0  0  0  0  0  0  0  0  0  0  0  0
   11.3582   15.6413   23.1688 H   0  0  0  0  0  0  0  0  0  0  0  0
    5.4297   10.1689   26.3120 H   0  0  0  0  0  0  0  0  0  0  0  0
    5.4368   10.7504   24.6355 H   0  0  0  0  0  0  0  0  0  0  0  0
    5.5503   12.6701   26.3210 H   0  0  0  0  0  0  0  0  0  0  0  0
    7.1067   12.0171   26.8694 H   0  0  0  0  0  0  0  0  0  0  0  0
   11.7173   11.8225   21.6784 H   0  0  0  0  0  0  0  0  0  0  0  0
   12.3542   11.1848   23.9049 H   0  0  0  0  0  0  0  0  0  0  0  0
   11.5945   12.2272   25.1571 H   0  0  0  0  0  0  0  0  0  0  0  0
  1  2  2  0  0  0  0
  1  4  1  0  0  0  0
  2  5  1  0  0  0  0
  3  4  2  0  0  0  0
  3  6  1  0  0  0  0
  4 13  1  0  0  0  0
  5  6  2  0  0  0  0
  5 17  1  0  0  0  0
  6 18  1  0  0  0  0
  7 14  1  0  0  0  0
  7 15  1  0  0  0  0
  7 16  2  0  0  0  0
  8  9  1  0  0  0  0
  8 10  1  0  0  0  0
  9 13  1  0  0  0  0
 10 15  1  0  0  0  0
 11 12  1  0  0  0  0
 11 17  1  0  0  0  0
 12 18  1  0  0  0  0
 13 15  1  0  0  0  0
 14 19  1  0  0  0  0
  1 20  1  0  0  0  0
  2 21  1  0  0  0  0
  3 22  1  0  0  0  0
  8 23  1  0  0  0  0
  8 24  1  0  0  0  0
  9 25  1  0  0  0  0
  9 26  1  0  0  0  0
 10 27  1  0  0  0  0
 10 28  1  0  0  0  0
 11 29  1  0  0  0  0
 11 30  1  0  0  0  0
 12 31  1  0  0  0  0
 12 32  1  0  0  0  0
 13 33  1  0  0  0  0
 14 34  1  0  0  0  0
 14 35  1  0  0  0  0
M  END
> <Catalog ID>
Z57042000

> <MW>
281.082

> <MW (desalted)>
281.735

> <ClogP>
1.517

> <logS>
-3.26

> <HBD>
0

> <HBA>
3

> <TPSA>
38.77

> <RotBonds>
2

> <ROCS_ShapeQuery>
A71EV2A-x0451_0A_A71EV2A-x0310_0A_A71EV2A-x0416_0A_peptide

> <ROCS_TanimotoCombo>
0.440 

> <ROCS_ShapeTanimoto>
0.328 

> <ROCS_ColorTanimoto>
0.112 

> <ROCS_RefTversky>
0.289 

> <ROCS_RefColorTversky>
0.125 

> <ROCS_RefTverskyCombo>
0.413 

> <ROCS_FitTversky>
1.706 

> <ROCS_FitColorTversky>
0.520 

> <ROCS_FitTverskyCombo>
2.226 

> <ROCS_ColorScore>
-3.793

> <ROCS_Overlap>
2003.894

> <ROCS_Rank>
210                 

$$$$
untitled-dbase-374_526
  -OEChem-11112315393D

 38 40  0     1  0  0  0  0  0999 V2000
   10.1806   10.3845   23.1628 C   0  0  0  0  0  0  0  0  0  0  0  0
    9.2024    9.7505   23.9290 C   0  0  0  0  0  0  0  0  0  0  0  0
    8.9813   12.4743   23.3527 C   0  0  0  0  0  0  0  0  0  0  0  0
   10.0700   11.7447   22.8748 C   0  0  0  0  0  0  0  0  0  0  0  0
    8.1260   10.4850   24.4298 C   0  0  0  0  0  0  0  0  0  0  0  0
    8.0156   11.8469   24.1419 C   0  0  0  0  0  0  0  0  0  0  0  0
   11.0127   14.7880   22.8559 C   0  0  0  0  0  0  0  0  0  0  0  0
   10.3341   12.8018   19.7865 C   0  0  0  0  0  0  0  0  0  0  0  0
   11.2155   11.8665   20.6076 C   0  0  0  0  0  0  0  0  0  0  0  0
    6.1546   11.4912   26.5609 C   0  0  0  0  0  0  0  0  0  0  0  0
   10.5534   14.1562   20.4427 C   0  0  0  0  0  0  0  0  0  0  0  0
    7.0305   10.2487   26.4609 C   0  0  0  0  0  0  0  0  0  0  0  0
    6.8311   12.7077   25.9414 C   0  0  0  0  0  0  0  0  0  0  0  0
   11.1314   12.4295   22.0304 C   0  0  1  0  0  0  0  0  0  0  0  0
   11.5407   16.1333   22.4260 C   0  0  0  0  0  0  0  0  0  0  0  0
   10.8533   13.8561   21.8410 N   0  0  0  0  0  0  0  0  0  0  0  0
   10.7433   14.5744   24.0392 O   0  0  0  0  0  0  0  0  0  0  0  0
    7.1586    9.7977   25.1106 O   0  0  0  0  0  0  0  0  0  0  0  0
    6.9323   12.5920   24.5202 O   0  0  0  0  0  0  0  0  0  0  0  0
   10.1407   17.1110   21.9998 Cl  0  0  0  0  0  0  0  0  0  0  0  0
   11.0311    9.8125   22.8003 H   0  0  0  0  0  0  0  0  0  0  0  0
    9.2985    8.6929   24.1478 H   0  0  0  0  0  0  0  0  0  0  0  0
    8.8759   13.5224   23.0932 H   0  0  0  0  0  0  0  0  0  0  0  0
   10.6040   12.8025   18.7266 H   0  0  0  0  0  0  0  0  0  0  0  0
    9.2828   12.5042   19.8749 H   0  0  0  0  0  0  0  0  0  0  0  0
   10.8960   10.8228   20.5210 H   0  0  0  0  0  0  0  0  0  0  0  0
   12.2484   11.9383   20.2436 H   0  0  0  0  0  0  0  0  0  0  0  0
    5.2032   11.3260   26.0490 H   0  0  0  0  0  0  0  0  0  0  0  0
    5.9342   11.6761   27.6155 H   0  0  0  0  0  0  0  0  0  0  0  0
   11.4237   14.6673   20.0165 H   0  0  0  0  0  0  0  0  0  0  0  0
    9.6814   14.8104   20.3605 H   0  0  0  0  0  0  0  0  0  0  0  0
    8.0189   10.4107   26.9180 H   0  0  0  0  0  0  0  0  0  0  0  0
    6.5667    9.4359   27.0348 H   0  0  0  0  0  0  0  0  0  0  0  0
    6.3247   13.6432   26.2261 H   0  0  0  0  0  0  0  0  0  0  0  0
    7.8520   12.7908   26.3368 H   0  0  0  0  0  0  0  0  0  0  0  0
   12.1027   12.3187   22.5646 H   0  0  0  0  0  0  0  0  0  0  0  0
   12.1791   15.9998   21.5602 H   0  0  0  0  0  0  0  0  0  0  0  0
   12.0709   16.5843   23.2569 H   0  0  0  0  0  0  0  0  0  0  0  0
  1  2  2  0  0  0  0
  1  4  1  0  0  0  0
  2  5  1  0  0  0  0
  3  4  2  0  0  0  0
  3  6  1  0  0  0  0
  4 14  1  0  0  0  0
  5  6  2  0  0  0  0
  5 18  1  0  0  0  0
  6 19  1  0  0  0  0
  7 15  1  0  0  0  0
  7 16  1  0  0  0  0
  7 17  2  0  0  0  0
  8  9  1  0  0  0  0
  8 11  1  0  0  0  0
  9 14  1  0  0  0  0
 10 12  1  0  0  0  0
 10 13  1  0  0  0  0
 11 16  1  0  0  0  0
 12 18  1  0  0  0  0
 13 19  1  0  0  0  0
 14 16  1  0  0  0  0
 15 20  1  0  0  0  0
  1 21  1  0  0  0  0
  2 22  1  0  0  0  0
  3 23  1  0  0  0  0
  8 24  1  0  0  0  0
  8 25  1  0  0  0  0
  9 26  1  0  0  0  0
  9 27  1  0  0  0  0
 10 28  1  0  0  0  0
 10 29  1  0  0  0  0
 11 30  1  0  0  0  0
 11 31  1  0  0  0  0
 12 32  1  0  0  0  0
 12 33  1  0  0  0  0
 13 34  1  0  0  0  0
 13 35  1  0  0  0  0
 14 36  1  0  0  0  0
 15 37  1  0  0  0  0
 15 38  1  0  0  0  0
M  END
> <Catalog ID>
Z85922618

> <MW>
295.098

> <MW (desalted)>
295.761

> <ClogP>
1.676

> <logS>
-3.41

> <HBD>
0

> <HBA>
3

> <TPSA>
38.77

> <RotBonds>
2

> <ROCS_ShapeQuery>
A71EV2A-x0451_0A_A71EV2A-x0310_0A_A71EV2A-x0416_0A_peptide

> <ROCS_TanimotoCombo>
0.440 

> <ROCS_ShapeTanimoto>
0.312 

> <ROCS_ColorTanimoto>
0.128 

> <ROCS_RefTversky>
0.279 

> <ROCS_RefColorTversky>
0.140 

> <ROCS_RefTverskyCombo>
0.420 

> <ROCS_FitTversky>
1.599 

> <ROCS_FitColorTversky>
0.586 

> <ROCS_FitTverskyCombo>
2.185 

> <ROCS_ColorScore>
-4.271

> <ROCS_Overlap>
1939.031

> <ROCS_Rank>
211                 

$$$$
untitled-dbase-216_203
  -OEChem-11112315393D

 35 36  0     0  0  0  0  0  0999 V2000
    9.1466   10.1880   23.4463 C   0  0  0  0  0  0  0  0  0  0  0  0
    8.0342    9.8370   24.2826 C   0  0  0  0  0  0  0  0  0  0  0  0
    7.4894   10.9636   24.8825 C   0  0  0  0  0  0  0  0  0  0  0  0
    9.3950   11.5401   23.4260 C   0  0  0  0  0  0  0  0  0  0  0  0
    9.9523    9.2599   22.6871 C   0  0  0  0  0  0  0  0  0  0  0  0
   10.9159   13.4892   23.1963 C   0  0  0  0  0  0  0  0  0  0  0  0
    7.5619    8.4209   24.4663 C   0  0  0  0  0  0  0  0  0  0  0  0
    6.3241   11.0649   25.8281 C   0  0  0  0  0  0  0  0  0  0  0  0
    6.0510    8.2944   24.6485 C   0  0  0  0  0  0  0  0  0  0  0  0
    6.1896    9.8438   26.7359 C   0  0  0  0  0  0  0  0  0  0  0  0
    5.5599    8.6228   26.0606 C   0  0  0  0  0  0  0  0  0  0  0  0
   11.8093    9.0817   21.1855 C   0  0  0  0  0  0  0  0  0  0  0  0
   11.9361   14.0266   22.2196 C   0  0  0  0  0  0  0  0  0  0  0  0
   10.3443   12.2772   22.7705 N   0  0  0  0  0  0  0  0  0  0  0  0
    9.7836    8.0272   22.6609 O   0  0  0  0  0  0  0  0  0  0  0  0
   10.6537   14.1131   24.2210 O   0  0  0  0  0  0  0  0  0  0  0  0
   10.9424    9.8967   21.9817 O   0  0  0  0  0  0  0  0  0  0  0  0
    8.2998   12.4007   24.4085 S   0  0  0  0  0  0  0  0  0  0  0  0
   11.0864   15.0758   21.0739 Cl  0  0  0  0  0  0  0  0  0  0  0  0
    7.8493    7.8197   23.5934 H   0  0  0  0  0  0  0  0  0  0  0  0
    8.0869    7.9765   25.3236 H   0  0  0  0  0  0  0  0  0  0  0  0
    6.4276   11.9786   26.4304 H   0  0  0  0  0  0  0  0  0  0  0  0
    5.3886   11.1776   25.2618 H   0  0  0  0  0  0  0  0  0  0  0  0
    5.5203    8.9138   23.9147 H   0  0  0  0  0  0  0  0  0  0  0  0
    5.7746    7.2532   24.4385 H   0  0  0  0  0  0  0  0  0  0  0  0
    7.1978    9.5556   27.0614 H   0  0  0  0  0  0  0  0  0  0  0  0
    5.6299   10.0973   27.6456 H   0  0  0  0  0  0  0  0  0  0  0  0
    4.4729    8.8014   26.0004 H   0  0  0  0  0  0  0  0  0  0  0  0
    5.6757    7.7382   26.7097 H   0  0  0  0  0  0  0  0  0  0  0  0
   12.5447    9.7143   20.6823 H   0  0  0  0  0  0  0  0  0  0  0  0
   11.2188    8.5333   20.4473 H   0  0  0  0  0  0  0  0  0  0  0  0
   12.3264    8.3721   21.8356 H   0  0  0  0  0  0  0  0  0  0  0  0
   12.4464   13.2365   21.6629 H   0  0  0  0  0  0  0  0  0  0  0  0
   12.6817   14.6167   22.7598 H   0  0  0  0  0  0  0  0  0  0  0  0
   10.6749   11.9041   21.8691 H   0  0  0  0  0  0  0  0  0  0  0  0
  1  2  1  0  0  0  0
  1  4  2  0  0  0  0
  1  5  1  0  0  0  0
  2  3  2  0  0  0  0
  2  7  1  0  0  0  0
  3  8  1  0  0  0  0
  3 18  1  0  0  0  0
  4 14  1  0  0  0  0
  4 18  1  0  0  0  0
  5 15  2  0  0  0  0
  5 17  1  0  0  0  0
  6 13  1  0  0  0  0
  6 14  1  0  0  0  0
  6 16  2  0  0  0  0
  7  9  1  0  0  0  0
  8 10  1  0  0  0  0
  9 11  1  0  0  0  0
 10 11  1  0  0  0  0
 12 17  1  0  0  0  0
 13 19  1  0  0  0  0
  7 20  1  0  0  0  0
  7 21  1  0  0  0  0
  8 22  1  0  0  0  0
  8 23  1  0  0  0  0
  9 24  1  0  0  0  0
  9 25  1  0  0  0  0
 10 26  1  0  0  0  0
 10 27  1  0  0  0  0
 11 28  1  0  0  0  0
 11 29  1  0  0  0  0
 12 30  1  0  0  0  0
 12 31  1  0  0  0  0
 12 32  1  0  0  0  0
 13 33  1  0  0  0  0
 13 34  1  0  0  0  0
 14 35  1  0  0  0  0
M  END
> <Catalog ID>
Z56837133

> <MW>
301.054

> <MW (desalted)>
301.789

> <ClogP>
4.077

> <logS>
-4.59

> <HBD>
1

> <HBA>
2

> <TPSA>
55.4

> <RotBonds>
4

> <ROCS_ShapeQuery>
A71EV2A-x0451_0A_A71EV2A-x0310_0A_A71EV2A-x0416_0A_peptide

> <ROCS_TanimotoCombo>
0.440 

> <ROCS_ShapeTanimoto>
0.304 

> <ROCS_ColorTanimoto>
0.135 

> <ROCS_RefTversky>
0.271 

> <ROCS_RefColorTversky>
0.144 

> <ROCS_RefTverskyCombo>
0.415 

> <ROCS_FitTversky>
1.665 

> <ROCS_FitColorTversky>
0.691 

> <ROCS_FitTverskyCombo>
2.356 

> <ROCS_ColorScore>
-4.378

> <ROCS_Overlap>
1881.936

> <ROCS_Rank>
212                 

$$$$
untitled-dbase-571_84
  -OEChem-11112315393D

 31 32  0     0  0  0  0  0  0999 V2000
    5.6336   11.5429   26.0422 C   0  0  0  0  0  0  0  0  0  0  0  0
    6.4902   11.1548   27.0845 C   0  0  0  0  0  0  0  0  0  0  0  0
    6.1395   11.8162   24.7697 C   0  0  0  0  0  0  0  0  0  0  0  0
    7.8647   11.0345   26.8690 C   0  0  0  0  0  0  0  0  0  0  0  0
    7.5022   11.6829   24.5623 C   0  0  0  0  0  0  0  0  0  0  0  0
    8.3556   11.2962   25.6008 C   0  0  0  0  0  0  0  0  0  0  0  0
   12.6177   14.9932   22.5680 C   0  0  0  0  0  0  0  0  0  0  0  0
   12.1771   13.7386   22.4334 C   0  0  0  0  0  0  0  0  0  0  0  0
   11.0168   13.2587   23.2305 C   0  0  0  0  0  0  0  0  0  0  0  0
    8.2721   11.9525   23.3054 C   0  0  0  0  0  0  0  0  0  0  0  0
    9.7821   11.2689   25.1426 C   0  0  0  0  0  0  0  0  0  0  0  0
    9.6209   11.2433   23.5984 C   0  0  0  0  0  0  0  0  0  0  0  0
    9.5913    9.7908   23.0873 C   0  0  0  0  0  0  0  0  0  0  0  0
   10.7140   11.9388   22.9514 N   0  0  0  0  0  0  0  0  0  0  0  0
   10.4218   13.9763   24.0282 O   0  0  0  0  0  0  0  0  0  0  0  0
    8.5524    9.1126   23.7602 O   0  0  0  0  0  0  0  0  0  0  0  0
    4.5675   11.6361   26.2303 H   0  0  0  0  0  0  0  0  0  0  0  0
    6.0790   10.9519   28.0696 H   0  0  0  0  0  0  0  0  0  0  0  0
    5.4773   12.1259   23.9683 H   0  0  0  0  0  0  0  0  0  0  0  0
    8.5261   10.7454   27.6785 H   0  0  0  0  0  0  0  0  0  0  0  0
   13.4655   15.3357   21.9839 H   0  0  0  0  0  0  0  0  0  0  0  0
   12.1596   15.7038   23.2470 H   0  0  0  0  0  0  0  0  0  0  0  0
   12.6639   13.0593   21.7421 H   0  0  0  0  0  0  0  0  0  0  0  0
    7.7706   11.5489   22.4202 H   0  0  0  0  0  0  0  0  0  0  0  0
    8.3941   13.0362   23.1946 H   0  0  0  0  0  0  0  0  0  0  0  0
   10.2796   12.1841   25.4845 H   0  0  0  0  0  0  0  0  0  0  0  0
   10.3202   10.3948   25.5224 H   0  0  0  0  0  0  0  0  0  0  0  0
   10.5431    9.3164   23.3030 H   0  0  0  0  0  0  0  0  0  0  0  0
    9.4013    9.7913   22.0189 H   0  0  0  0  0  0  0  0  0  0  0  0
   11.2419   11.4287   22.2512 H   0  0  0  0  0  0  0  0  0  0  0  0
    8.5425    8.1966   23.4300 H   0  0  0  0  0  0  0  0  0  0  0  0
  1  2  1  0  0  0  0
  1  3  2  0  0  0  0
  2  4  2  0  0  0  0
  3  5  1  0  0  0  0
  4  6  1  0  0  0  0
  5  6  2  0  0  0  0
  5 10  1  0  0  0  0
  6 11  1  0  0  0  0
  7  8  2  0  0  0  0
  8  9  1  0  0  0  0
  9 14  1  0  0  0  0
  9 15  2  0  0  0  0
 10 12  1  0  0  0  0
 11 12  1  0  0  0  0
 12 13  1  0  0  0  0
 12 14  1  0  0  0  0
 13 16  1  0  0  0  0
  1 17  1  0  0  0  0
  2 18  1  0  0  0  0
  3 19  1  0  0  0  0
  4 20  1  0  0  0  0
  7 21  1  0  0  0  0
  7 22  1  0  0  0  0
  8 23  1  0  0  0  0
 10 24  1  0  0  0  0
 10 25  1  0  0  0  0
 11 26  1  0  0  0  0
 11 27  1  0  0  0  0
 13 28  1  0  0  0  0
 13 29  1  0  0  0  0
 14 30  1  0  0  0  0
 16 31  1  0  0  0  0
M  END
> <Catalog ID>
Z2737383426

> <MW>
217.264

> <MW (desalted)>
217.264

> <ClogP>
0.945

> <logS>
-2.324

> <HBD>
2

> <HBA>
2

> <TPSA>
49.33

> <RotBonds>
3

> <ROCS_ShapeQuery>
A71EV2A-x0451_0A_A71EV2A-x0310_0A_A71EV2A-x0416_0A_peptide

> <ROCS_TanimotoCombo>
0.439 

> <ROCS_ShapeTanimoto>
0.281 

> <ROCS_ColorTanimoto>
0.158 

> <ROCS_RefTversky>
0.252 

> <ROCS_RefColorTversky>
0.174 

> <ROCS_RefTverskyCombo>
0.426 

> <ROCS_FitTversky>
1.683 

> <ROCS_FitColorTversky>
0.642 

> <ROCS_FitTverskyCombo>
2.325 

> <ROCS_ColorScore>
-5.295

> <ROCS_Overlap>
1747.042

> <ROCS_Rank>
213                 

$$$$
untitled-dbase-24_113
  -OEChem-11112315393D

 36 37  0     0  0  0  0  0  0999 V2000
    8.5997   12.1392   24.6386 C   0  0  0  0  0  0  0  0  0  0  0  0
    9.8295   10.9165   22.9722 C   0  0  0  0  0  0  0  0  0  0  0  0
    7.8579   10.9896   24.8571 C   0  0  0  0  0  0  0  0  0  0  0  0
    9.0327    9.8215   23.2654 C   0  0  0  0  0  0  0  0  0  0  0  0
    9.6025   12.0937   23.6765 C   0  0  0  0  0  0  0  0  0  0  0  0
   12.1857   15.2807   16.9945 C   0  0  0  0  0  0  0  0  0  0  0  0
   12.9903   16.2962   17.3153 C   0  0  0  0  0  0  0  0  0  0  0  0
   10.4282   13.2979   23.4024 C   0  0  0  0  0  0  0  0  0  0  0  0
   13.9381   16.1288   18.4350 C   0  0  0  0  0  0  0  0  0  0  0  0
   11.1685   15.2517   20.5421 C   0  0  0  0  0  0  0  0  0  0  0  0
   13.1974   13.9775   21.3008 C   0  0  0  0  0  0  0  0  0  0  0  0
   12.0856   16.3652   20.0428 C   0  0  0  0  0  0  0  0  0  0  0  0
   14.0851   15.1054   20.7711 C   0  0  0  0  0  0  0  0  0  0  0  0
   11.8160   14.4996   21.7097 C   0  0  0  0  0  0  0  0  0  0  0  0
    8.0492    9.8278   24.1929 N   0  0  0  0  0  0  0  0  0  0  0  0
   13.4134   15.8503   19.6951 N   0  0  0  0  0  0  0  0  0  0  0  0
   10.9628   13.3892   22.1257 N   0  0  0  0  0  0  0  0  0  0  0  0
   10.6088   14.1182   24.2985 O   0  0  0  0  0  0  0  0  0  0  0  0
   15.1394   16.2421   18.1848 O   0  0  0  0  0  0  0  0  0  0  0  0
    8.3970   13.0408   25.2071 H   0  0  0  0  0  0  0  0  0  0  0  0
   10.6040   10.8471   22.2157 H   0  0  0  0  0  0  0  0  0  0  0  0
    7.0650   10.9727   25.5973 H   0  0  0  0  0  0  0  0  0  0  0  0
    9.1693    8.8801   22.7440 H   0  0  0  0  0  0  0  0  0  0  0  0
   11.4690   15.3435   16.1826 H   0  0  0  0  0  0  0  0  0  0  0  0
   12.2338   14.3513   17.5520 H   0  0  0  0  0  0  0  0  0  0  0  0
   12.9721   17.2381   16.7829 H   0  0  0  0  0  0  0  0  0  0  0  0
   10.2138   15.6875   20.8600 H   0  0  0  0  0  0  0  0  0  0  0  0
   10.9518   14.5617   19.7163 H   0  0  0  0  0  0  0  0  0  0  0  0
   13.0961   13.2063   20.5261 H   0  0  0  0  0  0  0  0  0  0  0  0
   13.6901   13.5082   22.1611 H   0  0  0  0  0  0  0  0  0  0  0  0
   11.6237   16.8670   19.1866 H   0  0  0  0  0  0  0  0  0  0  0  0
   12.2269   17.1222   20.8239 H   0  0  0  0  0  0  0  0  0  0  0  0
   14.3114   15.8226   21.5687 H   0  0  0  0  0  0  0  0  0  0  0  0
   15.0282   14.6695   20.4399 H   0  0  0  0  0  0  0  0  0  0  0  0
   11.9045   15.1536   22.5724 H   0  0  0  0  0  0  0  0  0  0  0  0
   10.8201   12.6378   21.4570 H   0  0  0  0  0  0  0  0  0  0  0  0
  1  3  2  0  0  0  0
  1  5  1  0  0  0  0
  2  4  1  0  0  0  0
  2  5  2  0  0  0  0
  3 15  1  0  0  0  0
  4 15  2  0  0  0  0
  5  8  1  0  0  0  0
  6  7  2  0  0  0  0
  7  9  1  0  0  0  0
  8 17  1  0  0  0  0
  8 18  2  0  0  0  0
  9 16  1  0  0  0  0
  9 19  2  0  0  0  0
 10 12  1  0  0  0  0
 10 14  1  0  0  0  0
 11 13  1  0  0  0  0
 11 14  1  0  0  0  0
 12 16  1  0  0  0  0
 13 16  1  0  0  0  0
 14 17  1  0  0  0  0
  1 20  1  0  0  0  0
  2 21  1  0  0  0  0
  3 22  1  0  0  0  0
  4 23  1  0  0  0  0
  6 24  1  0  0  0  0
  6 25  1  0  0  0  0
  7 26  1  0  0  0  0
 10 27  1  0  0  0  0
 10 28  1  0  0  0  0
 11 29  1  0  0  0  0
 11 30  1  0  0  0  0
 12 31  1  0  0  0  0
 12 32  1  0  0  0  0
 13 33  1  0  0  0  0
 13 34  1  0  0  0  0
 14 35  1  0  0  0  0
 17 36  1  0  0  0  0
M  END
> <Catalog ID>
Z2867474044

> <MW>
259.304

> <MW (desalted)>
259.304

> <ClogP>
-0.189

> <logS>
-2.273

> <HBD>
1

> <HBA>
3

> <TPSA>
62.3

> <RotBonds>
3

> <ROCS_ShapeQuery>
A71EV2A-x0451_0A_A71EV2A-x0310_0A_A71EV2A-x0416_0A_peptide

> <ROCS_TanimotoCombo>
0.439 

> <ROCS_ShapeTanimoto>
0.275 

> <ROCS_ColorTanimoto>
0.164 

> <ROCS_RefTversky>
0.252 

> <ROCS_RefColorTversky>
0.179 

> <ROCS_RefTverskyCombo>
0.431 

> <ROCS_FitTversky>
1.507 

> <ROCS_FitColorTversky>
0.663 

> <ROCS_FitTverskyCombo>
2.171 

> <ROCS_ColorScore>
-5.462

> <ROCS_Overlap>
1745.173

> <ROCS_Rank>
214                 

$$$$
untitled-dbase-117_16
  -OEChem-11112315393D

 28 29  0     0  0  0  0  0  0999 V2000
    7.7402   12.9576   25.0143 C   0  0  0  0  0  0  0  0  0  0  0  0
    6.5009   12.6859   25.6026 C   0  0  0  0  0  0  0  0  0  0  0  0
    6.6653   10.3471   24.9779 C   0  0  0  0  0  0  0  0  0  0  0  0
    7.8935   10.6249   24.3971 C   0  0  0  0  0  0  0  0  0  0  0  0
    8.4288   11.9144   24.4125 C   0  0  0  0  0  0  0  0  0  0  0  0
    5.9666   11.3902   25.5847 C   0  0  0  0  0  0  0  0  0  0  0  0
   10.4955   13.0349   23.5845 C   0  0  0  0  0  0  0  0  0  0  0  0
    8.7968    9.6603   23.7013 C   0  0  0  0  0  0  0  0  0  0  0  0
    9.9711   10.5550   23.2904 C   0  0  0  0  0  0  0  0  0  0  0  0
   11.3495   13.0036   22.3389 C   0  0  0  0  0  0  0  0  0  0  0  0
    9.6786   11.9261   23.7589 N   0  0  0  0  0  0  0  0  0  0  0  0
    3.3635   11.3587   25.0120 N   0  0  0  0  0  0  0  0  0  0  0  0
   10.5705   14.0024   24.3421 O   0  0  0  0  0  0  0  0  0  0  0  0
    4.3548    9.6720   26.6907 O   0  0  0  0  0  0  0  0  0  0  0  0
    4.1786   12.0997   27.3409 O   0  0  0  0  0  0  0  0  0  0  0  0
    4.4167   11.0808   26.3283 S   0  0  0  0  0  0  0  0  0  0  0  0
   10.3904   13.7301   21.0554 Cl  0  0  0  0  0  0  0  0  0  0  0  0
    8.1226   13.9703   25.0464 H   0  0  0  0  0  0  0  0  0  0  0  0
    5.9527   13.4968   26.0768 H   0  0  0  0  0  0  0  0  0  0  0  0
    6.2621    9.3395   24.9580 H   0  0  0  0  0  0  0  0  0  0  0  0
    9.1222    8.8687   24.3833 H   0  0  0  0  0  0  0  0  0  0  0  0
    8.3049    9.2261   22.8260 H   0  0  0  0  0  0  0  0  0  0  0  0
   10.9097   10.2153   23.7423 H   0  0  0  0  0  0  0  0  0  0  0  0
   10.1022   10.5685   22.2027 H   0  0  0  0  0  0  0  0  0  0  0  0
   11.5766   11.9723   22.0976 H   0  0  0  0  0  0  0  0  0  0  0  0
   12.2437   13.5889   22.5145 H   0  0  0  0  0  0  0  0  0  0  0  0
    3.2325   12.3274   24.6960 H   0  0  0  0  0  0  0  0  0  0  0  0
    3.3504   10.6685   24.2513 H   0  0  0  0  0  0  0  0  0  0  0  0
  1  2  2  0  0  0  0
  1  5  1  0  0  0  0
  2  6  1  0  0  0  0
  3  4  1  0  0  0  0
  3  6  2  0  0  0  0
  4  5  2  0  0  0  0
  4  8  1  0  0  0  0
  5 11  1  0  0  0  0
  6 16  1  0  0  0  0
  7 10  1  0  0  0  0
  7 11  1  0  0  0  0
  7 13  2  0  0  0  0
  8  9  1  0  0  0  0
  9 11  1  0  0  0  0
 10 17  1  0  0  0  0
 12 16  1  0  0  0  0
 14 16  2  0  0  0  0
 15 16  2  0  0  0  0
  1 18  1  0  0  0  0
  2 19  1  0  0  0  0
  3 20  1  0  0  0  0
  8 21  1  0  0  0  0
  8 22  1  0  0  0  0
  9 23  1  0  0  0  0
  9 24  1  0  0  0  0
 10 25  1  0  0  0  0
 10 26  1  0  0  0  0
 12 27  1  0  0  0  0
 12 28  1  0  0  0  0
M  END
> <Catalog ID>
Z165156704

> <MW>
274.018

> <MW (desalted)>
274.724

> <ClogP>
0.138

> <logS>
-2.51

> <HBD>
1

> <HBA>
3

> <TPSA>
80.47

> <RotBonds>
2

> <ROCS_ShapeQuery>
A71EV2A-x0451_0A_A71EV2A-x0310_0A_A71EV2A-x0416_0A_peptide

> <ROCS_TanimotoCombo>
0.439 

> <ROCS_ShapeTanimoto>
0.280 

> <ROCS_ColorTanimoto>
0.159 

> <ROCS_RefTversky>
0.252 

> <ROCS_RefColorTversky>
0.170 

> <ROCS_RefTverskyCombo>
0.422 

> <ROCS_FitTversky>
1.653 

> <ROCS_FitColorTversky>
0.708 

> <ROCS_FitTverskyCombo>
2.361 

> <ROCS_ColorScore>
-5.169

> <ROCS_Overlap>
1749.589

> <ROCS_Rank>
215                 

$$$$
untitled-dbase-580_96
  -OEChem-11112315393D

 30 31  0     0  0  0  0  0  0999 V2000
    8.3134    9.4520   23.9490 C   0  0  0  0  0  0  0  0  0  0  0  0
    7.4850   10.0334   24.9089 C   0  0  0  0  0  0  0  0  0  0  0  0
    9.2112   10.2424   23.2315 C   0  0  0  0  0  0  0  0  0  0  0  0
    8.4520   12.1958   24.4336 C   0  0  0  0  0  0  0  0  0  0  0  0
    7.5542   11.4053   25.1511 C   0  0  0  0  0  0  0  0  0  0  0  0
    9.2804   11.6144   23.4738 C   0  0  0  0  0  0  0  0  0  0  0  0
    6.2048   13.3150   26.1247 C   0  0  0  0  0  0  0  0  0  0  0  0
   10.7920   13.5660   23.2112 C   0  0  0  0  0  0  0  0  0  0  0  0
    5.4452   13.5128   27.4170 C   0  0  0  0  0  0  0  0  0  0  0  0
    5.1412   12.0972   27.8649 C   0  0  0  0  0  0  0  0  0  0  0  0
    6.3218   11.3034   27.3457 C   0  0  0  0  0  0  0  0  0  0  0  0
   11.7062   14.1640   22.1671 C   0  0  0  0  0  0  0  0  0  0  0  0
    6.7071   11.9991   26.1331 N   0  0  0  0  0  0  0  0  0  0  0  0
   10.1787   12.4045   22.7558 N   0  0  0  0  0  0  0  0  0  0  0  0
    6.3556   14.2110   25.3069 O   0  0  0  0  0  0  0  0  0  0  0  0
   10.6516   14.1191   24.2986 O   0  0  0  0  0  0  0  0  0  0  0  0
   11.0479   13.7551   20.5749 Cl  0  0  0  0  0  0  0  0  0  0  0  0
    8.2602    8.3837   23.7611 H   0  0  0  0  0  0  0  0  0  0  0  0
    6.7887    9.4073   25.4612 H   0  0  0  0  0  0  0  0  0  0  0  0
    9.8510    9.7780   22.4854 H   0  0  0  0  0  0  0  0  0  0  0  0
    8.5057   13.2661   24.6224 H   0  0  0  0  0  0  0  0  0  0  0  0
    6.0942   14.0315   28.1296 H   0  0  0  0  0  0  0  0  0  0  0  0
    4.5341   14.0923   27.2500 H   0  0  0  0  0  0  0  0  0  0  0  0
    5.0243   12.0189   28.9495 H   0  0  0  0  0  0  0  0  0  0  0  0
    4.2151   11.7449   27.3945 H   0  0  0  0  0  0  0  0  0  0  0  0
    7.1658   11.3359   28.0436 H   0  0  0  0  0  0  0  0  0  0  0  0
    6.0591   10.2632   27.1303 H   0  0  0  0  0  0  0  0  0  0  0  0
   12.7294   13.7856   22.2336 H   0  0  0  0  0  0  0  0  0  0  0  0
   11.7236   15.2518   22.2783 H   0  0  0  0  0  0  0  0  0  0  0  0
   10.4062   12.1023   21.8104 H   0  0  0  0  0  0  0  0  0  0  0  0
  1  2  1  0  0  0  0
  1  3  2  0  0  0  0
  2  5  2  0  0  0  0
  3  6  1  0  0  0  0
  4  5  1  0  0  0  0
  4  6  2  0  0  0  0
  5 13  1  0  0  0  0
  6 14  1  0  0  0  0
  7  9  1  0  0  0  0
  7 13  1  0  0  0  0
  7 15  2  0  0  0  0
  8 12  1  0  0  0  0
  8 14  1  0  0  0  0
  8 16  2  0  0  0  0
  9 10  1  0  0  0  0
 10 11  1  0  0  0  0
 11 13  1  0  0  0  0
 12 17  1  0  0  0  0
  1 18  1  0  0  0  0
  2 19  1  0  0  0  0
  3 20  1  0  0  0  0
  4 21  1  0  0  0  0
  9 22  1  0  0  0  0
  9 23  1  0  0  0  0
 10 24  1  0  0  0  0
 10 25  1  0  0  0  0
 11 26  1  0  0  0  0
 11 27  1  0  0  0  0
 12 28  1  0  0  0  0
 12 29  1  0  0  0  0
 14 30  1  0  0  0  0
M  END
> <Catalog ID>
Z199423638

> <MW>
252.067

> <MW (desalted)>
252.697

> <ClogP>
1.734

> <logS>
-2.79

> <HBD>
1

> <HBA>
2

> <TPSA>
49.41

> <RotBonds>
3

> <ROCS_ShapeQuery>
A71EV2A-x0451_0A_A71EV2A-x0310_0A_A71EV2A-x0416_0A_peptide

> <ROCS_TanimotoCombo>
0.439 

> <ROCS_ShapeTanimoto>
0.304 

> <ROCS_ColorTanimoto>
0.135 

> <ROCS_RefTversky>
0.269 

> <ROCS_RefColorTversky>
0.144 

> <ROCS_RefTverskyCombo>
0.413 

> <ROCS_FitTversky>
1.736 

> <ROCS_FitColorTversky>
0.691 

> <ROCS_FitTverskyCombo>
2.427 

> <ROCS_ColorScore>
-4.378

> <ROCS_Overlap>
1865.087

> <ROCS_Rank>
216                 

$$$$
untitled-dbase-560_4
  -OEChem-11112315393D

 25 25  0     0  0  0  0  0  0999 V2000
    7.2621   10.3036   24.9254 C   0  0  0  0  0  0  0  0  0  0  0  0
    8.1483    9.5752   24.1319 C   0  0  0  0  0  0  0  0  0  0  0  0
    8.3914   12.3487   24.3097 C   0  0  0  0  0  0  0  0  0  0  0  0
    7.3836   11.6903   25.0143 C   0  0  0  0  0  0  0  0  0  0  0  0
    9.1562   10.2336   23.4273 C   0  0  0  0  0  0  0  0  0  0  0  0
    9.2777   11.6203   23.5162 C   0  0  0  0  0  0  0  0  0  0  0  0
    6.4587   12.4489   25.8414 C   0  0  0  0  0  0  0  0  0  0  0  0
   10.8931   13.4805   23.2106 C   0  0  0  0  0  0  0  0  0  0  0  0
   10.0920    9.4278   22.5860 C   0  0  0  0  0  0  0  0  0  0  0  0
   11.9349   13.9295   22.2124 C   0  0  0  0  0  0  0  0  0  0  0  0
   10.2803   12.2976   22.8173 N   0  0  0  0  0  0  0  0  0  0  0  0
    6.1013   13.6130   25.6332 O   0  0  0  0  0  0  0  0  0  0  0  0
   10.6666   14.1544   24.2120 O   0  0  0  0  0  0  0  0  0  0  0  0
    6.0041   11.7320   26.9057 O   0  0  0  0  0  0  0  0  0  0  0  0
   11.1342   14.9768   21.0302 Cl  0  0  0  0  0  0  0  0  0  0  0  0
    6.4803    9.7802   25.4700 H   0  0  0  0  0  0  0  0  0  0  0  0
    8.0452    8.4951   24.0697 H   0  0  0  0  0  0  0  0  0  0  0  0
    8.4859   13.4303   24.3804 H   0  0  0  0  0  0  0  0  0  0  0  0
    9.6977    9.3296   21.5682 H   0  0  0  0  0  0  0  0  0  0  0  0
   11.0817    9.8974   22.5344 H   0  0  0  0  0  0  0  0  0  0  0  0
   10.2356    8.4242   23.0045 H   0  0  0  0  0  0  0  0  0  0  0  0
   12.4028   13.0947   21.6844 H   0  0  0  0  0  0  0  0  0  0  0  0
   12.7113   14.5011   22.7286 H   0  0  0  0  0  0  0  0  0  0  0  0
   10.5899   11.8866   21.9396 H   0  0  0  0  0  0  0  0  0  0  0  0
    5.3785   12.2349   27.4697 H   0  0  0  0  0  0  0  0  0  0  0  0
  1  2  2  0  0  0  0
  1  4  1  0  0  0  0
  2  5  1  0  0  0  0
  3  4  2  0  0  0  0
  3  6  1  0  0  0  0
  4  7  1  0  0  0  0
  5  6  2  0  0  0  0
  5  9  1  0  0  0  0
  6 11  1  0  0  0  0
  7 12  2  0  0  0  0
  7 14  1  0  0  0  0
  8 10  1  0  0  0  0
  8 11  1  0  0  0  0
  8 13  2  0  0  0  0
 10 15  1  0  0  0  0
  1 16  1  0  0  0  0
  2 17  1  0  0  0  0
  3 18  1  0  0  0  0
  9 19  1  0  0  0  0
  9 20  1  0  0  0  0
  9 21  1  0  0  0  0
 10 22  1  0  0  0  0
 10 23  1  0  0  0  0
 11 24  1  0  0  0  0
 14 25  1  0  0  0  0
M  END
> <Catalog ID>
Z56949554

> <MW>
227.035

> <MW (desalted)>
227.644

> <ClogP>
1.66

> <logS>
-2.6

> <HBD>
2

> <HBA>
3

> <TPSA>
66.4

> <RotBonds>
3

> <ROCS_ShapeQuery>
A71EV2A-x0451_0A_A71EV2A-x0310_0A_A71EV2A-x0416_0A_peptide

> <ROCS_TanimotoCombo>
0.439 

> <ROCS_ShapeTanimoto>
0.308 

> <ROCS_ColorTanimoto>
0.131 

> <ROCS_RefTversky>
0.269 

> <ROCS_RefColorTversky>
0.143 

> <ROCS_RefTverskyCombo>
0.412 

> <ROCS_FitTversky>
1.905 

> <ROCS_FitColorTversky>
0.598 

> <ROCS_FitTverskyCombo>
2.503 

> <ROCS_ColorScore>
-4.363

> <ROCS_Overlap>
1862.063

> <ROCS_Rank>
217                 

$$$$
untitled-dbase-210_72
  -OEChem-11112315393D

 27 27  0     1  0  0  0  0  0999 V2000
    8.3391   11.8873   23.9051 C   0  0  0  0  0  0  0  0  0  0  0  0
    9.8603   10.2084   23.5287 C   0  0  0  0  0  0  0  0  0  0  0  0
   10.7818   13.5234   23.1913 C   0  0  0  0  0  0  0  0  0  0  0  0
    7.7899   10.6470   24.6241 C   0  0  2  0  0  0  0  0  0  0  0  0
    6.4528   10.2315   24.0252 C   0  0  0  0  0  0  0  0  0  0  0  0
    6.8048   12.0438   26.4481 C   0  0  0  0  0  0  0  0  0  0  0  0
   11.5973   14.3794   22.2563 C   0  0  0  0  0  0  0  0  0  0  0  0
    7.7044   10.8944   26.1245 C   0  0  0  0  0  0  0  0  0  0  0  0
    8.8273    9.6764   24.3120 N   0  0  0  0  0  0  0  0  0  0  0  0
    9.5229   11.5240   23.3138 N   0  0  0  0  0  0  0  0  0  0  0  0
   10.2876   12.3811   22.5865 N   0  0  0  0  0  0  0  0  0  0  0  0
    7.7927   12.9816   23.8856 O   0  0  0  0  0  0  0  0  0  0  0  0
   10.8473    9.6050   23.1315 O   0  0  0  0  0  0  0  0  0  0  0  0
   10.5868   13.8445   24.3624 O   0  0  0  0  0  0  0  0  0  0  0  0
   12.8438   15.1995   23.2096 Cl  0  0  0  0  0  0  0  0  0  0  0  0
    6.0700    9.3506   24.5412 H   0  0  0  0  0  0  0  0  0  0  0  0
    6.5742    9.9964   22.9676 H   0  0  0  0  0  0  0  0  0  0  0  0
    5.7304   11.0419   24.1264 H   0  0  0  0  0  0  0  0  0  0  0  0
    7.1718   12.9517   25.9550 H   0  0  0  0  0  0  0  0  0  0  0  0
    6.7822   12.2291   27.5272 H   0  0  0  0  0  0  0  0  0  0  0  0
    5.7864   11.8528   26.0937 H   0  0  0  0  0  0  0  0  0  0  0  0
   12.0784   13.7433   21.5083 H   0  0  0  0  0  0  0  0  0  0  0  0
   10.9937   15.1357   21.7482 H   0  0  0  0  0  0  0  0  0  0  0  0
    7.3334    9.9913   26.6192 H   0  0  0  0  0  0  0  0  0  0  0  0
    8.7068   11.0956   26.5152 H   0  0  0  0  0  0  0  0  0  0  0  0
    8.8053    8.7122   24.6293 H   0  0  0  0  0  0  0  0  0  0  0  0
   10.4611   12.1374   21.6138 H   0  0  0  0  0  0  0  0  0  0  0  0
  1  4  1  0  0  0  0
  1 10  1  0  0  0  0
  1 12  2  0  0  0  0
  2  9  1  0  0  0  0
  2 10  1  0  0  0  0
  2 13  2  0  0  0  0
  3  7  1  0  0  0  0
  3 11  1  0  0  0  0
  3 14  2  0  0  0  0
  4  5  1  0  0  0  0
  4  8  1  0  0  0  0
  4  9  1  0  0  0  0
  6  8  1  0  0  0  0
  7 15  1  0  0  0  0
 10 11  1  0  0  0  0
  5 16  1  0  0  0  0
  5 17  1  0  0  0  0
  5 18  1  0  0  0  0
  6 19  1  0  0  0  0
  6 20  1  0  0  0  0
  6 21  1  0  0  0  0
  7 22  1  0  0  0  0
  7 23  1  0  0  0  0
  8 24  1  0  0  0  0
  8 25  1  0  0  0  0
  9 26  1  0  0  0  0
 11 27  1  0  0  0  0
M  END
> <Catalog ID>
Z147651920

> <MW>
233.057

> <MW (desalted)>
233.652

> <ClogP>
-0.498

> <logS>
-1.53

> <HBD>
2

> <HBA>
3

> <TPSA>
78.51

> <RotBonds>
3

> <ROCS_ShapeQuery>
A71EV2A-x0451_0A_A71EV2A-x0310_0A_A71EV2A-x0416_0A_peptide

> <ROCS_TanimotoCombo>
0.438 

> <ROCS_ShapeTanimoto>
0.293 

> <ROCS_ColorTanimoto>
0.145 

> <ROCS_RefTversky>
0.259 

> <ROCS_RefColorTversky>
0.161 

> <ROCS_RefTverskyCombo>
0.420 

> <ROCS_FitTversky>
1.822 

> <ROCS_FitColorTversky>
0.594 

> <ROCS_FitTverskyCombo>
2.417 

> <ROCS_ColorScore>
-4.895

> <ROCS_Overlap>
1795.185

> <ROCS_Rank>
218                 

$$$$
untitled-dbase-647_554
  -OEChem-11112315393D

 43 45  0     0  0  0  0  0  0999 V2000
    8.6715   10.1983   23.9174 C   0  0  0  0  0  0  0  0  0  0  0  0
    9.5877   15.6602   21.1269 C   0  0  0  0  0  0  0  0  0  0  0  0
   10.8965   15.9176   21.1719 C   0  0  0  0  0  0  0  0  0  0  0  0
   11.6820   15.4243   22.3226 C   0  0  0  0  0  0  0  0  0  0  0  0
    6.0570   11.4925   26.3745 C   0  0  0  0  0  0  0  0  0  0  0  0
    5.7751   11.2174   24.9030 C   0  0  0  0  0  0  0  0  0  0  0  0
    7.4772   11.0941   26.7551 C   0  0  0  0  0  0  0  0  0  0  0  0
    6.7973   11.8983   23.9926 C   0  0  0  0  0  0  0  0  0  0  0  0
    8.5173   11.7849   25.8720 C   0  0  0  0  0  0  0  0  0  0  0  0
   10.5518   12.0381   21.5826 C   0  0  0  0  0  0  0  0  0  0  0  0
   11.5562   11.9340   23.8803 C   0  0  0  0  0  0  0  0  0  0  0  0
   11.5922   13.1476   21.3896 C   0  0  0  0  0  0  0  0  0  0  0  0
   11.9680   13.4098   23.8357 C   0  0  0  0  0  0  0  0  0  0  0  0
    8.2585   11.5925   24.3677 C   0  0  0  0  0  0  0  0  0  0  0  0
   10.2800   11.6852   23.0608 C   0  0  0  0  0  0  0  0  0  0  0  0
    9.8330   10.3287   23.1857 N   0  0  0  0  0  0  0  0  0  0  0  0
    9.1658   12.4885   23.6070 N   0  0  0  0  0  0  0  0  0  0  0  0
   11.7074   14.0460   22.5359 N   0  0  0  0  0  0  0  0  0  0  0  0
    8.0955    9.1523   24.1757 O   0  0  0  0  0  0  0  0  0  0  0  0
   12.2594   16.2565   23.0233 O   0  0  0  0  0  0  0  0  0  0  0  0
    8.9589   15.9956   20.3089 H   0  0  0  0  0  0  0  0  0  0  0  0
    9.1160   15.0973   21.9254 H   0  0  0  0  0  0  0  0  0  0  0  0
   11.4027   16.4752   20.3947 H   0  0  0  0  0  0  0  0  0  0  0  0
    5.9078   12.5591   26.5831 H   0  0  0  0  0  0  0  0  0  0  0  0
    5.3408   10.9430   26.9960 H   0  0  0  0  0  0  0  0  0  0  0  0
    5.7726   10.1363   24.7247 H   0  0  0  0  0  0  0  0  0  0  0  0
    4.7699   11.5751   24.6509 H   0  0  0  0  0  0  0  0  0  0  0  0
    7.6609   11.3547   27.8038 H   0  0  0  0  0  0  0  0  0  0  0  0
    7.5872   10.0061   26.6798 H   0  0  0  0  0  0  0  0  0  0  0  0
    6.5963   11.6029   22.9547 H   0  0  0  0  0  0  0  0  0  0  0  0
    6.6257   12.9823   24.0484 H   0  0  0  0  0  0  0  0  0  0  0  0
    8.5094   12.8572   26.1110 H   0  0  0  0  0  0  0  0  0  0  0  0
    9.5075   11.4079   26.1536 H   0  0  0  0  0  0  0  0  0  0  0  0
    9.6175   12.3326   21.0779 H   0  0  0  0  0  0  0  0  0  0  0  0
   10.9062   11.1376   21.0541 H   0  0  0  0  0  0  0  0  0  0  0  0
   12.3773   11.3325   23.4773 H   0  0  0  0  0  0  0  0  0  0  0  0
   11.4278   11.6347   24.9224 H   0  0  0  0  0  0  0  0  0  0  0  0
   12.5516   12.6621   21.1579 H   0  0  0  0  0  0  0  0  0  0  0  0
   11.3390   13.7689   20.5131 H   0  0  0  0  0  0  0  0  0  0  0  0
   11.4148   13.9887   24.5905 H   0  0  0  0  0  0  0  0  0  0  0  0
   13.0310   13.4960   24.1013 H   0  0  0  0  0  0  0  0  0  0  0  0
   10.3303    9.5347   22.7931 H   0  0  0  0  0  0  0  0  0  0  0  0
    8.6460   12.8981   22.8306 H   0  0  0  0  0  0  0  0  0  0  0  0
  1 14  1  0  0  0  0
  1 16  1  0  0  0  0
  1 19  2  0  0  0  0
  2  3  2  0  0  0  0
  3  4  1  0  0  0  0
  4 18  1  0  0  0  0
  4 20  2  0  0  0  0
  5  6  1  0  0  0  0
  5  7  1  0  0  0  0
  6  8  1  0  0  0  0
  7  9  1  0  0  0  0
  8 14  1  0  0  0  0
  9 14  1  0  0  0  0
 10 12  1  0  0  0  0
 10 15  1  0  0  0  0
 11 13  1  0  0  0  0
 11 15  1  0  0  0  0
 12 18  1  0  0  0  0
 13 18  1  0  0  0  0
 14 17  1  0  0  0  0
 15 16  1  0  0  0  0
 15 17  1  0  0  0  0
  2 21  1  0  0  0  0
  2 22  1  0  0  0  0
  3 23  1  0  0  0  0
  5 24  1  0  0  0  0
  5 25  1  0  0  0  0
  6 26  1  0  0  0  0
  6 27  1  0  0  0  0
  7 28  1  0  0  0  0
  7 29  1  0  0  0  0
  8 30  1  0  0  0  0
  8 31  1  0  0  0  0
  9 32  1  0  0  0  0
  9 33  1  0  0  0  0
 10 34  1  0  0  0  0
 10 35  1  0  0  0  0
 11 36  1  0  0  0  0
 11 37  1  0  0  0  0
 12 38  1  0  0  0  0
 12 39  1  0  0  0  0
 13 40  1  0  0  0  0
 13 41  1  0  0  0  0
 16 42  1  0  0  0  0
 17 43  1  0  0  0  0
M  END
> <Catalog ID>
Z2517208988

> <MW>
277.362

> <MW (desalted)>
277.362

> <ClogP>
0.34

> <logS>
-2.923

> <HBD>
2

> <HBA>
3

> <TPSA>
61.44

> <RotBonds>
1

> <ROCS_ShapeQuery>
A71EV2A-x0451_0A_A71EV2A-x0310_0A_A71EV2A-x0416_0A_peptide

> <ROCS_TanimotoCombo>
0.438 

> <ROCS_ShapeTanimoto>
0.322 

> <ROCS_ColorTanimoto>
0.117 

> <ROCS_RefTversky>
0.286 

> <ROCS_RefColorTversky>
0.139 

> <ROCS_RefTverskyCombo>
0.425 

> <ROCS_FitTversky>
1.640 

> <ROCS_FitColorTversky>
0.419 

> <ROCS_FitTverskyCombo>
2.059 

> <ROCS_ColorScore>
-4.249

> <ROCS_Overlap>
1982.753

> <ROCS_Rank>
219                 

$$$$
untitled-dbase-132_145
  -OEChem-11112315393D

 25 25  0     0  0  0  0  0  0999 V2000
    9.2302    9.9083   23.0365 C   0  0  0  0  0  0  0  0  0  0  0  0
    8.1395    9.8463   23.9037 C   0  0  0  0  0  0  0  0  0  0  0  0
    9.9660   11.0880   22.9245 C   0  0  0  0  0  0  0  0  0  0  0  0
    7.7845   10.9641   24.6589 C   0  0  0  0  0  0  0  0  0  0  0  0
    9.6110   12.2058   23.6796 C   0  0  0  0  0  0  0  0  0  0  0  0
    8.5203   12.1439   24.5468 C   0  0  0  0  0  0  0  0  0  0  0  0
   10.3926   13.4274   23.5474 C   0  0  0  0  0  0  0  0  0  0  0  0
   11.8033   14.7501   21.9795 C   0  0  0  0  0  0  0  0  0  0  0  0
    7.0313   13.0702   26.1532 C   0  0  0  0  0  0  0  0  0  0  0  0
   12.2721   14.7309   20.5467 C   0  0  0  0  0  0  0  0  0  0  0  0
   10.9948   13.6597   22.2977 N   0  0  0  0  0  0  0  0  0  0  0  0
   10.5264   14.1932   24.5163 O   0  0  0  0  0  0  0  0  0  0  0  0
   12.1050   15.6635   22.7452 O   0  0  0  0  0  0  0  0  0  0  0  0
    8.1590   13.2248   25.2944 O   0  0  0  0  0  0  0  0  0  0  0  0
   12.5255   16.4076   20.0380 Cl  0  0  0  0  0  0  0  0  0  0  0  0
    9.5064    9.0376   22.4485 H   0  0  0  0  0  0  0  0  0  0  0  0
    7.5667    8.9277   23.9901 H   0  0  0  0  0  0  0  0  0  0  0  0
   10.8144   11.1246   22.2458 H   0  0  0  0  0  0  0  0  0  0  0  0
    6.9338   10.9091   25.3327 H   0  0  0  0  0  0  0  0  0  0  0  0
    6.8512   14.0042   26.6911 H   0  0  0  0  0  0  0  0  0  0  0  0
    7.2201   12.2598   26.8618 H   0  0  0  0  0  0  0  0  0  0  0  0
    6.1548   12.8259   25.5485 H   0  0  0  0  0  0  0  0  0  0  0  0
   13.2198   14.1893   20.4813 H   0  0  0  0  0  0  0  0  0  0  0  0
   11.5488   14.2640   19.8732 H   0  0  0  0  0  0  0  0  0  0  0  0
   10.8341   12.9707   21.5683 H   0  0  0  0  0  0  0  0  0  0  0  0
  1  2  1  0  0  0  0
  1  3  2  0  0  0  0
  2  4  2  0  0  0  0
  3  5  1  0  0  0  0
  4  6  1  0  0  0  0
  5  6  2  0  0  0  0
  5  7  1  0  0  0  0
  6 14  1  0  0  0  0
  7 11  1  0  0  0  0
  7 12  2  0  0  0  0
  8 10  1  0  0  0  0
  8 11  1  0  0  0  0
  8 13  2  0  0  0  0
  9 14  1  0  0  0  0
 10 15  1  0  0  0  0
  1 16  1  0  0  0  0
  2 17  1  0  0  0  0
  3 18  1  0  0  0  0
  4 19  1  0  0  0  0
  9 20  1  0  0  0  0
  9 21  1  0  0  0  0
  9 22  1  0  0  0  0
 10 23  1  0  0  0  0
 10 24  1  0  0  0  0
 11 25  1  0  0  0  0
M  END
> <Catalog ID>
Z56912092

> <MW>
227.035

> <MW (desalted)>
227.644

> <ClogP>
1.415

> <logS>
-2.58

> <HBD>
1

> <HBA>
3

> <TPSA>
55.4

> <RotBonds>
3

> <ROCS_ShapeQuery>
A71EV2A-x0451_0A_A71EV2A-x0310_0A_A71EV2A-x0416_0A_peptide

> <ROCS_TanimotoCombo>
0.438 

> <ROCS_ShapeTanimoto>
0.284 

> <ROCS_ColorTanimoto>
0.154 

> <ROCS_RefTversky>
0.253 

> <ROCS_RefColorTversky>
0.161 

> <ROCS_RefTverskyCombo>
0.414 

> <ROCS_FitTversky>
1.787 

> <ROCS_FitColorTversky>
0.771 

> <ROCS_FitTverskyCombo>
2.559 

> <ROCS_ColorScore>
-4.888

> <ROCS_Overlap>
1750.903

> <ROCS_Rank>
220                 

$$$$
untitled-dbase-418_111
  -OEChem-11112315393D

 32 33  0     1  0  0  0  0  0999 V2000
    6.4834   11.6203   26.3779 C   0  0  0  0  0  0  0  0  0  0  0  0
    6.8982   12.8959   26.0161 C   0  0  0  0  0  0  0  0  0  0  0  0
    7.0129   10.5107   25.7241 C   0  0  0  0  0  0  0  0  0  0  0  0
    7.8527   13.0614   25.0108 C   0  0  0  0  0  0  0  0  0  0  0  0
    7.9645   10.6648   24.7015 C   0  0  0  0  0  0  0  0  0  0  0  0
    8.4213   11.9541   24.3559 C   0  0  0  0  0  0  0  0  0  0  0  0
   11.6337   14.9525   22.2147 C   0  0  0  0  0  0  0  0  0  0  0  0
    8.5001    9.4232   24.0336 C   0  0  0  0  0  0  0  0  0  0  0  0
    9.1611    9.7123   22.6920 C   0  0  0  0  0  0  0  0  0  0  0  0
   10.1546   10.8538   22.8423 C   0  0  0  0  0  0  0  0  0  0  0  0
    9.4414   12.1584   23.2429 C   0  0  2  0  0  0  0  0  0  0  0  0
   12.2471   15.2030   20.8608 C   0  0  0  0  0  0  0  0  0  0  0  0
   10.5093   13.2104   23.5723 C   0  0  0  0  0  0  0  0  0  0  0  0
   11.1160   13.6645   22.3692 N   0  0  0  0  0  0  0  0  0  0  0  0
   11.6192   15.8160   23.0902 O   0  0  0  0  0  0  0  0  0  0  0  0
   10.9778   15.8250   19.7946 Cl  0  0  0  0  0  0  0  0  0  0  0  0
    5.7463   11.4886   27.1635 H   0  0  0  0  0  0  0  0  0  0  0  0
    6.4794   13.7668   26.5132 H   0  0  0  0  0  0  0  0  0  0  0  0
    6.6777    9.5167   26.0119 H   0  0  0  0  0  0  0  0  0  0  0  0
    8.1553   14.0718   24.7370 H   0  0  0  0  0  0  0  0  0  0  0  0
    9.2261    8.9319   24.6864 H   0  0  0  0  0  0  0  0  0  0  0  0
    7.6627    8.7357   23.8820 H   0  0  0  0  0  0  0  0  0  0  0  0
    9.6664    8.8154   22.3218 H   0  0  0  0  0  0  0  0  0  0  0  0
    8.3958    9.9745   21.9557 H   0  0  0  0  0  0  0  0  0  0  0  0
   10.9189   10.5951   23.5809 H   0  0  0  0  0  0  0  0  0  0  0  0
   10.6726   11.0038   21.8881 H   0  0  0  0  0  0  0  0  0  0  0  0
    8.9104   12.5005   22.3373 H   0  0  0  0  0  0  0  0  0  0  0  0
   13.0617   15.9306   20.8970 H   0  0  0  0  0  0  0  0  0  0  0  0
   12.6269   14.2617   20.4542 H   0  0  0  0  0  0  0  0  0  0  0  0
   10.0032   14.0250   24.0832 H   0  0  0  0  0  0  0  0  0  0  0  0
   11.2392   12.7285   24.2172 H   0  0  0  0  0  0  0  0  0  0  0  0
   11.1763   13.0152   21.5770 H   0  0  0  0  0  0  0  0  0  0  0  0
  1  2  1  0  0  0  0
  1  3  2  0  0  0  0
  2  4  2  0  0  0  0
  3  5  1  0  0  0  0
  4  6  1  0  0  0  0
  5  6  2  0  0  0  0
  5  8  1  0  0  0  0
  6 11  1  0  0  0  0
  7 12  1  0  0  0  0
  7 14  1  0  0  0  0
  7 15  2  0  0  0  0
  8  9  1  0  0  0  0
  9 10  1  0  0  0  0
 10 11  1  0  0  0  0
 11 13  1  0  0  0  0
 12 16  1  0  0  0  0
 13 14  1  0  0  0  0
  1 17  1  0  0  0  0
  2 18  1  0  0  0  0
  3 19  1  0  0  0  0
  4 20  1  0  0  0  0
  8 21  1  0  0  0  0
  8 22  1  0  0  0  0
  9 23  1  0  0  0  0
  9 24  1  0  0  0  0
 10 25  1  0  0  0  0
 10 26  1  0  0  0  0
 11 27  1  0  0  0  0
 12 28  1  0  0  0  0
 12 29  1  0  0  0  0
 13 30  1  0  0  0  0
 13 31  1  0  0  0  0
 14 32  1  0  0  0  0
M  END
> <Catalog ID>
Z561135058

> <MW>
237.092

> <MW (desalted)>
237.725

> <ClogP>
2.695

> <logS>
-3.421

> <HBD>
1

> <HBA>
1

> <TPSA>
29.1

> <RotBonds>
3

> <ROCS_ShapeQuery>
A71EV2A-x0451_0A_A71EV2A-x0310_0A_A71EV2A-x0416_0A_peptide

> <ROCS_TanimotoCombo>
0.438 

> <ROCS_ShapeTanimoto>
0.308 

> <ROCS_ColorTanimoto>
0.130 

> <ROCS_RefTversky>
0.270 

> <ROCS_RefColorTversky>
0.135 

> <ROCS_RefTverskyCombo>
0.405 

> <ROCS_FitTversky>
1.849 

> <ROCS_FitColorTversky>
0.760 

> <ROCS_FitTverskyCombo>
2.609 

> <ROCS_ColorScore>
-4.097

> <ROCS_Overlap>
1872.054

> <ROCS_Rank>
221                 

$$$$
untitled-dbase-806_46
  -OEChem-11112315393D

 26 26  0     1  0  0  0  0  0999 V2000
    8.0373   10.2520   24.5270 C   0  0  0  0  0  0  0  0  0  0  0  0
    8.1275   12.4160   24.9067 C   0  0  0  0  0  0  0  0  0  0  0  0
    8.8703   11.3793   24.3967 C   0  0  0  0  0  0  0  0  0  0  0  0
   11.5491   14.2377   20.7786 C   0  0  0  0  0  0  0  0  0  0  0  0
   10.6511   14.5295   21.7244 C   0  0  0  0  0  0  0  0  0  0  0  0
   10.6078   13.7469   22.9885 C   0  0  0  0  0  0  0  0  0  0  0  0
    5.8302   12.5679   25.8958 C   0  0  0  0  0  0  0  0  0  0  0  0
   10.2707   11.4382   23.8260 C   0  0  1  0  0  0  0  0  0  0  0  0
   10.7687   10.0742   23.3713 C   0  0  0  0  0  0  0  0  0  0  0  0
    6.8558   10.5447   25.0770 N   0  0  0  0  0  0  0  0  0  0  0  0
    6.9411   11.8678   25.2967 N   0  0  0  0  0  0  0  0  0  0  0  0
   10.3625   12.4045   22.7557 N   0  0  0  0  0  0  0  0  0  0  0  0
   10.7712   14.2621   24.0898 O   0  0  0  0  0  0  0  0  0  0  0  0
   10.7962    9.2061   24.4091 F   0  0  0  0  0  0  0  0  0  0  0  0
    9.9531    9.5452   22.4317 F   0  0  0  0  0  0  0  0  0  0  0  0
   12.0142   10.1290   22.8539 F   0  0  0  0  0  0  0  0  0  0  0  0
    8.2400    9.2283   24.2458 H   0  0  0  0  0  0  0  0  0  0  0  0
    8.3374   13.4705   25.0237 H   0  0  0  0  0  0  0  0  0  0  0  0
   11.5739   14.8124   19.8587 H   0  0  0  0  0  0  0  0  0  0  0  0
   12.2725   13.4370   20.8867 H   0  0  0  0  0  0  0  0  0  0  0  0
    9.9450   15.3394   21.5768 H   0  0  0  0  0  0  0  0  0  0  0  0
    5.1760   12.9136   25.0912 H   0  0  0  0  0  0  0  0  0  0  0  0
    5.2902   11.8906   26.5633 H   0  0  0  0  0  0  0  0  0  0  0  0
    6.2072   13.4159   26.4745 H   0  0  0  0  0  0  0  0  0  0  0  0
   10.9573   11.8058   24.5981 H   0  0  0  0  0  0  0  0  0  0  0  0
   10.2084   12.0717   21.8082 H   0  0  0  0  0  0  0  0  0  0  0  0
  1  3  1  0  0  0  0
  1 10  2  0  0  0  0
  2  3  2  0  0  0  0
  2 11  1  0  0  0  0
  3  8  1  0  0  0  0
  4  5  2  0  0  0  0
  5  6  1  0  0  0  0
  6 12  1  0  0  0  0
  6 13  2  0  0  0  0
  7 11  1  0  0  0  0
  8  9  1  0  0  0  0
  8 12  1  0  0  0  0
  9 14  1  0  0  0  0
  9 15  1  0  0  0  0
  9 16  1  0  0  0  0
 10 11  1  0  0  0  0
  1 17  1  0  0  0  0
  2 18  1  0  0  0  0
  4 19  1  0  0  0  0
  4 20  1  0  0  0  0
  5 21  1  0  0  0  0
  7 22  1  0  0  0  0
  7 23  1  0  0  0  0
  7 24  1  0  0  0  0
  8 25  1  0  0  0  0
 12 26  1  0  0  0  0
M  END
> <Catalog ID>
Z2737383462

> <MW>
233.19

> <MW (desalted)>
233.19

> <ClogP>
0.073

> <logS>
-1.6

> <HBD>
1

> <HBA>
2

> <TPSA>
46.92

> <RotBonds>
4

> <ROCS_ShapeQuery>
A71EV2A-x0451_0A_A71EV2A-x0310_0A_A71EV2A-x0416_0A_peptide

> <ROCS_TanimotoCombo>
0.438 

> <ROCS_ShapeTanimoto>
0.293 

> <ROCS_ColorTanimoto>
0.145 

> <ROCS_RefTversky>
0.261 

> <ROCS_RefColorTversky>
0.153 

> <ROCS_RefTverskyCombo>
0.414 

> <ROCS_FitTversky>
1.732 

> <ROCS_FitColorTversky>
0.734 

> <ROCS_FitTverskyCombo>
2.466 

> <ROCS_ColorScore>
-4.651

> <ROCS_Overlap>
1806.098

> <ROCS_Rank>
222                 

$$$$
untitled-dbase-734_4
  -OEChem-11112315393D

 38 40  0     1  0  0  0  0  0999 V2000
   10.5928    7.4953   22.0293 C   0  0  0  0  0  0  0  0  0  0  0  0
   11.7518    8.2151   22.3578 C   0  0  0  0  0  0  0  0  0  0  0  0
    9.3279    8.0343   22.2726 C   0  0  0  0  0  0  0  0  0  0  0  0
   11.6615    9.4847   22.9319 C   0  0  0  0  0  0  0  0  0  0  0  0
    9.2483    9.2892   22.8535 C   0  0  0  0  0  0  0  0  0  0  0  0
   10.4020   10.0098   23.1758 C   0  0  0  0  0  0  0  0  0  0  0  0
   11.6451   14.3170   21.0213 C   0  0  0  0  0  0  0  0  0  0  0  0
   10.6964   14.5749   21.9267 C   0  0  0  0  0  0  0  0  0  0  0  0
   10.5377   13.7019   23.1203 C   0  0  0  0  0  0  0  0  0  0  0  0
    8.0138   10.0711   23.1814 C   0  0  0  0  0  0  0  0  0  0  0  0
    8.4958   10.6374   25.6370 C   0  0  0  0  0  0  0  0  0  0  0  0
    7.7228   12.4492   24.0897 C   0  0  0  0  0  0  0  0  0  0  0  0
    7.0734   10.5929   26.1887 C   0  0  0  0  0  0  0  0  0  0  0  0
    6.3363   12.2748   24.6997 C   0  0  0  0  0  0  0  0  0  0  0  0
   10.0576   11.3532   23.7515 C   0  0  2  0  0  0  0  0  0  0  0  0
    8.5568   11.1528   24.1697 C   0  0  0  0  0  0  0  0  0  0  0  0
   10.2579   12.3901   22.7704 N   0  0  0  0  0  0  0  0  0  0  0  0
   10.6451   14.1252   24.2668 O   0  0  0  0  0  0  0  0  0  0  0  0
    6.4358   11.8608   26.0598 O   0  0  0  0  0  0  0  0  0  0  0  0
   10.6820    6.5110   21.5780 H   0  0  0  0  0  0  0  0  0  0  0  0
   12.7280    7.7815   22.1579 H   0  0  0  0  0  0  0  0  0  0  0  0
    8.4333    7.4789   22.0117 H   0  0  0  0  0  0  0  0  0  0  0  0
   12.5587   10.0429   23.1766 H   0  0  0  0  0  0  0  0  0  0  0  0
   11.7540   14.9578   20.1526 H   0  0  0  0  0  0  0  0  0  0  0  0
   12.3287   13.4802   21.1133 H   0  0  0  0  0  0  0  0  0  0  0  0
   10.0331   15.4232   21.7972 H   0  0  0  0  0  0  0  0  0  0  0  0
    7.6241   10.5235   22.2625 H   0  0  0  0  0  0  0  0  0  0  0  0
    7.2442    9.4327   23.6228 H   0  0  0  0  0  0  0  0  0  0  0  0
    9.0761   11.3246   26.2674 H   0  0  0  0  0  0  0  0  0  0  0  0
    8.9576    9.6482   25.7355 H   0  0  0  0  0  0  0  0  0  0  0  0
    7.6167   12.7922   23.0543 H   0  0  0  0  0  0  0  0  0  0  0  0
    8.2478   13.2380   24.6443 H   0  0  0  0  0  0  0  0  0  0  0  0
    6.4646    9.8264   25.6974 H   0  0  0  0  0  0  0  0  0  0  0  0
    7.1021   10.3450   27.2549 H   0  0  0  0  0  0  0  0  0  0  0  0
    5.8043   13.2315   24.6838 H   0  0  0  0  0  0  0  0  0  0  0  0
    5.7312   11.5543   24.1374 H   0  0  0  0  0  0  0  0  0  0  0  0
   10.6867   11.5899   24.6164 H   0  0  0  0  0  0  0  0  0  0  0  0
   10.1567   12.1390   21.7896 H   0  0  0  0  0  0  0  0  0  0  0  0
  1  2  1  0  0  0  0
  1  3  2  0  0  0  0
  2  4  2  0  0  0  0
  3  5  1  0  0  0  0
  4  6  1  0  0  0  0
  5  6  2  0  0  0  0
  5 10  1  0  0  0  0
  6 15  1  0  0  0  0
  7  8  2  0  0  0  0
  8  9  1  0  0  0  0
  9 17  1  0  0  0  0
  9 18  2  0  0  0  0
 10 16  1  0  0  0  0
 11 13  1  0  0  0  0
 11 16  1  0  0  0  0
 12 14  1  0  0  0  0
 12 16  1  0  0  0  0
 13 19  1  0  0  0  0
 14 19  1  0  0  0  0
 15 16  1  0  0  0  0
 15 17  1  0  0  0  0
  1 20  1  0  0  0  0
  2 21  1  0  0  0  0
  3 22  1  0  0  0  0
  4 23  1  0  0  0  0
  7 24  1  0  0  0  0
  7 25  1  0  0  0  0
  8 26  1  0  0  0  0
 10 27  1  0  0  0  0
 10 28  1  0  0  0  0
 11 29  1  0  0  0  0
 11 30  1  0  0  0  0
 12 31  1  0  0  0  0
 12 32  1  0  0  0  0
 13 33  1  0  0  0  0
 13 34  1  0  0  0  0
 14 35  1  0  0  0  0
 14 36  1  0  0  0  0
 15 37  1  0  0  0  0
 17 38  1  0  0  0  0
M  END
> <Catalog ID>
Z2285378183

> <MW>
257.328

> <MW (desalted)>
257.328

> <ClogP>
1.191

> <logS>
-2.6

> <HBD>
1

> <HBA>
2

> <TPSA>
38.33

> <RotBonds>
2

> <ROCS_ShapeQuery>
A71EV2A-x0451_0A_A71EV2A-x0310_0A_A71EV2A-x0416_0A_peptide

> <ROCS_TanimotoCombo>
0.438 

> <ROCS_ShapeTanimoto>
0.304 

> <ROCS_ColorTanimoto>
0.134 

> <ROCS_RefTversky>
0.272 

> <ROCS_RefColorTversky>
0.150 

> <ROCS_RefTverskyCombo>
0.423 

> <ROCS_FitTversky>
1.613 

> <ROCS_FitColorTversky>
0.555 

> <ROCS_FitTverskyCombo>
2.168 

> <ROCS_ColorScore>
-4.583

> <ROCS_Overlap>
1888.724

> <ROCS_Rank>
223                 

$$$$
untitled-dbase-233_13
  -OEChem-11112315393D

 25 25  0     0  0  0  0  0  0999 V2000
    7.9265    9.6253   24.3541 C   0  0  0  0  0  0  0  0  0  0  0  0
    7.1048   10.3853   25.1864 C   0  0  0  0  0  0  0  0  0  0  0  0
    8.2641   12.3907   24.4996 C   0  0  0  0  0  0  0  0  0  0  0  0
    9.0858   11.6307   23.6673 C   0  0  0  0  0  0  0  0  0  0  0  0
    8.9170   10.2480   23.5945 C   0  0  0  0  0  0  0  0  0  0  0  0
    7.2736   11.7680   25.2592 C   0  0  0  0  0  0  0  0  0  0  0  0
   10.7582   13.4175   23.2515 C   0  0  0  0  0  0  0  0  0  0  0  0
    7.1050   12.7543   27.8578 C   0  0  0  0  0  0  0  0  0  0  0  0
   11.7642   13.8098   22.1944 C   0  0  0  0  0  0  0  0  0  0  0  0
   10.0762   12.2556   22.9088 N   0  0  0  0  0  0  0  0  0  0  0  0
   10.6121   14.1129   24.2530 O   0  0  0  0  0  0  0  0  0  0  0  0
    6.2092   14.0770   25.7787 O   0  0  0  0  0  0  0  0  0  0  0  0
    4.9993   11.9961   26.5216 O   0  0  0  0  0  0  0  0  0  0  0  0
    9.7014    9.5072   22.7987 F   0  0  0  0  0  0  0  0  0  0  0  0
    6.2448   12.7186   26.3014 S   0  0  0  0  0  0  0  0  0  0  0  0
   11.1498   13.2514   20.6303 Cl  0  0  0  0  0  0  0  0  0  0  0  0
    7.7961    8.5488   24.2975 H   0  0  0  0  0  0  0  0  0  0  0  0
    6.3363    9.8899   25.7738 H   0  0  0  0  0  0  0  0  0  0  0  0
    8.3953   13.4690   24.5572 H   0  0  0  0  0  0  0  0  0  0  0  0
    6.5133   13.3378   28.5649 H   0  0  0  0  0  0  0  0  0  0  0  0
    7.2206   11.7284   28.2109 H   0  0  0  0  0  0  0  0  0  0  0  0
    8.0803   13.2174   27.7015 H   0  0  0  0  0  0  0  0  0  0  0  0
   12.7500   13.3693   22.3639 H   0  0  0  0  0  0  0  0  0  0  0  0
   11.8628   14.8988   22.1717 H   0  0  0  0  0  0  0  0  0  0  0  0
   10.3224   11.8202   22.0219 H   0  0  0  0  0  0  0  0  0  0  0  0
  1  2  2  0  0  0  0
  1  5  1  0  0  0  0
  2  6  1  0  0  0  0
  3  4  1  0  0  0  0
  3  6  2  0  0  0  0
  4  5  2  0  0  0  0
  4 10  1  0  0  0  0
  5 14  1  0  0  0  0
  6 15  1  0  0  0  0
  7  9  1  0  0  0  0
  7 10  1  0  0  0  0
  7 11  2  0  0  0  0
  8 15  1  0  0  0  0
  9 16  1  0  0  0  0
 12 15  2  0  0  0  0
 13 15  2  0  0  0  0
  1 17  1  0  0  0  0
  2 18  1  0  0  0  0
  3 19  1  0  0  0  0
  8 20  1  0  0  0  0
  8 21  1  0  0  0  0
  8 22  1  0  0  0  0
  9 23  1  0  0  0  0
  9 24  1  0  0  0  0
 10 25  1  0  0  0  0
M  END
> <Catalog ID>
Z445399578

> <MW>
264.998

> <MW (desalted)>
265.689

> <ClogP>
0.448

> <logS>
-2.309

> <HBD>
1

> <HBA>
3

> <TPSA>
63.24

> <RotBonds>
3

> <ROCS_ShapeQuery>
A71EV2A-x0451_0A_A71EV2A-x0310_0A_A71EV2A-x0416_0A_peptide

> <ROCS_TanimotoCombo>
0.438 

> <ROCS_ShapeTanimoto>
0.300 

> <ROCS_ColorTanimoto>
0.138 

> <ROCS_RefTversky>
0.264 

> <ROCS_RefColorTversky>
0.147 

> <ROCS_RefTverskyCombo>
0.410 

> <ROCS_FitTversky>
1.831 

> <ROCS_FitColorTversky>
0.703 

> <ROCS_FitTverskyCombo>
2.534 

> <ROCS_ColorScore>
-4.457

> <ROCS_Overlap>
1827.584

> <ROCS_Rank>
224                 

$$$$
untitled-dbase-13_17
  -OEChem-11112315393D

 22 22  0     0  0  0  0  0  0999 V2000
    8.1237   11.9945   24.1366 C   0  0  0  0  0  0  0  0  0  0  0  0
    7.4994   10.8167   24.5893 C   0  0  0  0  0  0  0  0  0  0  0  0
    9.2480   11.5567   23.4803 C   0  0  0  0  0  0  0  0  0  0  0  0
   10.6882   13.5496   23.1383 C   0  0  0  0  0  0  0  0  0  0  0  0
    6.2487   10.7035   25.3585 C   0  0  0  0  0  0  0  0  0  0  0  0
   10.2040    9.2726   23.0419 C   0  0  0  0  0  0  0  0  0  0  0  0
   11.1990   14.2856   21.9214 C   0  0  0  0  0  0  0  0  0  0  0  0
    8.1713    9.7136   24.2492 N   0  0  0  0  0  0  0  0  0  0  0  0
    9.2294   10.1963   23.5758 N   0  0  0  0  0  0  0  0  0  0  0  0
   10.2348   12.2534   22.8366 N   0  0  0  0  0  0  0  0  0  0  0  0
   10.6832   14.1002   24.2359 O   0  0  0  0  0  0  0  0  0  0  0  0
   12.4627   15.4041   22.4577 Cl  0  0  0  0  0  0  0  0  0  0  0  0
    7.8023   13.0179   24.2683 H   0  0  0  0  0  0  0  0  0  0  0  0
    5.3741   10.6189   24.6910 H   0  0  0  0  0  0  0  0  0  0  0  0
    6.2461    9.8212   26.0231 H   0  0  0  0  0  0  0  0  0  0  0  0
    6.0825   11.5763   26.0152 H   0  0  0  0  0  0  0  0  0  0  0  0
   10.9700    9.1119   23.8052 H   0  0  0  0  0  0  0  0  0  0  0  0
    9.7117    8.3292   22.7898 H   0  0  0  0  0  0  0  0  0  0  0  0
   10.6475    9.6980   22.1373 H   0  0  0  0  0  0  0  0  0  0  0  0
   10.4173   14.8547   21.4118 H   0  0  0  0  0  0  0  0  0  0  0  0
   11.6309   13.5691   21.2171 H   0  0  0  0  0  0  0  0  0  0  0  0
   10.6941   11.7773   22.0470 H   0  0  0  0  0  0  0  0  0  0  0  0
  1  2  1  0  0  0  0
  1  3  2  0  0  0  0
  2  5  1  0  0  0  0
  2  8  2  0  0  0  0
  3  9  1  0  0  0  0
  3 10  1  0  0  0  0
  4  7  1  0  0  0  0
  4 10  1  0  0  0  0
  4 11  2  0  0  0  0
  6  9  1  0  0  0  0
  7 12  1  0  0  0  0
  8  9  1  0  0  0  0
  1 13  1  0  0  0  0
  5 14  1  0  0  0  0
  5 15  1  0  0  0  0
  5 16  1  0  0  0  0
  6 17  1  0  0  0  0
  6 18  1  0  0  0  0
  6 19  1  0  0  0  0
  7 20  1  0  0  0  0
  7 21  1  0  0  0  0
 10 22  1  0  0  0  0
M  END
> <Catalog ID>
Z199472064

> <MW>
187.051

> <MW (desalted)>
187.627

> <ClogP>
0.565

> <logS>
-1.04

> <HBD>
1

> <HBA>
2

> <TPSA>
46.92

> <RotBonds>
2

> <ROCS_ShapeQuery>
A71EV2A-x0451_0A_A71EV2A-x0310_0A_A71EV2A-x0416_0A_peptide

> <ROCS_TanimotoCombo>
0.438 

> <ROCS_ShapeTanimoto>
0.264 

> <ROCS_ColorTanimoto>
0.174 

> <ROCS_RefTversky>
0.235 

> <ROCS_RefColorTversky>
0.174 

> <ROCS_RefTverskyCombo>
0.409 

> <ROCS_FitTversky>
1.903 

> <ROCS_FitColorTversky>
0.982 

> <ROCS_FitTverskyCombo>
2.885 

> <ROCS_ColorScore>
-5.286

> <ROCS_Overlap>
1623.681

> <ROCS_Rank>
225                 

$$$$
untitled-dbase-743_61
  -OEChem-11112315393D

 26 26  0     0  0  0  0  0  0999 V2000
    8.3609   12.0810   24.3267 C   0  0  0  0  0  0  0  0  0  0  0  0
    9.2017   10.2089   23.4004 C   0  0  0  0  0  0  0  0  0  0  0  0
    9.3589   11.5761   23.4571 C   0  0  0  0  0  0  0  0  0  0  0  0
    7.6242   11.0069   24.7750 C   0  0  0  0  0  0  0  0  0  0  0  0
    6.5102   11.0264   25.6730 C   0  0  0  0  0  0  0  0  0  0  0  0
   10.9095   13.4967   23.1925 C   0  0  0  0  0  0  0  0  0  0  0  0
    7.6640    8.5254   24.4118 C   0  0  0  0  0  0  0  0  0  0  0  0
    5.0986   12.4495   27.0015 C   0  0  0  0  0  0  0  0  0  0  0  0
   11.9293   14.0066   22.2009 C   0  0  0  0  0  0  0  0  0  0  0  0
    8.1445    9.8741   24.2056 N   0  0  0  0  0  0  0  0  0  0  0  0
   10.3187   12.2936   22.7817 N   0  0  0  0  0  0  0  0  0  0  0  0
    5.8696   10.0208   26.0532 O   0  0  0  0  0  0  0  0  0  0  0  0
   10.6672   14.1357   24.2128 O   0  0  0  0  0  0  0  0  0  0  0  0
    6.1975   12.2988   26.0963 O   0  0  0  0  0  0  0  0  0  0  0  0
   11.9517   15.7739   22.3097 Cl  0  0  0  0  0  0  0  0  0  0  0  0
    8.1968   13.1159   24.5968 H   0  0  0  0  0  0  0  0  0  0  0  0
    9.7488    9.4488   22.8580 H   0  0  0  0  0  0  0  0  0  0  0  0
    8.2000    8.1033   25.2659 H   0  0  0  0  0  0  0  0  0  0  0  0
    6.5885    8.5481   24.6086 H   0  0  0  0  0  0  0  0  0  0  0  0
    7.8508    7.9336   23.5114 H   0  0  0  0  0  0  0  0  0  0  0  0
    4.9702   13.5064   27.2473 H   0  0  0  0  0  0  0  0  0  0  0  0
    5.2923   11.8740   27.9102 H   0  0  0  0  0  0  0  0  0  0  0  0
    4.1901   12.0761   26.5229 H   0  0  0  0  0  0  0  0  0  0  0  0
   11.6995   13.7194   21.1717 H   0  0  0  0  0  0  0  0  0  0  0  0
   12.9179   13.6196   22.4636 H   0  0  0  0  0  0  0  0  0  0  0  0
   10.6351   11.9081   21.8839 H   0  0  0  0  0  0  0  0  0  0  0  0
  1  3  1  0  0  0  0
  1  4  2  0  0  0  0
  2  3  2  0  0  0  0
  2 10  1  0  0  0  0
  3 11  1  0  0  0  0
  4  5  1  0  0  0  0
  4 10  1  0  0  0  0
  5 12  2  0  0  0  0
  5 14  1  0  0  0  0
  6  9  1  0  0  0  0
  6 11  1  0  0  0  0
  6 13  2  0  0  0  0
  7 10  1  0  0  0  0
  8 14  1  0  0  0  0
  9 15  1  0  0  0  0
  1 16  1  0  0  0  0
  2 17  1  0  0  0  0
  7 18  1  0  0  0  0
  7 19  1  0  0  0  0
  7 20  1  0  0  0  0
  8 21  1  0  0  0  0
  8 22  1  0  0  0  0
  8 23  1  0  0  0  0
  9 24  1  0  0  0  0
  9 25  1  0  0  0  0
 11 26  1  0  0  0  0
M  END
> <Catalog ID>
Z285921532

> <MW>
230.046

> <MW (desalted)>
230.648

> <ClogP>
1.411

> <logS>
-1.1

> <HBD>
1

> <HBA>
2

> <TPSA>
60.33

> <RotBonds>
4

> <ROCS_ShapeQuery>
A71EV2A-x0451_0A_A71EV2A-x0310_0A_A71EV2A-x0416_0A_peptide

> <ROCS_TanimotoCombo>
0.437 

> <ROCS_ShapeTanimoto>
0.297 

> <ROCS_ColorTanimoto>
0.140 

> <ROCS_RefTversky>
0.262 

> <ROCS_RefColorTversky>
0.145 

> <ROCS_RefTverskyCombo>
0.406 

> <ROCS_FitTversky>
1.846 

> <ROCS_FitColorTversky>
0.814 

> <ROCS_FitTverskyCombo>
2.660 

> <ROCS_ColorScore>
-4.384

> <ROCS_Overlap>
1811.817

> <ROCS_Rank>
226                 

$$$$
untitled-dbase-594_132
  -OEChem-11112315393D

 27 27  0     0  0  0  0  0  0999 V2000
    4.9348   11.1466   26.8716 C   0  0  0  0  0  0  0  0  0  0  0  0
    8.1277    9.7541   25.0269 C   0  0  0  0  0  0  0  0  0  0  0  0
    6.9421   11.8541   25.1731 C   0  0  0  0  0  0  0  0  0  0  0  0
    9.0511   10.3358   24.1583 C   0  0  0  0  0  0  0  0  0  0  0  0
    7.8655   12.4359   24.3045 C   0  0  0  0  0  0  0  0  0  0  0  0
    8.9200   11.6767   23.7971 C   0  0  0  0  0  0  0  0  0  0  0  0
    7.0732   10.5132   25.5343 C   0  0  0  0  0  0  0  0  0  0  0  0
   10.6611   13.3468   23.2121 C   0  0  0  0  0  0  0  0  0  0  0  0
   10.1697    9.4970   23.6305 C   0  0  0  0  0  0  0  0  0  0  0  0
    7.6990   13.8746   23.9357 C   0  0  0  0  0  0  0  0  0  0  0  0
   11.5394   13.7101   22.0373 C   0  0  0  0  0  0  0  0  0  0  0  0
    4.2767   12.0890   27.0286 N   0  0  0  0  0  0  0  0  0  0  0  0
    9.8463   12.2602   22.9260 N   0  0  0  0  0  0  0  0  0  0  0  0
   10.7142   14.0029   24.2488 O   0  0  0  0  0  0  0  0  0  0  0  0
    5.8933    9.7698   26.6442 S   0  0  0  0  0  0  0  0  0  0  0  0
   12.5323   15.0967   22.5138 Cl  0  0  0  0  0  0  0  0  0  0  0  0
    8.2373    8.7073   25.3035 H   0  0  0  0  0  0  0  0  0  0  0  0
    6.1225   12.4535   25.5645 H   0  0  0  0  0  0  0  0  0  0  0  0
    9.8705    9.0118   22.6947 H   0  0  0  0  0  0  0  0  0  0  0  0
   11.0633   10.1037   23.4406 H   0  0  0  0  0  0  0  0  0  0  0  0
   10.4565    8.7217   24.3513 H   0  0  0  0  0  0  0  0  0  0  0  0
    8.2393   14.5123   24.6443 H   0  0  0  0  0  0  0  0  0  0  0  0
    8.0804   14.0707   22.9264 H   0  0  0  0  0  0  0  0  0  0  0  0
    6.6411   14.1638   23.9399 H   0  0  0  0  0  0  0  0  0  0  0  0
   10.9655   13.9767   21.1462 H   0  0  0  0  0  0  0  0  0  0  0  0
   12.1937   12.8673   21.7975 H   0  0  0  0  0  0  0  0  0  0  0  0
    9.9302   11.8512   21.9990 H   0  0  0  0  0  0  0  0  0  0  0  0
  1 12  3  0  0  0  0
  1 15  1  0  0  0  0
  2  4  1  0  0  0  0
  2  7  2  0  0  0  0
  3  5  2  0  0  0  0
  3  7  1  0  0  0  0
  4  6  2  0  0  0  0
  4  9  1  0  0  0  0
  5  6  1  0  0  0  0
  5 10  1  0  0  0  0
  6 13  1  0  0  0  0
  7 15  1  0  0  0  0
  8 11  1  0  0  0  0
  8 13  1  0  0  0  0
  8 14  2  0  0  0  0
 11 16  1  0  0  0  0
  2 17  1  0  0  0  0
  3 18  1  0  0  0  0
  9 19  1  0  0  0  0
  9 20  1  0  0  0  0
  9 21  1  0  0  0  0
 10 22  1  0  0  0  0
 10 23  1  0  0  0  0
 10 24  1  0  0  0  0
 11 25  1  0  0  0  0
 11 26  1  0  0  0  0
 13 27  1  0  0  0  0
M  END
> <Catalog ID>
Z56948416

> <MW>
254.028

> <MW (desalted)>
254.736

> <ClogP>
1.885

> <logS>
-3.97

> <HBD>
1

> <HBA>
2

> <TPSA>
52.89

> <RotBonds>
3

> <ROCS_ShapeQuery>
A71EV2A-x0451_0A_A71EV2A-x0310_0A_A71EV2A-x0416_0A_peptide

> <ROCS_TanimotoCombo>
0.437 

> <ROCS_ShapeTanimoto>
0.284 

> <ROCS_ColorTanimoto>
0.153 

> <ROCS_RefTversky>
0.253 

> <ROCS_RefColorTversky>
0.156 

> <ROCS_RefTverskyCombo>
0.409 

> <ROCS_FitTversky>
1.764 

> <ROCS_FitColorTversky>
0.877 

> <ROCS_FitTverskyCombo>
2.642 

> <ROCS_ColorScore>
-4.726

> <ROCS_Overlap>
1754.908

> <ROCS_Rank>
227                 

$$$$
untitled-dbase-349_7
  -OEChem-11112315393D

 21 21  0     0  0  0  0  0  0999 V2000
    7.3335   10.2298   24.8441 C   0  0  0  0  0  0  0  0  0  0  0  0
    8.2600    9.5333   24.0682 C   0  0  0  0  0  0  0  0  0  0  0  0
    8.4092   12.3125   24.2590 C   0  0  0  0  0  0  0  0  0  0  0  0
    9.3358   11.6159   23.4832 C   0  0  0  0  0  0  0  0  0  0  0  0
    7.4081   11.6195   24.9395 C   0  0  0  0  0  0  0  0  0  0  0  0
    9.2612   10.2263   23.3878 C   0  0  0  0  0  0  0  0  0  0  0  0
   10.9162   13.5095   23.2015 C   0  0  0  0  0  0  0  0  0  0  0  0
   11.9685   13.9766   22.2227 C   0  0  0  0  0  0  0  0  0  0  0  0
   10.3362   12.3108   22.8026 N   0  0  0  0  0  0  0  0  0  0  0  0
    6.4640   12.3280   25.7289 N   0  3  0  0  0  0  0  0  0  0  0  0
    5.5713   11.6849   26.3323 O   0  5  0  0  0  0  0  0  0  0  0  0
   10.6544   14.1830   24.1945 O   0  0  0  0  0  0  0  0  0  0  0  0
    6.5482   13.5779   25.8014 O   0  0  0  0  0  0  0  0  0  0  0  0
   10.1470    9.5461   22.6461 F   0  0  0  0  0  0  0  0  0  0  0  0
   11.5049   13.3981   20.6146 Cl  0  0  0  0  0  0  0  0  0  0  0  0
    6.5584    9.6774   25.3696 H   0  0  0  0  0  0  0  0  0  0  0  0
    8.2026    8.4514   23.9938 H   0  0  0  0  0  0  0  0  0  0  0  0
    8.4686   13.3968   24.3313 H   0  0  0  0  0  0  0  0  0  0  0  0
   12.9656   13.5973   22.4602 H   0  0  0  0  0  0  0  0  0  0  0  0
   11.9986   15.0698   22.2145 H   0  0  0  0  0  0  0  0  0  0  0  0
   10.6728   11.9017   21.9330 H   0  0  0  0  0  0  0  0  0  0  0  0
  1  2  2  0  0  0  0
  1  5  1  0  0  0  0
  2  6  1  0  0  0  0
  3  4  1  0  0  0  0
  3  5  2  0  0  0  0
  4  6  2  0  0  0  0
  4  9  1  0  0  0  0
  5 10  1  0  0  0  0
  6 14  1  0  0  0  0
  7  8  1  0  0  0  0
  7  9  1  0  0  0  0
  7 12  2  0  0  0  0
  8 15  1  0  0  0  0
 10 11  1  0  0  0  0
 10 13  2  0  0  0  0
  1 16  1  0  0  0  0
  2 17  1  0  0  0  0
  3 18  1  0  0  0  0
  8 19  1  0  0  0  0
  8 20  1  0  0  0  0
  9 21  1  0  0  0  0
M  CHG  2  10   1  11  -1
M  END
> <Catalog ID>
Z56862357

> <MW>
232.005

> <MW (desalted)>
232.596

> <ClogP>
1.702

> <logS>
-3.19

> <HBD>
1

> <HBA>
3

> <TPSA>
72.24

> <RotBonds>
3

> <ROCS_ShapeQuery>
A71EV2A-x0451_0A_A71EV2A-x0310_0A_A71EV2A-x0416_0A_peptide

> <ROCS_TanimotoCombo>
0.437 

> <ROCS_ShapeTanimoto>
0.303 

> <ROCS_ColorTanimoto>
0.133 

> <ROCS_RefTversky>
0.266 

> <ROCS_RefColorTversky>
0.142 

> <ROCS_RefTverskyCombo>
0.408 

> <ROCS_FitTversky>
1.866 

> <ROCS_FitColorTversky>
0.681 

> <ROCS_FitTverskyCombo>
2.547 

> <ROCS_ColorScore>
-4.325

> <ROCS_Overlap>
1842.712

> <ROCS_Rank>
228                 

$$$$
untitled-dbase-681_66
  -OEChem-11112315393D

 25 25  0     0  0  0  0  0  0999 V2000
    8.3054   12.0050   24.3663 C   0  0  0  0  0  0  0  0  0  0  0  0
    7.6219   10.8386   24.7590 C   0  0  0  0  0  0  0  0  0  0  0  0
    9.2849   11.5582   23.5133 C   0  0  0  0  0  0  0  0  0  0  0  0
   10.8778   13.4385   23.2139 C   0  0  0  0  0  0  0  0  0  0  0  0
    9.4243    7.8251   22.7900 C   0  0  0  0  0  0  0  0  0  0  0  0
   11.4295    9.3526   23.0183 C   0  0  0  0  0  0  0  0  0  0  0  0
   11.9038   13.9109   22.2101 C   0  0  0  0  0  0  0  0  0  0  0  0
    9.9431    9.2592   22.6683 C   0  0  0  0  0  0  0  0  0  0  0  0
    8.1246    9.7339   24.2013 N   0  0  0  0  0  0  0  0  0  0  0  0
    9.1342   10.2042   23.4493 N   0  0  0  0  0  0  0  0  0  0  0  0
   10.2525   12.2404   22.8264 N   0  0  0  0  0  0  0  0  0  0  0  0
   10.6558   14.0972   24.2263 O   0  0  0  0  0  0  0  0  0  0  0  0
   11.9675   15.6785   22.2939 Cl  0  0  0  0  0  0  0  0  0  0  0  0
    8.1117   13.0256   24.6630 H   0  0  0  0  0  0  0  0  0  0  0  0
    6.7787   10.7477   25.4285 H   0  0  0  0  0  0  0  0  0  0  0  0
    9.4933    7.4513   23.8171 H   0  0  0  0  0  0  0  0  0  0  0  0
   10.0043    7.1509   22.1508 H   0  0  0  0  0  0  0  0  0  0  0  0
    8.3748    7.7621   22.4817 H   0  0  0  0  0  0  0  0  0  0  0  0
   11.6032    9.0700   24.0624 H   0  0  0  0  0  0  0  0  0  0  0  0
   11.7931   10.3766   22.8812 H   0  0  0  0  0  0  0  0  0  0  0  0
   12.0396    8.6958   22.3891 H   0  0  0  0  0  0  0  0  0  0  0  0
   11.6619   13.6148   21.1862 H   0  0  0  0  0  0  0  0  0  0  0  0
   12.8846   13.5048   22.4732 H   0  0  0  0  0  0  0  0  0  0  0  0
    9.8388    9.5534   21.6160 H   0  0  0  0  0  0  0  0  0  0  0  0
   10.5547   11.8326   21.9302 H   0  0  0  0  0  0  0  0  0  0  0  0
  1  2  1  0  0  0  0
  1  3  2  0  0  0  0
  2  9  2  0  0  0  0
  3 10  1  0  0  0  0
  3 11  1  0  0  0  0
  4  7  1  0  0  0  0
  4 11  1  0  0  0  0
  4 12  2  0  0  0  0
  5  8  1  0  0  0  0
  6  8  1  0  0  0  0
  7 13  1  0  0  0  0
  8 10  1  0  0  0  0
  9 10  1  0  0  0  0
  1 14  1  0  0  0  0
  2 15  1  0  0  0  0
  5 16  1  0  0  0  0
  5 17  1  0  0  0  0
  5 18  1  0  0  0  0
  6 19  1  0  0  0  0
  6 20  1  0  0  0  0
  6 21  1  0  0  0  0
  7 22  1  0  0  0  0
  7 23  1  0  0  0  0
  8 24  1  0  0  0  0
 11 25  1  0  0  0  0
M  END
> <Catalog ID>
Z56347133

> <MW>
201.067

> <MW (desalted)>
201.653

> <ClogP>
1.134

> <logS>
-1.36

> <HBD>
1

> <HBA>
2

> <TPSA>
46.92

> <RotBonds>
3

> <ROCS_ShapeQuery>
A71EV2A-x0451_0A_A71EV2A-x0310_0A_A71EV2A-x0416_0A_peptide

> <ROCS_TanimotoCombo>
0.437 

> <ROCS_ShapeTanimoto>
0.267 

> <ROCS_ColorTanimoto>
0.170 

> <ROCS_RefTversky>
0.238 

> <ROCS_RefColorTversky>
0.175 

> <ROCS_RefTverskyCombo>
0.413 

> <ROCS_FitTversky>
1.850 

> <ROCS_FitColorTversky>
0.841 

> <ROCS_FitTverskyCombo>
2.690 

> <ROCS_ColorScore>
-5.325

> <ROCS_Overlap>
1645.871

> <ROCS_Rank>
229                 

$$$$
untitled-dbase-586_6
  -OEChem-11112315393D

 33 33  0     1  0  0  0  0  0999 V2000
   11.3407   15.5417   21.7795 C   0  0  0  0  0  0  0  0  0  0  0  0
   11.3808   14.2140   21.9277 C   0  0  0  0  0  0  0  0  0  0  0  0
   10.7420   13.5684   23.1055 C   0  0  0  0  0  0  0  0  0  0  0  0
    8.3624   12.0827   24.3468 C   0  0  0  0  0  0  0  0  0  0  0  0
    9.6292   11.4628   23.7926 C   0  0  1  0  0  0  0  0  0  0  0  0
    7.6350   10.8705   24.9301 C   0  0  0  0  0  0  0  0  0  0  0  0
    9.1350   10.1068   23.2730 C   0  0  0  0  0  0  0  0  0  0  0  0
    8.0382   10.6042   26.3829 C   0  0  0  0  0  0  0  0  0  0  0  0
    6.1191   11.0100   24.8235 C   0  0  0  0  0  0  0  0  0  0  0  0
    8.5651   10.1478   21.8494 C   0  0  0  0  0  0  0  0  0  0  0  0
   10.2164    9.0322   23.3679 C   0  0  0  0  0  0  0  0  0  0  0  0
   10.2849   12.2874   22.8193 N   0  0  0  0  0  0  0  0  0  0  0  0
   10.6418   14.1291   24.1921 O   0  0  0  0  0  0  0  0  0  0  0  0
    8.0471    9.7310   24.1477 O   0  0  0  0  0  0  0  0  0  0  0  0
   11.8100   16.0055   20.9181 H   0  0  0  0  0  0  0  0  0  0  0  0
   10.8506   16.1948   22.4930 H   0  0  0  0  0  0  0  0  0  0  0  0
   11.8814   13.5963   21.1899 H   0  0  0  0  0  0  0  0  0  0  0  0
    8.5565   12.8662   25.0868 H   0  0  0  0  0  0  0  0  0  0  0  0
    7.7751   12.5332   23.5366 H   0  0  0  0  0  0  0  0  0  0  0  0
   10.3447   11.3231   24.6128 H   0  0  0  0  0  0  0  0  0  0  0  0
    7.5000    9.7370   26.7581 H   0  0  0  0  0  0  0  0  0  0  0  0
    7.7952   11.4703   26.9939 H   0  0  0  0  0  0  0  0  0  0  0  0
    9.1077   10.4147   26.4362 H   0  0  0  0  0  0  0  0  0  0  0  0
    5.6355   10.1309   25.2476 H   0  0  0  0  0  0  0  0  0  0  0  0
    5.8286   11.1061   23.7782 H   0  0  0  0  0  0  0  0  0  0  0  0
    5.7894   11.8944   25.3672 H   0  0  0  0  0  0  0  0  0  0  0  0
    8.2399    9.1523   21.5605 H   0  0  0  0  0  0  0  0  0  0  0  0
    9.3328   10.4916   21.1618 H   0  0  0  0  0  0  0  0  0  0  0  0
    7.7190   10.8287   21.8174 H   0  0  0  0  0  0  0  0  0  0  0  0
    9.8306    8.0863   22.9914 H   0  0  0  0  0  0  0  0  0  0  0  0
   10.5206    8.9056   24.4055 H   0  0  0  0  0  0  0  0  0  0  0  0
   11.0814    9.3259   22.7756 H   0  0  0  0  0  0  0  0  0  0  0  0
   10.3885   11.9214   21.8721 H   0  0  0  0  0  0  0  0  0  0  0  0
  1  2  2  0  0  0  0
  2  3  1  0  0  0  0
  3 12  1  0  0  0  0
  3 13  2  0  0  0  0
  4  5  1  0  0  0  0
  4  6  1  0  0  0  0
  5  7  1  0  0  0  0
  5 12  1  0  0  0  0
  6  8  1  0  0  0  0
  6  9  1  0  0  0  0
  6 14  1  0  0  0  0
  7 10  1  0  0  0  0
  7 11  1  0  0  0  0
  7 14  1  0  0  0  0
  1 15  1  0  0  0  0
  1 16  1  0  0  0  0
  2 17  1  0  0  0  0
  4 18  1  0  0  0  0
  4 19  1  0  0  0  0
  5 20  1  0  0  0  0
  8 21  1  0  0  0  0
  8 22  1  0  0  0  0
  8 23  1  0  0  0  0
  9 24  1  0  0  0  0
  9 25  1  0  0  0  0
  9 26  1  0  0  0  0
 10 27  1  0  0  0  0
 10 28  1  0  0  0  0
 10 29  1  0  0  0  0
 11 30  1  0  0  0  0
 11 31  1  0  0  0  0
 11 32  1  0  0  0  0
 12 33  1  0  0  0  0
M  END
> <Catalog ID>
Z1938429674

> <MW>
197.274

> <MW (desalted)>
197.274

> <ClogP>
1.618

> <logS>
-2.143

> <HBD>
1

> <HBA>
2

> <TPSA>
38.33

> <RotBonds>
2

> <ROCS_ShapeQuery>
A71EV2A-x0451_0A_A71EV2A-x0310_0A_A71EV2A-x0416_0A_peptide

> <ROCS_TanimotoCombo>
0.437 

> <ROCS_ShapeTanimoto>
0.278 

> <ROCS_ColorTanimoto>
0.159 

> <ROCS_RefTversky>
0.246 

> <ROCS_RefColorTversky>
0.174 

> <ROCS_RefTverskyCombo>
0.421 

> <ROCS_FitTversky>
1.840 

> <ROCS_FitColorTversky>
0.644 

> <ROCS_FitTverskyCombo>
2.484 

> <ROCS_ColorScore>
-5.304

> <ROCS_Overlap>
1707.063

> <ROCS_Rank>
230                 

$$$$
untitled-dbase-255_0
  -OEChem-11112315393D

 34 36  0     0  0  0  0  0  0999 V2000
    5.8960   10.6606   25.8368 C   0  0  0  0  0  0  0  0  0  0  0  0
    6.1693   12.0158   25.9703 C   0  0  0  0  0  0  0  0  0  0  0  0
    6.7853    9.8487   25.1418 C   0  0  0  0  0  0  0  0  0  0  0  0
    7.3169   12.5616   25.3862 C   0  0  0  0  0  0  0  0  0  0  0  0
    7.9422   10.3987   24.5726 C   0  0  0  0  0  0  0  0  0  0  0  0
    8.2073   11.7675   24.6442 C   0  0  0  0  0  0  0  0  0  0  0  0
   10.0464    9.9216   23.4399 C   0  0  0  0  0  0  0  0  0  0  0  0
    9.5891   13.6850   23.8742 C   0  0  0  0  0  0  0  0  0  0  0  0
   12.8577   11.9720   23.2699 C   0  0  0  0  0  0  0  0  0  0  0  0
   12.8249   11.0850   24.5002 C   0  0  0  0  0  0  0  0  0  0  0  0
   11.4792   11.8096   22.6320 C   0  0  0  0  0  0  0  0  0  0  0  0
   11.4129   11.2767   25.0369 C   0  0  0  0  0  0  0  0  0  0  0  0
   10.5149   11.3576   23.7766 C   0  0  0  0  0  0  0  0  0  0  0  0
    8.4429   14.4822   23.2869 C   0  0  0  0  0  0  0  0  0  0  0  0
    8.8231    9.5375   23.9214 N   0  0  0  0  0  0  0  0  0  0  0  0
    9.3818   12.3000   24.0065 N   0  0  0  0  0  0  0  0  0  0  0  0
   10.7904    9.0972   22.9009 O   0  0  0  0  0  0  0  0  0  0  0  0
   10.6587   14.2579   24.0967 O   0  0  0  0  0  0  0  0  0  0  0  0
    9.0723   15.2704   21.8469 Cl  0  0  0  0  0  0  0  0  0  0  0  0
    5.0046   10.2352   26.2873 H   0  0  0  0  0  0  0  0  0  0  0  0
    5.4949   12.6530   26.5353 H   0  0  0  0  0  0  0  0  0  0  0  0
    6.5786    8.7842   25.0612 H   0  0  0  0  0  0  0  0  0  0  0  0
    7.5020   13.6163   25.5611 H   0  0  0  0  0  0  0  0  0  0  0  0
   13.0144   13.0158   23.5650 H   0  0  0  0  0  0  0  0  0  0  0  0
   13.6636   11.6962   22.5832 H   0  0  0  0  0  0  0  0  0  0  0  0
   12.9934   10.0385   24.2225 H   0  0  0  0  0  0  0  0  0  0  0  0
   13.5862   11.3669   25.2335 H   0  0  0  0  0  0  0  0  0  0  0  0
   11.1773   12.7350   22.1319 H   0  0  0  0  0  0  0  0  0  0  0  0
   11.5387   11.0714   21.8235 H   0  0  0  0  0  0  0  0  0  0  0  0
   11.1335   10.4631   25.7151 H   0  0  0  0  0  0  0  0  0  0  0  0
   11.3786   12.2096   25.6126 H   0  0  0  0  0  0  0  0  0  0  0  0
    8.1289   15.2205   24.0127 H   0  0  0  0  0  0  0  0  0  0  0  0
    7.6469   13.7985   23.0239 H   0  0  0  0  0  0  0  0  0  0  0  0
    8.5487    8.5653   23.8112 H   0  0  0  0  0  0  0  0  0  0  0  0
  1  2  1  0  0  0  0
  1  3  2  0  0  0  0
  2  4  2  0  0  0  0
  3  5  1  0  0  0  0
  4  6  1  0  0  0  0
  5  6  2  0  0  0  0
  5 15  1  0  0  0  0
  6 16  1  0  0  0  0
  7 13  1  0  0  0  0
  7 15  1  0  0  0  0
  7 17  2  0  0  0  0
  8 14  1  0  0  0  0
  8 16  1  0  0  0  0
  8 18  2  0  0  0  0
  9 10  1  0  0  0  0
  9 11  1  0  0  0  0
 10 12  1  0  0  0  0
 11 13  1  0  0  0  0
 12 13  1  0  0  0  0
 13 16  1  0  0  0  0
 14 19  1  0  0  0  0
  1 20  1  0  0  0  0
  2 21  1  0  0  0  0
  3 22  1  0  0  0  0
  4 23  1  0  0  0  0
  9 24  1  0  0  0  0
  9 25  1  0  0  0  0
 10 26  1  0  0  0  0
 10 27  1  0  0  0  0
 11 28  1  0  0  0  0
 11 29  1  0  0  0  0
 12 30  1  0  0  0  0
 12 31  1  0  0  0  0
 14 32  1  0  0  0  0
 14 33  1  0  0  0  0
 15 34  1  0  0  0  0
M  END
> <Catalog ID>
Z169854330

> <MW>
278.082

> <MW (desalted)>
278.734

> <ClogP>
2.474

> <logS>
-3.82

> <HBD>
1

> <HBA>
2

> <TPSA>
49.41

> <RotBonds>
1

> <ROCS_ShapeQuery>
A71EV2A-x0451_0A_A71EV2A-x0310_0A_A71EV2A-x0416_0A_peptide

> <ROCS_TanimotoCombo>
0.436 

> <ROCS_ShapeTanimoto>
0.300 

> <ROCS_ColorTanimoto>
0.137 

> <ROCS_RefTversky>
0.270 

> <ROCS_RefColorTversky>
0.149 

> <ROCS_RefTverskyCombo>
0.419 

> <ROCS_FitTversky>
1.585 

> <ROCS_FitColorTversky>
0.622 

> <ROCS_FitTverskyCombo>
2.207 

> <ROCS_ColorScore>
-4.533

> <ROCS_Overlap>
1872.046

> <ROCS_Rank>
231                 

$$$$
untitled-dbase-657_3
  -OEChem-11112315393D

 24 24  0     0  0  0  0  0  0999 V2000
    8.4723   12.2966   24.2425 C   0  0  0  0  0  0  0  0  0  0  0  0
    7.4876   11.5873   24.9301 C   0  0  0  0  0  0  0  0  0  0  0  0
    8.3344    9.5199   24.0104 C   0  0  0  0  0  0  0  0  0  0  0  0
    9.3191   10.2292   23.3226 C   0  0  0  0  0  0  0  0  0  0  0  0
    9.3880   11.6175   23.4386 C   0  0  0  0  0  0  0  0  0  0  0  0
    7.4187   10.1990   24.8141 C   0  0  0  0  0  0  0  0  0  0  0  0
   10.9335   13.5426   23.1773 C   0  0  0  0  0  0  0  0  0  0  0  0
   11.9614   14.0502   22.1928 C   0  0  0  0  0  0  0  0  0  0  0  0
   10.2867    9.4762   22.4683 C   0  0  0  0  0  0  0  0  0  0  0  0
   10.3669   12.3457   22.7578 N   0  0  0  0  0  0  0  0  0  0  0  0
    6.4159    9.4774   25.5142 N   0  3  0  0  0  0  0  0  0  0  0  0
    5.6020   10.1078   26.2316 O   0  5  0  0  0  0  0  0  0  0  0  0
   10.6783   14.1873   24.1909 O   0  0  0  0  0  0  0  0  0  0  0  0
    6.3713    8.2289   25.3967 O   0  0  0  0  0  0  0  0  0  0  0  0
   10.0772    8.1276   22.4671 F   0  0  0  0  0  0  0  0  0  0  0  0
   10.2540    9.8453   21.1548 F   0  0  0  0  0  0  0  0  0  0  0  0
   11.5793    9.6481   22.8675 F   0  0  0  0  0  0  0  0  0  0  0  0
   11.4307   15.6434   21.6312 Cl  0  0  0  0  0  0  0  0  0  0  0  0
    8.5160   13.3784   24.3407 H   0  0  0  0  0  0  0  0  0  0  0  0
    6.7804   12.1288   25.5536 H   0  0  0  0  0  0  0  0  0  0  0  0
    8.2828    8.4370   23.9177 H   0  0  0  0  0  0  0  0  0  0  0  0
   12.0801   13.3927   21.3279 H   0  0  0  0  0  0  0  0  0  0  0  0
   12.9277   14.1517   22.6950 H   0  0  0  0  0  0  0  0  0  0  0  0
   10.6950   11.9642   21.8735 H   0  0  0  0  0  0  0  0  0  0  0  0
  1  2  2  0  0  0  0
  1  5  1  0  0  0  0
  2  6  1  0  0  0  0
  3  4  1  0  0  0  0
  3  6  2  0  0  0  0
  4  5  2  0  0  0  0
  4  9  1  0  0  0  0
  5 10  1  0  0  0  0
  6 11  1  0  0  0  0
  7  8  1  0  0  0  0
  7 10  1  0  0  0  0
  7 13  2  0  0  0  0
  8 18  1  0  0  0  0
  9 15  1  0  0  0  0
  9 16  1  0  0  0  0
  9 17  1  0  0  0  0
 11 12  1  0  0  0  0
 11 14  2  0  0  0  0
  1 19  1  0  0  0  0
  2 20  1  0  0  0  0
  3 21  1  0  0  0  0
  8 22  1  0  0  0  0
  8 23  1  0  0  0  0
 10 24  1  0  0  0  0
M  CHG  2  11   1  12  -1
M  END
> <Catalog ID>
Z56891401

> <MW>
282.002

> <MW (desalted)>
282.604

> <ClogP>
1.66

> <logS>
-3.95

> <HBD>
1

> <HBA>
3

> <TPSA>
72.24

> <RotBonds>
4

> <ROCS_ShapeQuery>
A71EV2A-x0451_0A_A71EV2A-x0310_0A_A71EV2A-x0416_0A_peptide

> <ROCS_TanimotoCombo>
0.436 

> <ROCS_ShapeTanimoto>
0.305 

> <ROCS_ColorTanimoto>
0.132 

> <ROCS_RefTversky>
0.271 

> <ROCS_RefColorTversky>
0.141 

> <ROCS_RefTverskyCombo>
0.412 

> <ROCS_FitTversky>
1.672 

> <ROCS_FitColorTversky>
0.673 

> <ROCS_FitTverskyCombo>
2.345 

> <ROCS_ColorScore>
-4.274

> <ROCS_Overlap>
1881.841

> <ROCS_Rank>
232                 

$$$$
untitled-dbase-470_85
  -OEChem-11112315393D

 29 30  0     0  0  0  0  0  0999 V2000
    8.3052   12.0078   24.3657 C   0  0  0  0  0  0  0  0  0  0  0  0
    7.6214   10.8416   24.7584 C   0  0  0  0  0  0  0  0  0  0  0  0
    9.2849   11.5607   23.5133 C   0  0  0  0  0  0  0  0  0  0  0  0
   10.8784   13.4407   23.2142 C   0  0  0  0  0  0  0  0  0  0  0  0
   10.7129    7.0334   22.2444 C   0  0  0  0  0  0  0  0  0  0  0  0
   11.9274    7.9534   22.3868 C   0  0  0  0  0  0  0  0  0  0  0  0
    9.5200    7.8039   22.8032 C   0  0  0  0  0  0  0  0  0  0  0  0
   11.4210    9.2368   23.0382 C   0  0  0  0  0  0  0  0  0  0  0  0
    9.9354    9.2704   22.6764 C   0  0  0  0  0  0  0  0  0  0  0  0
   11.9049   13.9126   22.2107 C   0  0  0  0  0  0  0  0  0  0  0  0
    8.1240    9.7368   24.2011 N   0  0  0  0  0  0  0  0  0  0  0  0
    9.1341   10.2067   23.4494 N   0  0  0  0  0  0  0  0  0  0  0  0
   10.2530   12.2426   22.8267 N   0  0  0  0  0  0  0  0  0  0  0  0
   10.6561   14.0996   24.2264 O   0  0  0  0  0  0  0  0  0  0  0  0
   11.0812   14.9668   21.0506 Cl  0  0  0  0  0  0  0  0  0  0  0  0
    8.1116   13.0285   24.6622 H   0  0  0  0  0  0  0  0  0  0  0  0
    6.7778   10.7510   25.4276 H   0  0  0  0  0  0  0  0  0  0  0  0
   10.5533    6.7222   21.1977 H   0  0  0  0  0  0  0  0  0  0  0  0
   10.8737    6.1110   22.8322 H   0  0  0  0  0  0  0  0  0  0  0  0
   12.7353    7.4817   22.9753 H   0  0  0  0  0  0  0  0  0  0  0  0
   12.3507    8.1752   21.3881 H   0  0  0  0  0  0  0  0  0  0  0  0
    8.6483    7.6177   22.1717 H   0  0  0  0  0  0  0  0  0  0  0  0
    9.2797    7.4903   23.8186 H   0  0  0  0  0  0  0  0  0  0  0  0
   11.5729    9.1848   24.1215 H   0  0  0  0  0  0  0  0  0  0  0  0
   11.9553   10.1138   22.6660 H   0  0  0  0  0  0  0  0  0  0  0  0
    9.8136    9.5897   21.6121 H   0  0  0  0  0  0  0  0  0  0  0  0
   12.3753   13.0893   21.6671 H   0  0  0  0  0  0  0  0  0  0  0  0
   12.6812   14.4854   22.7258 H   0  0  0  0  0  0  0  0  0  0  0  0
   10.5555   11.8345   21.9306 H   0  0  0  0  0  0  0  0  0  0  0  0
  1  2  1  0  0  0  0
  1  3  2  0  0  0  0
  2 11  2  0  0  0  0
  3 12  1  0  0  0  0
  3 13  1  0  0  0  0
  4 10  1  0  0  0  0
  4 13  1  0  0  0  0
  4 14  2  0  0  0  0
  5  6  1  0  0  0  0
  5  7  1  0  0  0  0
  6  8  1  0  0  0  0
  7  9  1  0  0  0  0
  8  9  1  0  0  0  0
  9 12  1  0  0  0  0
 10 15  1  0  0  0  0
 11 12  1  0  0  0  0
  1 16  1  0  0  0  0
  2 17  1  0  0  0  0
  5 18  1  0  0  0  0
  5 19  1  0  0  0  0
  6 20  1  0  0  0  0
  6 21  1  0  0  0  0
  7 22  1  0  0  0  0
  7 23  1  0  0  0  0
  8 24  1  0  0  0  0
  8 25  1  0  0  0  0
  9 26  1  0  0  0  0
 10 27  1  0  0  0  0
 10 28  1  0  0  0  0
 13 29  1  0  0  0  0
M  END
> <Catalog ID>
Z56347290

> <MW>
227.083

> <MW (desalted)>
227.691

> <ClogP>
1.768

> <logS>
-2.05

> <HBD>
1

> <HBA>
2

> <TPSA>
46.92

> <RotBonds>
3

> <ROCS_ShapeQuery>
A71EV2A-x0451_0A_A71EV2A-x0310_0A_A71EV2A-x0416_0A_peptide

> <ROCS_TanimotoCombo>
0.436 

> <ROCS_ShapeTanimoto>
0.267 

> <ROCS_ColorTanimoto>
0.170 

> <ROCS_RefTversky>
0.240 

> <ROCS_RefColorTversky>
0.175 

> <ROCS_RefTverskyCombo>
0.416 

> <ROCS_FitTversky>
1.690 

> <ROCS_FitColorTversky>
0.841 

> <ROCS_FitTverskyCombo>
2.531 

> <ROCS_ColorScore>
-5.325

> <ROCS_Overlap>
1665.573

> <ROCS_Rank>
233                 

$$$$
untitled-dbase-424_236
  -OEChem-11112315393D

 38 40  0     0  0  0  0  0  0999 V2000
    7.5523    7.9426   23.1419 C   0  0  0  0  0  0  0  0  0  0  0  0
    8.7613    8.0027   22.4649 C   0  0  0  0  0  0  0  0  0  0  0  0
    7.1528    9.0186   23.9326 C   0  0  0  0  0  0  0  0  0  0  0  0
    9.5606    9.1382   22.5847 C   0  0  0  0  0  0  0  0  0  0  0  0
    8.3400   12.2589   24.9140 C   0  0  0  0  0  0  0  0  0  0  0  0
    7.9441   10.1580   24.0589 C   0  0  0  0  0  0  0  0  0  0  0  0
    9.1706   10.2189   23.3722 C   0  0  0  0  0  0  0  0  0  0  0  0
    9.5340   12.3182   24.2457 C   0  0  0  0  0  0  0  0  0  0  0  0
   14.0548   17.5663   19.0262 C   0  0  0  0  0  0  0  0  0  0  0  0
   13.7027   16.5602   19.8293 C   0  0  0  0  0  0  0  0  0  0  0  0
   12.2703   16.2199   19.9617 C   0  0  0  0  0  0  0  0  0  0  0  0
   10.2779   13.9430   21.9805 C   0  0  0  0  0  0  0  0  0  0  0  0
   12.0008   14.9525   23.5646 C   0  0  0  0  0  0  0  0  0  0  0  0
   10.4421   15.3268   21.3564 C   0  0  0  0  0  0  0  0  0  0  0  0
   12.7325   15.4806   22.3374 C   0  0  0  0  0  0  0  0  0  0  0  0
   11.1522   13.7320   23.2224 C   0  0  0  0  0  0  0  0  0  0  0  0
    7.5369   11.1832   24.8276 N   0  0  0  0  0  0  0  0  0  0  0  0
    9.9591   11.3035   23.4718 N   0  0  0  0  0  0  0  0  0  0  0  0
   11.8518   15.6808   21.1785 N   0  0  0  0  0  0  0  0  0  0  0  0
   11.5368   16.4307   18.9950 O   0  0  0  0  0  0  0  0  0  0  0  0
   10.3355   13.4245   24.3486 O   0  0  0  0  0  0  0  0  0  0  0  0
    6.9209    7.0634   23.0588 H   0  0  0  0  0  0  0  0  0  0  0  0
    9.0841    7.1711   21.8458 H   0  0  0  0  0  0  0  0  0  0  0  0
    6.2021    8.9584   24.4582 H   0  0  0  0  0  0  0  0  0  0  0  0
   10.5069    9.1724   22.0487 H   0  0  0  0  0  0  0  0  0  0  0  0
    7.9839   13.0675   25.5403 H   0  0  0  0  0  0  0  0  0  0  0  0
   15.0891   17.8628   18.8881 H   0  0  0  0  0  0  0  0  0  0  0  0
   13.2962   18.1200   18.4830 H   0  0  0  0  0  0  0  0  0  0  0  0
   14.4299   15.9845   20.3870 H   0  0  0  0  0  0  0  0  0  0  0  0
    9.2196   13.7781   22.2449 H   0  0  0  0  0  0  0  0  0  0  0  0
   10.5091   13.1649   21.2358 H   0  0  0  0  0  0  0  0  0  0  0  0
   12.7227   14.6933   24.3490 H   0  0  0  0  0  0  0  0  0  0  0  0
   11.3676   15.7409   23.9932 H   0  0  0  0  0  0  0  0  0  0  0  0
    9.9736   15.3540   20.3636 H   0  0  0  0  0  0  0  0  0  0  0  0
    9.9141   16.0466   21.9872 H   0  0  0  0  0  0  0  0  0  0  0  0
   13.2562   16.4143   22.5946 H   0  0  0  0  0  0  0  0  0  0  0  0
   13.5114   14.7661   22.0234 H   0  0  0  0  0  0  0  0  0  0  0  0
   11.8153   12.8585   23.0598 H   0  0  0  0  0  0  0  0  0  0  0  0
  1  2  1  0  0  0  0
  1  3  2  0  0  0  0
  2  4  2  0  0  0  0
  3  6  1  0  0  0  0
  4  7  1  0  0  0  0
  5  8  1  0  0  0  0
  5 17  2  0  0  0  0
  6  7  2  0  0  0  0
  6 17  1  0  0  0  0
  7 18  1  0  0  0  0
  8 18  2  0  0  0  0
  8 21  1  0  0  0  0
  9 10  2  0  0  0  0
 10 11  1  0  0  0  0
 11 19  1  0  0  0  0
 11 20  2  0  0  0  0
 12 14  1  0  0  0  0
 12 16  1  0  0  0  0
 13 15  1  0  0  0  0
 13 16  1  0  0  0  0
 14 19  1  0  0  0  0
 15 19  1  0  0  0  0
 16 21  1  0  0  0  0
  1 22  1  0  0  0  0
  2 23  1  0  0  0  0
  3 24  1  0  0  0  0
  4 25  1  0  0  0  0
  5 26  1  0  0  0  0
  9 27  1  0  0  0  0
  9 28  1  0  0  0  0
 10 29  1  0  0  0  0
 12 30  1  0  0  0  0
 12 31  1  0  0  0  0
 13 32  1  0  0  0  0
 13 33  1  0  0  0  0
 14 34  1  0  0  0  0
 14 35  1  0  0  0  0
 15 36  1  0  0  0  0
 15 37  1  0  0  0  0
 16 38  1  0  0  0  0
M  END
> <Catalog ID>
Z2285378036

> <MW>
283.325

> <MW (desalted)>
283.325

> <ClogP>
1.935

> <logS>
-3.07

> <HBD>
0

> <HBA>
4

> <TPSA>
55.32

> <RotBonds>
3

> <ROCS_ShapeQuery>
A71EV2A-x0451_0A_A71EV2A-x0310_0A_A71EV2A-x0416_0A_peptide

> <ROCS_TanimotoCombo>
0.436 

> <ROCS_ShapeTanimoto>
0.332 

> <ROCS_ColorTanimoto>
0.104 

> <ROCS_RefTversky>
0.295 

> <ROCS_RefColorTversky>
0.123 

> <ROCS_RefTverskyCombo>
0.418 

> <ROCS_FitTversky>
1.607 

> <ROCS_FitColorTversky>
0.407 

> <ROCS_FitTverskyCombo>
2.014 

> <ROCS_ColorScore>
-3.748

> <ROCS_Overlap>
2048.227

> <ROCS_Rank>
234                 

$$$$
untitled-dbase-387_40
  -OEChem-11112315393D

 25 25  0     0  0  0  0  0  0999 V2000
    8.2574   12.3026   24.4017 C   0  0  0  0  0  0  0  0  0  0  0  0
    9.9367   10.9053   23.3701 C   0  0  0  0  0  0  0  0  0  0  0  0
    7.4606   11.1798   24.6256 C   0  0  0  0  0  0  0  0  0  0  0  0
    9.1400    9.7825   23.5940 C   0  0  0  0  0  0  0  0  0  0  0  0
    9.4954   12.1654   23.7739 C   0  0  0  0  0  0  0  0  0  0  0  0
    7.9020    9.9197   24.2218 C   0  0  0  0  0  0  0  0  0  0  0  0
   10.3443   13.3616   23.5357 C   0  0  0  0  0  0  0  0  0  0  0  0
   13.2601   14.4345   22.7629 C   0  0  0  0  0  0  0  0  0  0  0  0
   14.0104   15.6800   22.3683 C   0  0  0  0  0  0  0  0  0  0  0  0
   11.2111   13.2767   22.4630 N   0  0  0  0  0  0  0  0  0  0  0  0
   12.0132   14.3543   22.1752 N   0  0  0  0  0  0  0  0  0  0  0  0
    7.0907    8.7770   24.4493 N   0  3  0  0  0  0  0  0  0  0  0  0
    5.9802    8.9222   25.0152 O   0  5  0  0  0  0  0  0  0  0  0  0
   10.2268   14.3393   24.2702 O   0  0  0  0  0  0  0  0  0  0  0  0
   13.7344   13.6094   23.5417 O   0  0  0  0  0  0  0  0  0  0  0  0
    7.5065    7.6524   24.0787 O   0  0  0  0  0  0  0  0  0  0  0  0
   13.4652   16.1554   20.7524 Cl  0  0  0  0  0  0  0  0  0  0  0  0
    7.9038   13.2798   24.7207 H   0  0  0  0  0  0  0  0  0  0  0  0
   10.9000   10.7870   22.8804 H   0  0  0  0  0  0  0  0  0  0  0  0
    6.4976   11.3008   25.1156 H   0  0  0  0  0  0  0  0  0  0  0  0
    9.4962    8.8061   23.2746 H   0  0  0  0  0  0  0  0  0  0  0  0
   13.7815   16.4823   23.0751 H   0  0  0  0  0  0  0  0  0  0  0  0
   15.0921   15.5251   22.3411 H   0  0  0  0  0  0  0  0  0  0  0  0
   11.2543   12.4351   21.8989 H   0  0  0  0  0  0  0  0  0  0  0  0
   11.6945   15.0794   21.5411 H   0  0  0  0  0  0  0  0  0  0  0  0
  1  3  2  0  0  0  0
  1  5  1  0  0  0  0
  2  4  1  0  0  0  0
  2  5  2  0  0  0  0
  3  6  1  0  0  0  0
  4  6  2  0  0  0  0
  5  7  1  0  0  0  0
  6 12  1  0  0  0  0
  7 10  1  0  0  0  0
  7 14  2  0  0  0  0
  8  9  1  0  0  0  0
  8 11  1  0  0  0  0
  8 15  2  0  0  0  0
  9 17  1  0  0  0  0
 10 11  1  0  0  0  0
 12 13  1  0  0  0  0
 12 16  2  0  0  0  0
  1 18  1  0  0  0  0
  2 19  1  0  0  0  0
  3 20  1  0  0  0  0
  4 21  1  0  0  0  0
  9 22  1  0  0  0  0
  9 23  1  0  0  0  0
 10 24  1  0  0  0  0
 11 25  1  0  0  0  0
M  CHG  2  12   1  13  -1
M  END
> <Catalog ID>
Z56771056

> <MW>
257.02

> <MW (desalted)>
257.631

> <ClogP>
1.099

> <logS>
-3.35

> <HBD>
2

> <HBA>
4

> <TPSA>
101.34

> <RotBonds>
4

> <ROCS_ShapeQuery>
A71EV2A-x0451_0A_A71EV2A-x0310_0A_A71EV2A-x0416_0A_peptide

> <ROCS_TanimotoCombo>
0.436 

> <ROCS_ShapeTanimoto>
0.286 

> <ROCS_ColorTanimoto>
0.150 

> <ROCS_RefTversky>
0.257 

> <ROCS_RefColorTversky>
0.167 

> <ROCS_RefTverskyCombo>
0.424 

> <ROCS_FitTversky>
1.667 

> <ROCS_FitColorTversky>
0.595 

> <ROCS_FitTverskyCombo>
2.262 

> <ROCS_ColorScore>
-5.081

> <ROCS_Overlap>
1781.185

> <ROCS_Rank>
235                 

$$$$
untitled-dbase-872_14
  -OEChem-11112315393D

 26 27  0     0  0  0  0  0  0999 V2000
    9.1243    9.8687   23.8197 C   0  0  0  0  0  0  0  0  0  0  0  0
    9.9966   10.6989   23.1124 C   0  0  0  0  0  0  0  0  0  0  0  0
    8.7925   12.6774   23.8590 C   0  0  0  0  0  0  0  0  0  0  0  0
    8.1044   10.4575   24.5481 C   0  0  0  0  0  0  0  0  0  0  0  0
    7.9400   11.8476   24.5672 C   0  0  0  0  0  0  0  0  0  0  0  0
    9.8320   12.0931   23.1321 C   0  0  0  0  0  0  0  0  0  0  0  0
   11.0838   14.2004   22.7388 C   0  0  0  0  0  0  0  0  0  0  0  0
    7.0339    9.7833   25.3465 C   0  0  0  0  0  0  0  0  0  0  0  0
    6.7435   12.2315   25.3791 C   0  0  0  0  0  0  0  0  0  0  0  0
    6.5181   10.9524   26.1993 C   0  0  0  0  0  0  0  0  0  0  0  0
   12.0544   14.7759   21.7337 C   0  0  0  0  0  0  0  0  0  0  0  0
   10.7117   12.9020   22.4111 N   0  0  0  0  0  0  0  0  0  0  0  0
   10.7064   14.8783   23.6907 O   0  0  0  0  0  0  0  0  0  0  0  0
   11.7064   14.0370   20.1626 Cl  0  0  0  0  0  0  0  0  0  0  0  0
    9.2463    8.7911   23.7937 H   0  0  0  0  0  0  0  0  0  0  0  0
   10.8040   10.2509   22.5376 H   0  0  0  0  0  0  0  0  0  0  0  0
    8.6498   13.7535   23.8701 H   0  0  0  0  0  0  0  0  0  0  0  0
    6.2513    9.4025   24.6825 H   0  0  0  0  0  0  0  0  0  0  0  0
    7.4232    8.9751   25.9718 H   0  0  0  0  0  0  0  0  0  0  0  0
    6.9350   13.0922   26.0260 H   0  0  0  0  0  0  0  0  0  0  0  0
    5.8917   12.4361   24.7227 H   0  0  0  0  0  0  0  0  0  0  0  0
    5.4722   10.8242   26.4952 H   0  0  0  0  0  0  0  0  0  0  0  0
    7.1101   11.0099   27.1235 H   0  0  0  0  0  0  0  0  0  0  0  0
   13.0979   14.5796   21.9925 H   0  0  0  0  0  0  0  0  0  0  0  0
   11.9054   15.8570   21.6614 H   0  0  0  0  0  0  0  0  0  0  0  0
   11.1185   12.5041   21.5670 H   0  0  0  0  0  0  0  0  0  0  0  0
  1  2  2  0  0  0  0
  1  4  1  0  0  0  0
  2  6  1  0  0  0  0
  3  5  1  0  0  0  0
  3  6  2  0  0  0  0
  4  5  2  0  0  0  0
  4  8  1  0  0  0  0
  5  9  1  0  0  0  0
  6 12  1  0  0  0  0
  7 11  1  0  0  0  0
  7 12  1  0  0  0  0
  7 13  2  0  0  0  0
  8 10  1  0  0  0  0
  9 10  1  0  0  0  0
 11 14  1  0  0  0  0
  1 15  1  0  0  0  0
  2 16  1  0  0  0  0
  3 17  1  0  0  0  0
  8 18  1  0  0  0  0
  8 19  1  0  0  0  0
  9 20  1  0  0  0  0
  9 21  1  0  0  0  0
 10 22  1  0  0  0  0
 10 23  1  0  0  0  0
 11 24  1  0  0  0  0
 11 25  1  0  0  0  0
 12 26  1  0  0  0  0
M  END
> <Catalog ID>
Z56928932

> <MW>
209.061

> <MW (desalted)>
209.672

> <ClogP>
2.787

> <logS>
-3.6

> <HBD>
1

> <HBA>
1

> <TPSA>
29.1

> <RotBonds>
2

> <ROCS_ShapeQuery>
A71EV2A-x0451_0A_A71EV2A-x0310_0A_A71EV2A-x0416_0A_peptide

> <ROCS_TanimotoCombo>
0.436 

> <ROCS_ShapeTanimoto>
0.285 

> <ROCS_ColorTanimoto>
0.151 

> <ROCS_RefTversky>
0.252 

> <ROCS_RefColorTversky>
0.155 

> <ROCS_RefTverskyCombo>
0.407 

> <ROCS_FitTversky>
1.850 

> <ROCS_FitColorTversky>
0.868 

> <ROCS_FitTverskyCombo>
2.718 

> <ROCS_ColorScore>
-4.687

> <ROCS_Overlap>
1745.125

> <ROCS_Rank>
236                 

$$$$
untitled-dbase-458_1192
  -OEChem-11112315393D

 29 29  0     0  0  0  0  0  0999 V2000
    6.2173   11.5722   25.9621 C   0  0  0  0  0  0  0  0  0  0  0  0
    7.0862   12.5299   25.4392 C   0  0  0  0  0  0  0  0  0  0  0  0
    6.4633   10.2161   25.7475 C   0  0  0  0  0  0  0  0  0  0  0  0
    8.2010   12.1316   24.7016 C   0  0  0  0  0  0  0  0  0  0  0  0
    7.5781    9.8177   25.0098 C   0  0  0  0  0  0  0  0  0  0  0  0
    8.4470   10.7754   24.4869 C   0  0  0  0  0  0  0  0  0  0  0  0
   10.6328   11.5173   23.5362 C   0  0  0  0  0  0  0  0  0  0  0  0
   11.2390   14.3933   23.1376 C   0  0  0  0  0  0  0  0  0  0  0  0
    7.8222    8.3601   24.7937 C   0  0  0  0  0  0  0  0  0  0  0  0
    9.6563   10.3697   23.6869 C   0  0  0  0  0  0  0  0  0  0  0  0
   12.1682   15.5092   22.7360 C   0  0  0  0  0  0  0  0  0  0  0  0
   10.3670   12.3039   22.4327 N   0  0  0  0  0  0  0  0  0  0  0  0
   11.1627   13.3945   22.1869 N   0  0  0  0  0  0  0  0  0  0  0  0
   11.5413   11.7067   24.3432 O   0  0  0  0  0  0  0  0  0  0  0  0
   10.6448   14.3985   24.2144 O   0  0  0  0  0  0  0  0  0  0  0  0
   12.1478   15.6247   20.9693 Cl  0  0  0  0  0  0  0  0  0  0  0  0
    5.3492   11.8828   26.5356 H   0  0  0  0  0  0  0  0  0  0  0  0
    6.8939   13.5858   25.6065 H   0  0  0  0  0  0  0  0  0  0  0  0
    5.7794    9.4778   26.1578 H   0  0  0  0  0  0  0  0  0  0  0  0
    8.8724   12.8853   24.2986 H   0  0  0  0  0  0  0  0  0  0  0  0
    7.3257    8.0239   23.8761 H   0  0  0  0  0  0  0  0  0  0  0  0
    8.8947    8.1461   24.7095 H   0  0  0  0  0  0  0  0  0  0  0  0
    7.4430    7.7659   25.6343 H   0  0  0  0  0  0  0  0  0  0  0  0
   10.1849    9.5421   24.1757 H   0  0  0  0  0  0  0  0  0  0  0  0
    9.3370    9.9875   22.7099 H   0  0  0  0  0  0  0  0  0  0  0  0
   11.8675   16.4736   23.1535 H   0  0  0  0  0  0  0  0  0  0  0  0
   13.1833   15.2760   23.0692 H   0  0  0  0  0  0  0  0  0  0  0  0
    9.5955   12.0790   21.8135 H   0  0  0  0  0  0  0  0  0  0  0  0
   11.6573   13.4093   21.3013 H   0  0  0  0  0  0  0  0  0  0  0  0
  1  2  1  0  0  0  0
  1  3  2  0  0  0  0
  2  4  2  0  0  0  0
  3  5  1  0  0  0  0
  4  6  1  0  0  0  0
  5  6  2  0  0  0  0
  5  9  1  0  0  0  0
  6 10  1  0  0  0  0
  7 10  1  0  0  0  0
  7 12  1  0  0  0  0
  7 14  2  0  0  0  0
  8 11  1  0  0  0  0
  8 13  1  0  0  0  0
  8 15  2  0  0  0  0
 11 16  1  0  0  0  0
 12 13  1  0  0  0  0
  1 17  1  0  0  0  0
  2 18  1  0  0  0  0
  3 19  1  0  0  0  0
  4 20  1  0  0  0  0
  9 21  1  0  0  0  0
  9 22  1  0  0  0  0
  9 23  1  0  0  0  0
 10 24  1  0  0  0  0
 10 25  1  0  0  0  0
 11 26  1  0  0  0  0
 11 27  1  0  0  0  0
 12 28  1  0  0  0  0
 13 29  1  0  0  0  0
M  END
> <Catalog ID>
Z1430706629

> <MW>
240.067

> <MW (desalted)>
240.686

> <ClogP>
1.232

> <logS>
-2.674

> <HBD>
2

> <HBA>
2

> <TPSA>
58.2

> <RotBonds>
4

> <ROCS_ShapeQuery>
A71EV2A-x0451_0A_A71EV2A-x0310_0A_A71EV2A-x0416_0A_peptide

> <ROCS_TanimotoCombo>
0.436 

> <ROCS_ShapeTanimoto>
0.294 

> <ROCS_ColorTanimoto>
0.142 

> <ROCS_RefTversky>
0.260 

> <ROCS_RefColorTversky>
0.151 

> <ROCS_RefTverskyCombo>
0.412 

> <ROCS_FitTversky>
1.787 

> <ROCS_FitColorTversky>
0.693 

> <ROCS_FitTverskyCombo>
2.480 

> <ROCS_ColorScore>
-4.593

> <ROCS_Overlap>
1804.352

> <ROCS_Rank>
237                 

$$$$
untitled-dbase-398_96
  -OEChem-11112315393D

 25 25  0     0  0  0  0  0  0999 V2000
    8.1891    9.5626   24.1067 C   0  0  0  0  0  0  0  0  0  0  0  0
    7.3008   10.2682   24.9183 C   0  0  0  0  0  0  0  0  0  0  0  0
    9.1812   10.2439   23.4016 C   0  0  0  0  0  0  0  0  0  0  0  0
    8.3965   12.3365   24.3194 C   0  0  0  0  0  0  0  0  0  0  0  0
    7.4045   11.6551   25.0246 C   0  0  0  0  0  0  0  0  0  0  0  0
    9.2849   11.6308   23.5079 C   0  0  0  0  0  0  0  0  0  0  0  0
    6.4777   12.3894   25.8710 C   0  0  0  0  0  0  0  0  0  0  0  0
   10.8938   13.4952   23.1942 C   0  0  0  0  0  0  0  0  0  0  0  0
    5.1333   12.2463   27.8370 C   0  0  0  0  0  0  0  0  0  0  0  0
   11.9244   13.9506   22.1872 C   0  0  0  0  0  0  0  0  0  0  0  0
   10.2776   12.3121   22.8028 N   0  0  0  0  0  0  0  0  0  0  0  0
    6.1134   13.5547   25.6646 O   0  0  0  0  0  0  0  0  0  0  0  0
   10.6767   14.1640   24.2009 O   0  0  0  0  0  0  0  0  0  0  0  0
    6.0535   11.6318   26.9286 O   0  0  0  0  0  0  0  0  0  0  0  0
   12.0029   15.7183   22.2565 Cl  0  0  0  0  0  0  0  0  0  0  0  0
    8.1087    8.4826   24.0241 H   0  0  0  0  0  0  0  0  0  0  0  0
    6.5312    9.7266   25.4620 H   0  0  0  0  0  0  0  0  0  0  0  0
    9.8680    9.6839   22.7716 H   0  0  0  0  0  0  0  0  0  0  0  0
    8.4768   13.4185   24.4016 H   0  0  0  0  0  0  0  0  0  0  0  0
    4.8762   11.5397   28.6299 H   0  0  0  0  0  0  0  0  0  0  0  0
    4.2324   12.5473   27.2964 H   0  0  0  0  0  0  0  0  0  0  0  0
    5.6038   13.1287   28.2770 H   0  0  0  0  0  0  0  0  0  0  0  0
   11.6807   13.6480   21.1657 H   0  0  0  0  0  0  0  0  0  0  0  0
   12.9016   13.5385   22.4545 H   0  0  0  0  0  0  0  0  0  0  0  0
   10.5786   11.9049   21.9193 H   0  0  0  0  0  0  0  0  0  0  0  0
  1  2  2  0  0  0  0
  1  3  1  0  0  0  0
  2  5  1  0  0  0  0
  3  6  2  0  0  0  0
  4  5  2  0  0  0  0
  4  6  1  0  0  0  0
  5  7  1  0  0  0  0
  6 11  1  0  0  0  0
  7 12  2  0  0  0  0
  7 14  1  0  0  0  0
  8 10  1  0  0  0  0
  8 11  1  0  0  0  0
  8 13  2  0  0  0  0
  9 14  1  0  0  0  0
 10 15  1  0  0  0  0
  1 16  1  0  0  0  0
  2 17  1  0  0  0  0
  3 18  1  0  0  0  0
  4 19  1  0  0  0  0
  9 20  1  0  0  0  0
  9 21  1  0  0  0  0
  9 22  1  0  0  0  0
 10 23  1  0  0  0  0
 10 24  1  0  0  0  0
 11 25  1  0  0  0  0
M  END
> <Catalog ID>
Z56895739

> <MW>
227.035

> <MW (desalted)>
227.644

> <ClogP>
2.212

> <logS>
-2.5

> <HBD>
1

> <HBA>
2

> <TPSA>
55.4

> <RotBonds>
4

> <ROCS_ShapeQuery>
A71EV2A-x0451_0A_A71EV2A-x0310_0A_A71EV2A-x0416_0A_peptide

> <ROCS_TanimotoCombo>
0.436 

> <ROCS_ShapeTanimoto>
0.297 

> <ROCS_ColorTanimoto>
0.138 

> <ROCS_RefTversky>
0.262 

> <ROCS_RefColorTversky>
0.143 

> <ROCS_RefTverskyCombo>
0.405 

> <ROCS_FitTversky>
1.855 

> <ROCS_FitColorTversky>
0.806 

> <ROCS_FitTverskyCombo>
2.661 

> <ROCS_ColorScore>
-4.339

> <ROCS_Overlap>
1812.289

> <ROCS_Rank>
238                 

$$$$
untitled-dbase-363_1552
  -OEChem-11112315393D

 35 36  0     0  0  0  0  0  0999 V2000
   13.6728   16.1282   20.5474 C   0  0  0  0  0  0  0  0  0  0  0  0
   12.7547   15.4935   19.7108 C   0  0  0  0  0  0  0  0  0  0  0  0
   13.6877   15.8406   21.9122 C   0  0  0  0  0  0  0  0  0  0  0  0
   11.8514   14.5712   20.2391 C   0  0  0  0  0  0  0  0  0  0  0  0
   12.7845   14.9183   22.4405 C   0  0  0  0  0  0  0  0  0  0  0  0
   11.8663   14.2836   21.6040 C   0  0  0  0  0  0  0  0  0  0  0  0
    7.4031    8.7707   24.9842 C   0  0  0  0  0  0  0  0  0  0  0  0
   10.4018   13.3260   23.4260 C   0  0  0  0  0  0  0  0  0  0  0  0
    7.3771   11.1592   24.3465 C   0  0  0  0  0  0  0  0  0  0  0  0
    9.3825    9.7874   23.7921 C   0  0  0  0  0  0  0  0  0  0  0  0
    8.3595   12.3049   24.5660 C   0  0  0  0  0  0  0  0  0  0  0  0
    9.6985   10.9971   22.9191 C   0  0  0  0  0  0  0  0  0  0  0  0
    7.7459    7.4122   24.4227 C   0  0  0  0  0  0  0  0  0  0  0  0
    8.0462    9.8593   24.3935 N   0  0  0  0  0  0  0  0  0  0  0  0
    9.5102   12.2511   23.6520 N   0  0  0  0  0  0  0  0  0  0  0  0
   10.9485   13.3464   22.1405 N   0  0  0  0  0  0  0  0  0  0  0  0
    6.5921    8.8620   25.9085 O   0  0  0  0  0  0  0  0  0  0  0  0
   10.6436   14.1606   24.3005 O   0  0  0  0  0  0  0  0  0  0  0  0
    7.2616    7.4312   22.7311 Cl  0  0  0  0  0  0  0  0  0  0  0  0
   14.3769   16.8458   20.1362 H   0  0  0  0  0  0  0  0  0  0  0  0
   12.7434   15.7165   18.6480 H   0  0  0  0  0  0  0  0  0  0  0  0
   14.4035   16.3343   22.5632 H   0  0  0  0  0  0  0  0  0  0  0  0
   11.1405   14.0826   19.5775 H   0  0  0  0  0  0  0  0  0  0  0  0
   12.8054   14.7020   23.5058 H   0  0  0  0  0  0  0  0  0  0  0  0
    6.6054   11.1578   25.1255 H   0  0  0  0  0  0  0  0  0  0  0  0
    6.8658   11.2862   23.3865 H   0  0  0  0  0  0  0  0  0  0  0  0
    9.4243    8.8676   23.1967 H   0  0  0  0  0  0  0  0  0  0  0  0
   10.1310    9.7015   24.5863 H   0  0  0  0  0  0  0  0  0  0  0  0
    7.8637   13.2708   24.4124 H   0  0  0  0  0  0  0  0  0  0  0  0
    8.7257   12.2744   25.5979 H   0  0  0  0  0  0  0  0  0  0  0  0
   10.7409   10.9699   22.5797 H   0  0  0  0  0  0  0  0  0  0  0  0
    9.0669   10.9831   22.0246 H   0  0  0  0  0  0  0  0  0  0  0  0
    7.1851    6.6586   24.9628 H   0  0  0  0  0  0  0  0  0  0  0  0
    8.8156    7.2603   24.5029 H   0  0  0  0  0  0  0  0  0  0  0  0
   10.6433   12.5712   21.4865 H   0  0  0  0  0  0  0  0  0  0  0  0
  1  2  1  0  0  0  0
  1  3  2  0  0  0  0
  2  4  2  0  0  0  0
  3  5  1  0  0  0  0
  4  6  1  0  0  0  0
  5  6  2  0  0  0  0
  6 16  1  0  0  0  0
  7 13  1  0  0  0  0
  7 14  1  0  0  0  0
  7 17  2  0  0  0  0
  8 15  1  0  0  0  0
  8 16  1  0  0  0  0
  8 18  2  0  0  0  0
  9 11  1  0  0  0  0
  9 14  1  0  0  0  0
 10 12  1  0  0  0  0
 10 14  1  0  0  0  0
 11 15  1  0  0  0  0
 12 15  1  0  0  0  0
 13 19  1  0  0  0  0
  1 20  1  0  0  0  0
  2 21  1  0  0  0  0
  3 22  1  0  0  0  0
  4 23  1  0  0  0  0
  5 24  1  0  0  0  0
  9 25  1  0  0  0  0
  9 26  1  0  0  0  0
 10 27  1  0  0  0  0
 10 28  1  0  0  0  0
 11 29  1  0  0  0  0
 11 30  1  0  0  0  0
 12 31  1  0  0  0  0
 12 32  1  0  0  0  0
 13 33  1  0  0  0  0
 13 34  1  0  0  0  0
 16 35  1  0  0  0  0
M  END
> <Catalog ID>
Z147652456

> <MW>
281.093

> <MW (desalted)>
281.738

> <ClogP>
1.001

> <logS>
-3.03

> <HBD>
1

> <HBA>
2

> <TPSA>
52.65

> <RotBonds>
2

> <ROCS_ShapeQuery>
A71EV2A-x0451_0A_A71EV2A-x0310_0A_A71EV2A-x0416_0A_peptide

> <ROCS_TanimotoCombo>
0.436 

> <ROCS_ShapeTanimoto>
0.298 

> <ROCS_ColorTanimoto>
0.138 

> <ROCS_RefTversky>
0.268 

> <ROCS_RefColorTversky>
0.146 

> <ROCS_RefTverskyCombo>
0.414 

> <ROCS_FitTversky>
1.612 

> <ROCS_FitColorTversky>
0.702 

> <ROCS_FitTverskyCombo>
2.314 

> <ROCS_ColorScore>
-4.448

> <ROCS_Overlap>
1856.395

> <ROCS_Rank>
239                 

$$$$
untitled-dbase-33_106
  -OEChem-11112315393D

 28 28  0     0  0  0  0  0  0999 V2000
    9.1508   10.1691   23.4267 C   0  0  0  0  0  0  0  0  0  0  0  0
    8.0625    9.8197   24.2774 C   0  0  0  0  0  0  0  0  0  0  0  0
    7.5121   10.9224   24.8928 C   0  0  0  0  0  0  0  0  0  0  0  0
    9.3907   11.5257   23.4242 C   0  0  0  0  0  0  0  0  0  0  0  0
    9.9331    9.2432   22.6458 C   0  0  0  0  0  0  0  0  0  0  0  0
   10.8958   13.4866   23.1957 C   0  0  0  0  0  0  0  0  0  0  0  0
    7.5767    8.4318   24.4786 C   0  0  0  0  0  0  0  0  0  0  0  0
    6.3773   10.9882   25.8415 C   0  0  0  0  0  0  0  0  0  0  0  0
   10.2135    6.9310   22.0841 C   0  0  0  0  0  0  0  0  0  0  0  0
   11.8932   14.0456   22.2078 C   0  0  0  0  0  0  0  0  0  0  0  0
   10.3225   12.2785   22.7618 N   0  0  0  0  0  0  0  0  0  0  0  0
   10.8827    9.5601   21.9053 O   0  0  0  0  0  0  0  0  0  0  0  0
   10.6507   14.0925   24.2354 O   0  0  0  0  0  0  0  0  0  0  0  0
    9.5121    7.9467   22.8093 O   0  0  0  0  0  0  0  0  0  0  0  0
    8.3065   12.3717   24.4445 S   0  0  0  0  0  0  0  0  0  0  0  0
   11.0151   15.1083   21.0964 Cl  0  0  0  0  0  0  0  0  0  0  0  0
    8.1011    7.9539   25.3184 H   0  0  0  0  0  0  0  0  0  0  0  0
    6.4973    8.4065   24.6906 H   0  0  0  0  0  0  0  0  0  0  0  0
    7.7326    7.8135   23.5816 H   0  0  0  0  0  0  0  0  0  0  0  0
    6.7279   10.8915   26.8804 H   0  0  0  0  0  0  0  0  0  0  0  0
    5.8273   11.9390   25.7565 H   0  0  0  0  0  0  0  0  0  0  0  0
    5.6421   10.1888   25.6561 H   0  0  0  0  0  0  0  0  0  0  0  0
    9.7758    5.9549   22.3071 H   0  0  0  0  0  0  0  0  0  0  0  0
   11.2689    6.9424   22.3679 H   0  0  0  0  0  0  0  0  0  0  0  0
   10.1239    7.1321   21.0140 H   0  0  0  0  0  0  0  0  0  0  0  0
   12.3966   13.2676   21.6283 H   0  0  0  0  0  0  0  0  0  0  0  0
   12.6464   14.6312   22.7425 H   0  0  0  0  0  0  0  0  0  0  0  0
   10.6371   11.9219   21.8481 H   0  0  0  0  0  0  0  0  0  0  0  0
  1  2  1  0  0  0  0
  1  4  2  0  0  0  0
  1  5  1  0  0  0  0
  2  3  2  0  0  0  0
  2  7  1  0  0  0  0
  3  8  1  0  0  0  0
  3 15  1  0  0  0  0
  4 11  1  0  0  0  0
  4 15  1  0  0  0  0
  5 12  2  0  0  0  0
  5 14  1  0  0  0  0
  6 10  1  0  0  0  0
  6 11  1  0  0  0  0
  6 13  2  0  0  0  0
  9 14  1  0  0  0  0
 10 16  1  0  0  0  0
  7 17  1  0  0  0  0
  7 18  1  0  0  0  0
  7 19  1  0  0  0  0
  8 20  1  0  0  0  0
  8 21  1  0  0  0  0
  8 22  1  0  0  0  0
  9 23  1  0  0  0  0
  9 24  1  0  0  0  0
  9 25  1  0  0  0  0
 10 26  1  0  0  0  0
 10 27  1  0  0  0  0
 11 28  1  0  0  0  0
M  END
> <Catalog ID>
Z56886532

> <MW>
261.023

> <MW (desalted)>
261.725

> <ClogP>
2.894

> <logS>
-3.42

> <HBD>
1

> <HBA>
2

> <TPSA>
55.4

> <RotBonds>
4

> <ROCS_ShapeQuery>
A71EV2A-x0451_0A_A71EV2A-x0310_0A_A71EV2A-x0416_0A_peptide

> <ROCS_TanimotoCombo>
0.436 

> <ROCS_ShapeTanimoto>
0.296 

> <ROCS_ColorTanimoto>
0.139 

> <ROCS_RefTversky>
0.262 

> <ROCS_RefColorTversky>
0.144 

> <ROCS_RefTverskyCombo>
0.405 

> <ROCS_FitTversky>
1.812 

> <ROCS_FitColorTversky>
0.810 

> <ROCS_FitTverskyCombo>
2.622 

> <ROCS_ColorScore>
-4.363

> <ROCS_Overlap>
1812.622

> <ROCS_Rank>
240                 

$$$$
untitled-dbase-266_8
  -OEChem-11112315393D

 38 40  0     1  0  0  0  0  0999 V2000
   12.5873    7.2477   23.1616 C   0  0  0  0  0  0  0  0  0  0  0  0
   11.3140    6.7079   22.9803 C   0  0  0  0  0  0  0  0  0  0  0  0
   12.7530    8.6300   23.2484 C   0  0  0  0  0  0  0  0  0  0  0  0
   10.2064    7.5504   22.8859 C   0  0  0  0  0  0  0  0  0  0  0  0
   11.6454    9.4724   23.1540 C   0  0  0  0  0  0  0  0  0  0  0  0
   10.3720    8.9327   22.9727 C   0  0  0  0  0  0  0  0  0  0  0  0
   11.9550   14.4871   21.9469 C   0  0  0  0  0  0  0  0  0  0  0  0
   10.8478   13.7460   22.0259 C   0  0  0  0  0  0  0  0  0  0  0  0
   10.3599   13.3316   23.3576 C   0  0  0  0  0  0  0  0  0  0  0  0
    8.6121   12.2744   25.7288 C   0  0  0  0  0  0  0  0  0  0  0  0
    9.4129   11.2465   22.2734 C   0  0  0  0  0  0  0  0  0  0  0  0
    7.1295   12.3951   25.4284 C   0  0  0  0  0  0  0  0  0  0  0  0
    7.0698   10.4192   24.1617 C   0  0  0  0  0  0  0  0  0  0  0  0
    9.1659    9.8510   22.8697 C   0  0  2  0  0  0  0  0  0  0  0  0
    8.5868   10.1876   24.2601 C   0  0  1  0  0  0  0  0  0  0  0  0
    9.3682   11.4485   24.6837 C   0  0  1  0  0  0  0  0  0  0  0  0
    9.6761   12.1266   23.4174 N   0  0  0  0  0  0  0  0  0  0  0  0
   10.5814   14.0707   24.3157 O   0  0  0  0  0  0  0  0  0  0  0  0
    6.5612   11.0942   25.3062 O   0  0  0  0  0  0  0  0  0  0  0  0
   13.4496    6.5914   23.2364 H   0  0  0  0  0  0  0  0  0  0  0  0
   11.1847    5.6316   22.9138 H   0  0  0  0  0  0  0  0  0  0  0  0
   13.7441    9.0505   23.3906 H   0  0  0  0  0  0  0  0  0  0  0  0
    9.2180    7.1209   22.7445 H   0  0  0  0  0  0  0  0  0  0  0  0
   11.7840   10.5482   23.2226 H   0  0  0  0  0  0  0  0  0  0  0  0
   12.3619   14.8216   20.9985 H   0  0  0  0  0  0  0  0  0  0  0  0
   12.4819   14.7763   22.8501 H   0  0  0  0  0  0  0  0  0  0  0  0
   10.2948   13.4381   21.1481 H   0  0  0  0  0  0  0  0  0  0  0  0
    9.0352   13.2950   25.7674 H   0  0  0  0  0  0  0  0  0  0  0  0
    8.7597   11.8462   26.7354 H   0  0  0  0  0  0  0  0  0  0  0  0
   10.2930   11.2783   21.6166 H   0  0  0  0  0  0  0  0  0  0  0  0
    8.5441   11.6087   21.7098 H   0  0  0  0  0  0  0  0  0  0  0  0
    6.6044   12.9630   26.2033 H   0  0  0  0  0  0  0  0  0  0  0  0
    6.9840   12.9138   24.4769 H   0  0  0  0  0  0  0  0  0  0  0  0
    6.8319   11.0191   23.2806 H   0  0  0  0  0  0  0  0  0  0  0  0
    6.5510    9.4618   24.0533 H   0  0  0  0  0  0  0  0  0  0  0  0
    8.3940    9.3138   22.2717 H   0  0  0  0  0  0  0  0  0  0  0  0
    8.7664    9.3678   24.9399 H   0  0  0  0  0  0  0  0  0  0  0  0
   10.3410   11.1099   25.1484 H   0  0  0  0  0  0  0  0  0  0  0  0
  1  2  1  0  0  0  0
  1  3  2  0  0  0  0
  2  4  2  0  0  0  0
  3  5  1  0  0  0  0
  4  6  1  0  0  0  0
  5  6  2  0  0  0  0
  6 14  1  0  0  0  0
  7  8  2  0  0  0  0
  8  9  1  0  0  0  0
  9 17  1  0  0  0  0
  9 18  2  0  0  0  0
 10 12  1  0  0  0  0
 10 16  1  0  0  0  0
 11 14  1  0  0  0  0
 11 17  1  0  0  0  0
 12 19  1  0  0  0  0
 13 15  1  0  0  0  0
 13 19  1  0  0  0  0
 14 15  1  0  0  0  0
 15 16  1  0  0  0  0
 16 17  1  0  0  0  0
  1 20  1  0  0  0  0
  2 21  1  0  0  0  0
  3 22  1  0  0  0  0
  4 23  1  0  0  0  0
  5 24  1  0  0  0  0
  7 25  1  0  0  0  0
  7 26  1  0  0  0  0
  8 27  1  0  0  0  0
 10 28  1  0  0  0  0
 10 29  1  0  0  0  0
 11 30  1  0  0  0  0
 11 31  1  0  0  0  0
 12 32  1  0  0  0  0
 12 33  1  0  0  0  0
 13 34  1  0  0  0  0
 13 35  1  0  0  0  0
 14 36  1  0  0  0  0
 15 37  1  0  0  0  0
 16 38  1  0  0  0  0
M  END
> <Catalog ID>
Z2285378130

> <MW>
257.328

> <MW (desalted)>
257.328

> <ClogP>
1.493

> <logS>
-3.34

> <HBD>
0

> <HBA>
2

> <TPSA>
29.54

> <RotBonds>
2

> <ROCS_ShapeQuery>
A71EV2A-x0451_0A_A71EV2A-x0310_0A_A71EV2A-x0416_0A_peptide

> <ROCS_TanimotoCombo>
0.435 

> <ROCS_ShapeTanimoto>
0.288 

> <ROCS_ColorTanimoto>
0.148 

> <ROCS_RefTversky>
0.261 

> <ROCS_RefColorTversky>
0.160 

> <ROCS_RefTverskyCombo>
0.421 

> <ROCS_FitTversky>
1.547 

> <ROCS_FitColorTversky>
0.664 

> <ROCS_FitTverskyCombo>
2.211 

> <ROCS_ColorScore>
-4.857

> <ROCS_Overlap>
1812.003

> <ROCS_Rank>
241                 

$$$$
untitled-dbase-361_16
  -OEChem-11112315393D

 22 22  0     0  0  0  0  0  0999 V2000
    7.2510   10.3130   24.8983 C   0  0  0  0  0  0  0  0  0  0  0  0
    8.1640    9.5671   24.1530 C   0  0  0  0  0  0  0  0  0  0  0  0
    8.3892   12.3457   24.2582 C   0  0  0  0  0  0  0  0  0  0  0  0
    7.3636   11.7024   24.9509 C   0  0  0  0  0  0  0  0  0  0  0  0
    9.3023   11.5998   23.5129 C   0  0  0  0  0  0  0  0  0  0  0  0
    9.1897   10.2104   23.4603 C   0  0  0  0  0  0  0  0  0  0  0  0
    6.4114   12.4804   25.7278 C   0  0  0  0  0  0  0  0  0  0  0  0
   10.9032   13.4739   23.2171 C   0  0  0  0  0  0  0  0  0  0  0  0
   11.9703   13.9148   22.2423 C   0  0  0  0  0  0  0  0  0  0  0  0
   10.3185   12.2753   22.8305 N   0  0  0  0  0  0  0  0  0  0  0  0
    6.4171   13.7102   25.8435 O   0  0  0  0  0  0  0  0  0  0  0  0
   10.6369   14.1662   24.1958 O   0  0  0  0  0  0  0  0  0  0  0  0
    5.4773   11.7006   26.3380 O   0  0  0  0  0  0  0  0  0  0  0  0
   10.2989    9.2480   22.5502 Cl  0  0  0  0  0  0  0  0  0  0  0  0
   11.4961   15.4959   21.6011 Cl  0  0  0  0  0  0  0  0  0  0  0  0
    6.4555    9.8017   25.4344 H   0  0  0  0  0  0  0  0  0  0  0  0
    8.0607    8.4853   24.1222 H   0  0  0  0  0  0  0  0  0  0  0  0
    8.4755   13.4298   24.3006 H   0  0  0  0  0  0  0  0  0  0  0  0
   12.0958   13.2192   21.4087 H   0  0  0  0  0  0  0  0  0  0  0  0
   12.9247   14.0134   22.7672 H   0  0  0  0  0  0  0  0  0  0  0  0
   10.6608   11.8498   21.9725 H   0  0  0  0  0  0  0  0  0  0  0  0
    4.8295   12.2163   26.8641 H   0  0  0  0  0  0  0  0  0  0  0  0
  1  2  2  0  0  0  0
  1  4  1  0  0  0  0
  2  6  1  0  0  0  0
  3  4  2  0  0  0  0
  3  5  1  0  0  0  0
  4  7  1  0  0  0  0
  5  6  2  0  0  0  0
  5 10  1  0  0  0  0
  6 14  1  0  0  0  0
  7 11  2  0  0  0  0
  7 13  1  0  0  0  0
  8  9  1  0  0  0  0
  8 10  1  0  0  0  0
  8 12  2  0  0  0  0
  9 15  1  0  0  0  0
  1 16  1  0  0  0  0
  2 17  1  0  0  0  0
  3 18  1  0  0  0  0
  9 19  1  0  0  0  0
  9 20  1  0  0  0  0
 10 21  1  0  0  0  0
 13 22  1  0  0  0  0
M  END
> <Catalog ID>
Z56968881

> <MW>
246.98

> <MW (desalted)>
248.063

> <ClogP>
1.794

> <logS>
-3.07

> <HBD>
2

> <HBA>
3

> <TPSA>
66.4

> <RotBonds>
3

> <ROCS_ShapeQuery>
A71EV2A-x0451_0A_A71EV2A-x0310_0A_A71EV2A-x0416_0A_peptide

> <ROCS_TanimotoCombo>
0.435 

> <ROCS_ShapeTanimoto>
0.305 

> <ROCS_ColorTanimoto>
0.131 

> <ROCS_RefTversky>
0.266 

> <ROCS_RefColorTversky>
0.143 

> <ROCS_RefTverskyCombo>
0.410 

> <ROCS_FitTversky>
1.900 

> <ROCS_FitColorTversky>
0.597 

> <ROCS_FitTverskyCombo>
2.497 

> <ROCS_ColorScore>
-4.357

> <ROCS_Overlap>
1845.008

> <ROCS_Rank>
242                 

$$$$
untitled-dbase-62_93
  -OEChem-11112315393D

 21 21  0     0  0  0  0  0  0999 V2000
    5.0416   11.1459   26.5756 C   0  0  0  0  0  0  0  0  0  0  0  0
    8.2643   12.3868   24.3606 C   0  0  0  0  0  0  0  0  0  0  0  0
    7.2084   11.8146   25.0699 C   0  0  0  0  0  0  0  0  0  0  0  0
    7.9034    9.6206   24.3347 C   0  0  0  0  0  0  0  0  0  0  0  0
    9.1398   11.5760   23.6383 C   0  0  0  0  0  0  0  0  0  0  0  0
    7.0279   10.4315   25.0570 C   0  0  0  0  0  0  0  0  0  0  0  0
    8.9594   10.1929   23.6254 C   0  0  0  0  0  0  0  0  0  0  0  0
   10.8248   13.3659   23.2929 C   0  0  0  0  0  0  0  0  0  0  0  0
   11.9109   13.7306   22.3076 C   0  0  0  0  0  0  0  0  0  0  0  0
    4.6042   12.1347   26.9964 N   0  0  0  0  0  0  0  0  0  0  0  0
   10.1858   12.1852   22.9387 N   0  0  0  0  0  0  0  0  0  0  0  0
   10.5907   14.0963   24.2520 O   0  0  0  0  0  0  0  0  0  0  0  0
    5.6777    9.7018   25.9626 S   0  0  0  0  0  0  0  0  0  0  0  0
   11.1818   14.7420   21.0501 Cl  0  0  0  0  0  0  0  0  0  0  0  0
   10.1222    9.0434   22.6600 Br  0  0  0  0  0  0  0  0  0  0  0  0
    8.3933   13.4661   24.3781 H   0  0  0  0  0  0  0  0  0  0  0  0
    6.5362   12.4631   25.6263 H   0  0  0  0  0  0  0  0  0  0  0  0
    7.7631    8.5414   24.3244 H   0  0  0  0  0  0  0  0  0  0  0  0
   12.3665   12.8558   21.8367 H   0  0  0  0  0  0  0  0  0  0  0  0
   12.6900   14.3025   22.8194 H   0  0  0  0  0  0  0  0  0  0  0  0
   10.5080   11.7212   22.0930 H   0  0  0  0  0  0  0  0  0  0  0  0
  1 10  3  0  0  0  0
  1 13  1  0  0  0  0
  2  3  2  0  0  0  0
  2  5  1  0  0  0  0
  3  6  1  0  0  0  0
  4  6  2  0  0  0  0
  4  7  1  0  0  0  0
  5  7  2  0  0  0  0
  5 11  1  0  0  0  0
  6 13  1  0  0  0  0
  7 15  1  0  0  0  0
  8  9  1  0  0  0  0
  8 11  1  0  0  0  0
  8 12  2  0  0  0  0
  9 14  1  0  0  0  0
  2 16  1  0  0  0  0
  3 17  1  0  0  0  0
  4 18  1  0  0  0  0
  9 19  1  0  0  0  0
  9 20  1  0  0  0  0
 11 21  1  0  0  0  0
M  END
> <Catalog ID>
Z56941039

> <MW>
303.907

> <MW (desalted)>
305.579

> <ClogP>
2.428

> <logS>
-4.5

> <HBD>
1

> <HBA>
2

> <TPSA>
52.89

> <RotBonds>
3

> <ROCS_ShapeQuery>
A71EV2A-x0451_0A_A71EV2A-x0310_0A_A71EV2A-x0416_0A_peptide

> <ROCS_TanimotoCombo>
0.435 

> <ROCS_ShapeTanimoto>
0.287 

> <ROCS_ColorTanimoto>
0.148 

> <ROCS_RefTversky>
0.253 

> <ROCS_RefColorTversky>
0.156 

> <ROCS_RefTverskyCombo>
0.409 

> <ROCS_FitTversky>
1.861 

> <ROCS_FitColorTversky>
0.748 

> <ROCS_FitTverskyCombo>
2.609 

> <ROCS_ColorScore>
-4.739

> <ROCS_Overlap>
1755.025

> <ROCS_Rank>
243                 

$$$$
untitled-dbase-898_30
  -OEChem-11112315393D

 30 31  0     0  0  0  0  0  0999 V2000
   11.5478    7.5678   21.2898 C   0  0  0  0  0  0  0  0  0  0  0  0
   12.0754    8.7611   21.7831 C   0  0  0  0  0  0  0  0  0  0  0  0
   10.2100    7.2481   21.5218 C   0  0  0  0  0  0  0  0  0  0  0  0
   11.2652    9.6346   22.5085 C   0  0  0  0  0  0  0  0  0  0  0  0
    8.2845   11.9975   24.3530 C   0  0  0  0  0  0  0  0  0  0  0  0
    7.6042   10.8291   24.7454 C   0  0  0  0  0  0  0  0  0  0  0  0
    9.3998    8.1215   22.2472 C   0  0  0  0  0  0  0  0  0  0  0  0
    9.9274    9.3148   22.7406 C   0  0  0  0  0  0  0  0  0  0  0  0
    9.2801   11.5514   23.5187 C   0  0  0  0  0  0  0  0  0  0  0  0
   12.5816   15.0304   22.3687 C   0  0  0  0  0  0  0  0  0  0  0  0
   11.8889   13.9007   22.1933 C   0  0  0  0  0  0  0  0  0  0  0  0
   10.8788   13.4656   23.2011 C   0  0  0  0  0  0  0  0  0  0  0  0
    7.9705    7.7494   22.4787 C   0  0  0  0  0  0  0  0  0  0  0  0
    8.1237    9.7238   24.2046 N   0  0  0  0  0  0  0  0  0  0  0  0
    9.1409   10.1957   23.4638 N   0  0  0  0  0  0  0  0  0  0  0  0
   10.2481   12.2477   22.8439 N   0  0  0  0  0  0  0  0  0  0  0  0
   10.6598   14.1284   24.2082 O   0  0  0  0  0  0  0  0  0  0  0  0
   12.1785    6.8879   20.7245 H   0  0  0  0  0  0  0  0  0  0  0  0
   13.1170    9.0100   21.6027 H   0  0  0  0  0  0  0  0  0  0  0  0
    9.8091    6.3156   21.1332 H   0  0  0  0  0  0  0  0  0  0  0  0
   11.6920   10.5605   22.8865 H   0  0  0  0  0  0  0  0  0  0  0  0
    8.0781   13.0190   24.6382 H   0  0  0  0  0  0  0  0  0  0  0  0
    6.7517   10.7372   25.4028 H   0  0  0  0  0  0  0  0  0  0  0  0
   13.3232   15.3782   21.6582 H   0  0  0  0  0  0  0  0  0  0  0  0
   12.4117   15.6393   23.2505 H   0  0  0  0  0  0  0  0  0  0  0  0
   12.0580   13.2916   21.3119 H   0  0  0  0  0  0  0  0  0  0  0  0
    7.8742    7.1779   23.4085 H   0  0  0  0  0  0  0  0  0  0  0  0
    7.3365    8.6413   22.5478 H   0  0  0  0  0  0  0  0  0  0  0  0
    7.5816    7.1430   21.6520 H   0  0  0  0  0  0  0  0  0  0  0  0
   10.5625   11.8256   21.9487 H   0  0  0  0  0  0  0  0  0  0  0  0
  1  2  1  0  0  0  0
  1  3  2  0  0  0  0
  2  4  2  0  0  0  0
  3  7  1  0  0  0  0
  4  8  1  0  0  0  0
  5  6  1  0  0  0  0
  5  9  2  0  0  0  0
  6 14  2  0  0  0  0
  7  8  2  0  0  0  0
  7 13  1  0  0  0  0
  8 15  1  0  0  0  0
  9 15  1  0  0  0  0
  9 16  1  0  0  0  0
 10 11  2  0  0  0  0
 11 12  1  0  0  0  0
 12 16  1  0  0  0  0
 12 17  2  0  0  0  0
 14 15  1  0  0  0  0
  1 18  1  0  0  0  0
  2 19  1  0  0  0  0
  3 20  1  0  0  0  0
  4 21  1  0  0  0  0
  5 22  1  0  0  0  0
  6 23  1  0  0  0  0
 10 24  1  0  0  0  0
 10 25  1  0  0  0  0
 11 26  1  0  0  0  0
 13 27  1  0  0  0  0
 13 28  1  0  0  0  0
 13 29  1  0  0  0  0
 16 30  1  0  0  0  0
M  END
> <Catalog ID>
Z2737383244

> <MW>
227.262

> <MW (desalted)>
227.262

> <ClogP>
2.376

> <logS>
-3.15

> <HBD>
1

> <HBA>
2

> <TPSA>
46.92

> <RotBonds>
3

> <ROCS_ShapeQuery>
A71EV2A-x0451_0A_A71EV2A-x0310_0A_A71EV2A-x0416_0A_peptide

> <ROCS_TanimotoCombo>
0.435 

> <ROCS_ShapeTanimoto>
0.271 

> <ROCS_ColorTanimoto>
0.164 

> <ROCS_RefTversky>
0.247 

> <ROCS_RefColorTversky>
0.174 

> <ROCS_RefTverskyCombo>
0.422 

> <ROCS_FitTversky>
1.562 

> <ROCS_FitColorTversky>
0.728 

> <ROCS_FitTverskyCombo>
2.291 

> <ROCS_ColorScore>
-5.307

> <ROCS_Overlap>
1714.697

> <ROCS_Rank>
244                 

$$$$
untitled-dbase-765_24
  -OEChem-11112315393D

 24 24  0     0  0  0  0  0  0999 V2000
    7.1570   12.1086   25.4126 C   0  0  0  0  0  0  0  0  0  0  0  0
    6.7495   10.7747   25.4050 C   0  0  0  0  0  0  0  0  0  0  0  0
    8.2118   12.5204   24.5980 C   0  0  0  0  0  0  0  0  0  0  0  0
    7.3967    9.8524   24.5827 C   0  0  0  0  0  0  0  0  0  0  0  0
    8.8590   11.5981   23.7757 C   0  0  0  0  0  0  0  0  0  0  0  0
    8.4515   10.2641   23.7680 C   0  0  0  0  0  0  0  0  0  0  0  0
   10.7801   13.0828   23.2582 C   0  0  0  0  0  0  0  0  0  0  0  0
   11.8010   13.2812   22.1618 C   0  0  0  0  0  0  0  0  0  0  0  0
    8.3468    7.6742   23.1469 N   0  0  0  0  0  0  0  0  0  0  0  0
    9.9128   12.0370   22.9697 N   0  0  0  0  0  0  0  0  0  0  0  0
   10.7790   13.8187   24.2413 O   0  0  0  0  0  0  0  0  0  0  0  0
    8.9762    9.4238   21.3614 O   0  0  0  0  0  0  0  0  0  0  0  0
   10.6062    8.9101   23.2126 O   0  0  0  0  0  0  0  0  0  0  0  0
    9.2373    9.0760   22.7494 S   0  0  0  0  0  0  0  0  0  0  0  0
   11.6070   14.9256   21.5343 Cl  0  0  0  0  0  0  0  0  0  0  0  0
    6.6530   12.8266   26.0529 H   0  0  0  0  0  0  0  0  0  0  0  0
    5.9288   10.4536   26.0397 H   0  0  0  0  0  0  0  0  0  0  0  0
    8.5190   13.5630   24.6135 H   0  0  0  0  0  0  0  0  0  0  0  0
    7.0696    8.8160   24.5853 H   0  0  0  0  0  0  0  0  0  0  0  0
   11.6808   12.5728   21.3383 H   0  0  0  0  0  0  0  0  0  0  0  0
   12.8069   13.1732   22.5771 H   0  0  0  0  0  0  0  0  0  0  0  0
    7.6993    7.2998   22.4426 H   0  0  0  0  0  0  0  0  0  0  0  0
    8.8129    6.9511   23.7082 H   0  0  0  0  0  0  0  0  0  0  0  0
   10.0580   11.5455   22.0909 H   0  0  0  0  0  0  0  0  0  0  0  0
  1  2  1  0  0  0  0
  1  3  2  0  0  0  0
  2  4  2  0  0  0  0
  3  5  1  0  0  0  0
  4  6  1  0  0  0  0
  5  6  2  0  0  0  0
  5 10  1  0  0  0  0
  6 14  1  0  0  0  0
  7  8  1  0  0  0  0
  7 10  1  0  0  0  0
  7 11  2  0  0  0  0
  8 15  1  0  0  0  0
  9 14  1  0  0  0  0
 12 14  2  0  0  0  0
 13 14  2  0  0  0  0
  1 16  1  0  0  0  0
  2 17  1  0  0  0  0
  3 18  1  0  0  0  0
  4 19  1  0  0  0  0
  8 20  1  0  0  0  0
  8 21  1  0  0  0  0
  9 22  1  0  0  0  0
  9 23  1  0  0  0  0
 10 24  1  0  0  0  0
M  END
> <Catalog ID>
Z799946500

> <MW>
248.002

> <MW (desalted)>
248.687

> <ClogP>
0.259

> <logS>
-2.122

> <HBD>
2

> <HBA>
3

> <TPSA>
89.26

> <RotBonds>
3

> <ROCS_ShapeQuery>
A71EV2A-x0451_0A_A71EV2A-x0310_0A_A71EV2A-x0416_0A_peptide

> <ROCS_TanimotoCombo>
0.435 

> <ROCS_ShapeTanimoto>
0.294 

> <ROCS_ColorTanimoto>
0.141 

> <ROCS_RefTversky>
0.259 

> <ROCS_RefColorTversky>
0.153 

> <ROCS_RefTverskyCombo>
0.412 

> <ROCS_FitTversky>
1.872 

> <ROCS_FitColorTversky>
0.639 

> <ROCS_FitTverskyCombo>
2.511 

> <ROCS_ColorScore>
-4.659

> <ROCS_Overlap>
1792.509

> <ROCS_Rank>
245                 

$$$$
untitled-dbase-911_194
  -OEChem-11112315393D

 38 40  0     0  0  0  0  0  0999 V2000
    9.3568    7.9583   22.4946 C   0  0  0  0  0  0  0  0  0  0  0  0
    8.2830    7.5685   23.3130 C   0  0  0  0  0  0  0  0  0  0  0  0
    7.2938   15.5579   24.9584 C   0  0  0  0  0  0  0  0  0  0  0  0
    9.7986    9.2829   22.4783 C   0  0  0  0  0  0  0  0  0  0  0  0
    7.9881   15.8992   26.1189 C   0  0  0  0  0  0  0  0  0  0  0  0
    7.6327    8.4980   24.1293 C   0  0  0  0  0  0  0  0  0  0  0  0
    7.4418   14.2857   24.4057 C   0  0  0  0  0  0  0  0  0  0  0  0
    8.9787   13.6962   26.1741 C   0  0  0  0  0  0  0  0  0  0  0  0
    9.1414   10.1865   23.2942 C   0  0  0  0  0  0  0  0  0  0  0  0
    8.8306   14.9684   26.7268 C   0  0  0  0  0  0  0  0  0  0  0  0
    8.0741    9.8099   24.1111 C   0  0  0  0  0  0  0  0  0  0  0  0
    8.2843   13.3549   25.0135 C   0  0  0  0  0  0  0  0  0  0  0  0
    9.3618   11.6319   23.5020 C   0  0  0  0  0  0  0  0  0  0  0  0
    9.5549   15.3248   27.9366 C   0  0  0  0  0  0  0  0  0  0  0  0
   10.3992   13.6308   23.1097 C   0  0  0  0  0  0  0  0  0  0  0  0
    7.5381   10.9735   24.8866 C   0  0  0  0  0  0  0  0  0  0  0  0
   11.0542   15.2677   27.8895 C   0  0  0  0  0  0  0  0  0  0  0  0
   10.1727   14.4463   21.8553 C   0  0  0  0  0  0  0  0  0  0  0  0
   10.2710   12.2805   22.8556 N   0  0  0  0  0  0  0  0  0  0  0  0
    8.4336   12.0692   24.4547 N   0  0  0  0  0  0  0  0  0  0  0  0
    9.0308   15.6655   28.9992 O   0  0  0  0  0  0  0  0  0  0  0  0
   10.6765   14.1405   24.1927 O   0  0  0  0  0  0  0  0  0  0  0  0
   11.6011   15.4204   21.4725 Cl  0  0  0  0  0  0  0  0  0  0  0  0
    9.8477    7.2189   21.8675 H   0  0  0  0  0  0  0  0  0  0  0  0
    7.9551    6.5323   23.3097 H   0  0  0  0  0  0  0  0  0  0  0  0
    6.6380   16.2827   24.4849 H   0  0  0  0  0  0  0  0  0  0  0  0
   10.6269    9.5815   21.8461 H   0  0  0  0  0  0  0  0  0  0  0  0
    7.8650   16.8933   26.5409 H   0  0  0  0  0  0  0  0  0  0  0  0
    6.8035    8.1939   24.7589 H   0  0  0  0  0  0  0  0  0  0  0  0
    6.8965   14.0307   23.5006 H   0  0  0  0  0  0  0  0  0  0  0  0
    9.6360   12.9702   26.6481 H   0  0  0  0  0  0  0  0  0  0  0  0
    6.5012   11.1858   24.6066 H   0  0  0  0  0  0  0  0  0  0  0  0
    7.6272   10.8021   25.9642 H   0  0  0  0  0  0  0  0  0  0  0  0
   11.5276   16.2116   27.5761 H   0  0  0  0  0  0  0  0  0  0  0  0
   11.4368   14.4720   27.2315 H   0  0  0  0  0  0  0  0  0  0  0  0
   11.5132   15.0574   28.8719 H   0  0  0  0  0  0  0  0  0  0  0  0
    9.3287   15.1259   22.0019 H   0  0  0  0  0  0  0  0  0  0  0  0
    9.9746   13.7769   21.0138 H   0  0  0  0  0  0  0  0  0  0  0  0
  1  2  1  0  0  0  0
  1  4  2  0  0  0  0
  2  6  2  0  0  0  0
  3  5  2  0  0  0  0
  3  7  1  0  0  0  0
  4  9  1  0  0  0  0
  5 10  1  0  0  0  0
  6 11  1  0  0  0  0
  7 12  2  0  0  0  0
  8 10  2  0  0  0  0
  8 12  1  0  0  0  0
  9 11  2  0  0  0  0
  9 13  1  0  0  0  0
 10 14  1  0  0  0  0
 11 16  1  0  0  0  0
 12 20  1  0  0  0  0
 13 19  2  3  0  0  0
 13 20  1  0  0  0  0
 14 17  1  0  0  0  0
 14 21  2  0  0  0  0
 15 18  1  0  0  0  0
 15 19  1  0  0  0  0
 15 22  2  0  0  0  0
 16 20  1  0  0  0  0
 18 23  1  0  0  0  0
  1 24  1  0  0  0  0
  2 25  1  0  0  0  0
  3 26  1  0  0  0  0
  4 27  1  0  0  0  0
  5 28  1  0  0  0  0
  6 29  1  0  0  0  0
  7 30  1  0  0  0  0
  8 31  1  0  0  0  0
 16 32  1  0  0  0  0
 16 33  1  0  0  0  0
 17 34  1  0  0  0  0
 17 35  1  0  0  0  0
 17 36  1  0  0  0  0
 18 37  1  0  0  0  0
 18 38  1  0  0  0  0
M  END
> <Catalog ID>
Z56887600

> <MW>
326.082

> <MW (desalted)>
326.777

> <ClogP>
3.837

> <logS>
-4.91

> <HBD>
0

> <HBA>
4

> <TPSA>
49.74

> <RotBonds>
3

> <ROCS_ShapeQuery>
A71EV2A-x0451_0A_A71EV2A-x0310_0A_A71EV2A-x0416_0A_peptide

> <ROCS_TanimotoCombo>
0.435 

> <ROCS_ShapeTanimoto>
0.305 

> <ROCS_ColorTanimoto>
0.130 

> <ROCS_RefTversky>
0.280 

> <ROCS_RefColorTversky>
0.143 

> <ROCS_RefTverskyCombo>
0.422 

> <ROCS_FitTversky>
1.428 

> <ROCS_FitColorTversky>
0.594 

> <ROCS_FitTverskyCombo>
2.022 

> <ROCS_ColorScore>
-4.336

> <ROCS_Overlap>
1942.383

> <ROCS_Rank>
246                 

$$$$
untitled-dbase-913_701
  -OEChem-11112315393D

 32 33  0     0  0  0  0  0  0999 V2000
    8.3409    9.5399   24.0820 C   0  0  0  0  0  0  0  0  0  0  0  0
    9.3557   10.2286   23.4176 C   0  0  0  0  0  0  0  0  0  0  0  0
    7.3663   10.2449   24.7883 C   0  0  0  0  0  0  0  0  0  0  0  0
    8.4214   12.3273   24.1657 C   0  0  0  0  0  0  0  0  0  0  0  0
    9.3960   11.6222   23.4594 C   0  0  0  0  0  0  0  0  0  0  0  0
    7.4065   11.6386   24.8301 C   0  0  0  0  0  0  0  0  0  0  0  0
   13.3374   17.0819   16.5544 C   0  0  0  0  0  0  0  0  0  0  0  0
   12.8621   16.4047   17.6017 C   0  0  0  0  0  0  0  0  0  0  0  0
   13.3010   16.7878   18.9560 C   0  0  0  0  0  0  0  0  0  0  0  0
   10.9869   13.5365   23.1198 C   0  0  0  0  0  0  0  0  0  0  0  0
   11.8380   14.9359   19.9293 C   0  0  0  0  0  0  0  0  0  0  0  0
   12.9392   16.0236   21.4093 C   0  0  0  0  0  0  0  0  0  0  0  0
   11.7457   15.0564   21.4573 C   0  0  0  0  0  0  0  0  0  0  0  0
   12.7690   16.0462   19.9710 N   0  0  0  0  0  0  0  0  0  0  0  0
   10.4240   12.3201   22.7856 N   0  0  0  0  0  0  0  0  0  0  0  0
   14.0902   17.7173   19.1045 O   0  0  0  0  0  0  0  0  0  0  0  0
   10.7063   14.2567   24.0701 O   0  0  0  0  0  0  0  0  0  0  0  0
   11.9473   13.8383   22.1952 O   0  0  0  0  0  0  0  0  0  0  0  0
    6.4701   12.3149   25.5085 F   0  0  0  0  0  0  0  0  0  0  0  0
    8.3102    8.4549   24.0489 H   0  0  0  0  0  0  0  0  0  0  0  0
   10.1100    9.6687   22.8706 H   0  0  0  0  0  0  0  0  0  0  0  0
    6.5761    9.7090   25.3060 H   0  0  0  0  0  0  0  0  0  0  0  0
    8.4430   13.4132   24.2060 H   0  0  0  0  0  0  0  0  0  0  0  0
   13.0518   16.8470   15.5345 H   0  0  0  0  0  0  0  0  0  0  0  0
   14.0345   17.8993   16.7057 H   0  0  0  0  0  0  0  0  0  0  0  0
   12.1654   15.5841   17.4912 H   0  0  0  0  0  0  0  0  0  0  0  0
   12.2915   14.0156   19.5506 H   0  0  0  0  0  0  0  0  0  0  0  0
   10.9134   15.1550   19.3893 H   0  0  0  0  0  0  0  0  0  0  0  0
   12.7655   16.9861   21.8969 H   0  0  0  0  0  0  0  0  0  0  0  0
   13.9009   15.6051   21.7191 H   0  0  0  0  0  0  0  0  0  0  0  0
   10.8185   15.5460   21.7820 H   0  0  0  0  0  0  0  0  0  0  0  0
   10.7951   11.8712   21.9516 H   0  0  0  0  0  0  0  0  0  0  0  0
  1  2  1  0  0  0  0
  1  3  2  0  0  0  0
  2  5  2  0  0  0  0
  3  6  1  0  0  0  0
  4  5  1  0  0  0  0
  4  6  2  0  0  0  0
  5 15  1  0  0  0  0
  6 19  1  0  0  0  0
  7  8  2  0  0  0  0
  8  9  1  0  0  0  0
  9 14  1  0  0  0  0
  9 16  2  0  0  0  0
 10 15  1  0  0  0  0
 10 17  2  0  0  0  0
 10 18  1  0  0  0  0
 11 13  1  0  0  0  0
 11 14  1  0  0  0  0
 12 13  1  0  0  0  0
 12 14  1  0  0  0  0
 13 18  1  0  0  0  0
  1 20  1  0  0  0  0
  2 21  1  0  0  0  0
  3 22  1  0  0  0  0
  4 23  1  0  0  0  0
  7 24  1  0  0  0  0
  7 25  1  0  0  0  0
  8 26  1  0  0  0  0
 11 27  1  0  0  0  0
 11 28  1  0  0  0  0
 12 29  1  0  0  0  0
 12 30  1  0  0  0  0
 13 31  1  0  0  0  0
 15 32  1  0  0  0  0
M  END
> <Catalog ID>
Z2285377976

> <MW>
264.252

> <MW (desalted)>
264.252

> <ClogP>
2.233

> <logS>
-3.47

> <HBD>
1

> <HBA>
3

> <TPSA>
58.64

> <RotBonds>
4

> <ROCS_ShapeQuery>
A71EV2A-x0451_0A_A71EV2A-x0310_0A_A71EV2A-x0416_0A_peptide

> <ROCS_TanimotoCombo>
0.435 

> <ROCS_ShapeTanimoto>
0.306 

> <ROCS_ColorTanimoto>
0.129 

> <ROCS_RefTversky>
0.274 

> <ROCS_RefColorTversky>
0.141 

> <ROCS_RefTverskyCombo>
0.415 

> <ROCS_FitTversky>
1.626 

> <ROCS_FitColorTversky>
0.590 

> <ROCS_FitTverskyCombo>
2.215 

> <ROCS_ColorScore>
-4.295

> <ROCS_Overlap>
1901.548

> <ROCS_Rank>
247                 

$$$$
untitled-dbase-815_236
  -OEChem-11112315393D

 29 29  0     0  0  0  0  0  0999 V2000
    9.7879   11.2772   23.1020 C   0  0  0  0  0  0  0  0  0  0  0  0
    8.4366   12.3016   24.8229 C   0  0  0  0  0  0  0  0  0  0  0  0
    9.4708   12.3833   23.8904 C   0  0  0  0  0  0  0  0  0  0  0  0
    9.0707   10.0895   23.2459 C   0  0  0  0  0  0  0  0  0  0  0  0
    7.7195   11.1139   24.9669 C   0  0  0  0  0  0  0  0  0  0  0  0
    8.0366   10.0078   24.1784 C   0  0  0  0  0  0  0  0  0  0  0  0
   11.8153   14.7579   22.1770 C   0  0  0  0  0  0  0  0  0  0  0  0
    9.4252    8.9161   22.3929 C   0  0  0  0  0  0  0  0  0  0  0  0
    6.6161   11.0458   25.9708 C   0  0  0  0  0  0  0  0  0  0  0  0
   10.2370   13.6534   23.7362 C   0  0  0  0  0  0  0  0  0  0  0  0
   12.5611   14.5501   20.8837 C   0  0  0  0  0  0  0  0  0  0  0  0
   11.0221   13.6764   22.5282 N   0  0  0  0  0  0  0  0  0  0  0  0
   11.9352   15.7889   22.8366 O   0  0  0  0  0  0  0  0  0  0  0  0
    7.3360    8.8462   24.3196 O   0  0  0  0  0  0  0  0  0  0  0  0
   12.0602   15.8200   19.7562 Cl  0  0  0  0  0  0  0  0  0  0  0  0
   10.5939   11.3413   22.3747 H   0  0  0  0  0  0  0  0  0  0  0  0
    8.1918   13.1638   25.4390 H   0  0  0  0  0  0  0  0  0  0  0  0
   10.1839    8.3004   22.8898 H   0  0  0  0  0  0  0  0  0  0  0  0
    8.5456    8.2921   22.1916 H   0  0  0  0  0  0  0  0  0  0  0  0
    9.8179    9.2374   21.4201 H   0  0  0  0  0  0  0  0  0  0  0  0
    5.6665   11.3457   25.5127 H   0  0  0  0  0  0  0  0  0  0  0  0
    6.5059   10.0301   26.3706 H   0  0  0  0  0  0  0  0  0  0  0  0
    6.8159   11.7049   26.8248 H   0  0  0  0  0  0  0  0  0  0  0  0
    9.5636   14.5215   23.7086 H   0  0  0  0  0  0  0  0  0  0  0  0
   10.9257   13.8132   24.5773 H   0  0  0  0  0  0  0  0  0  0  0  0
   13.6452   14.6025   21.0110 H   0  0  0  0  0  0  0  0  0  0  0  0
   12.2974   13.5750   20.4649 H   0  0  0  0  0  0  0  0  0  0  0  0
   10.9933   12.8693   21.9101 H   0  0  0  0  0  0  0  0  0  0  0  0
    7.6740    8.1761   23.7059 H   0  0  0  0  0  0  0  0  0  0  0  0
  1  3  2  0  0  0  0
  1  4  1  0  0  0  0
  2  3  1  0  0  0  0
  2  5  2  0  0  0  0
  3 10  1  0  0  0  0
  4  6  2  0  0  0  0
  4  8  1  0  0  0  0
  5  6  1  0  0  0  0
  5  9  1  0  0  0  0
  6 14  1  0  0  0  0
  7 11  1  0  0  0  0
  7 12  1  0  0  0  0
  7 13  2  0  0  0  0
 10 12  1  0  0  0  0
 11 15  1  0  0  0  0
  1 16  1  0  0  0  0
  2 17  1  0  0  0  0
  8 18  1  0  0  0  0
  8 19  1  0  0  0  0
  8 20  1  0  0  0  0
  9 21  1  0  0  0  0
  9 22  1  0  0  0  0
  9 23  1  0  0  0  0
 10 24  1  0  0  0  0
 10 25  1  0  0  0  0
 11 26  1  0  0  0  0
 11 27  1  0  0  0  0
 12 28  1  0  0  0  0
 14 29  1  0  0  0  0
M  END
> <Catalog ID>
Z56934819

> <MW>
227.071

> <MW (desalted)>
227.687

> <ClogP>
1.794

> <logS>
-2.19

> <HBD>
2

> <HBA>
2

> <TPSA>
49.33

> <RotBonds>
3

> <ROCS_ShapeQuery>
A71EV2A-x0451_0A_A71EV2A-x0310_0A_A71EV2A-x0416_0A_peptide

> <ROCS_TanimotoCombo>
0.434 

> <ROCS_ShapeTanimoto>
0.296 

> <ROCS_ColorTanimoto>
0.139 

> <ROCS_RefTversky>
0.260 

> <ROCS_RefColorTversky>
0.147 

> <ROCS_RefTverskyCombo>
0.407 

> <ROCS_FitTversky>
1.867 

> <ROCS_FitColorTversky>
0.707 

> <ROCS_FitTverskyCombo>
2.573 

> <ROCS_ColorScore>
-4.476

> <ROCS_Overlap>
1800.393

> <ROCS_Rank>
248                 

$$$$
untitled-dbase-655_13
  -OEChem-11112315393D

 25 25  0     0  0  0  0  0  0999 V2000
    7.1604   10.3642   25.1356 C   0  0  0  0  0  0  0  0  0  0  0  0
    7.9810    9.6063   24.3003 C   0  0  0  0  0  0  0  0  0  0  0  0
    8.3199   12.3711   24.4539 C   0  0  0  0  0  0  0  0  0  0  0  0
    9.1406   11.6133   23.6186 C   0  0  0  0  0  0  0  0  0  0  0  0
    7.3298   11.7466   25.2124 C   0  0  0  0  0  0  0  0  0  0  0  0
    8.9712   10.2308   23.5419 C   0  0  0  0  0  0  0  0  0  0  0  0
   10.7823   13.4359   23.2370 C   0  0  0  0  0  0  0  0  0  0  0  0
    7.1593   12.7260   27.8134 C   0  0  0  0  0  0  0  0  0  0  0  0
   11.7828   13.8641   22.1887 C   0  0  0  0  0  0  0  0  0  0  0  0
   10.1231   12.2699   22.8714 N   0  0  0  0  0  0  0  0  0  0  0  0
   10.6227   14.1109   24.2504 O   0  0  0  0  0  0  0  0  0  0  0  0
    6.2663   14.0549   25.7371 O   0  0  0  0  0  0  0  0  0  0  0  0
    5.0544   11.9728   26.4732 O   0  0  0  0  0  0  0  0  0  0  0  0
    6.3005   12.6951   26.2562 S   0  0  0  0  0  0  0  0  0  0  0  0
    9.9655    9.2543   22.5207 Cl  0  0  0  0  0  0  0  0  0  0  0  0
   11.1804   13.3227   20.6141 Cl  0  0  0  0  0  0  0  0  0  0  0  0
    6.3915    9.8676   25.7212 H   0  0  0  0  0  0  0  0  0  0  0  0
    7.8355    8.5298   24.2519 H   0  0  0  0  0  0  0  0  0  0  0  0
    8.4493   13.4495   24.5154 H   0  0  0  0  0  0  0  0  0  0  0  0
    6.5673   13.3080   28.5216 H   0  0  0  0  0  0  0  0  0  0  0  0
    7.2739   11.6992   28.1639 H   0  0  0  0  0  0  0  0  0  0  0  0
    8.1351   13.1890   27.6593 H   0  0  0  0  0  0  0  0  0  0  0  0
   12.7759   13.4378   22.3521 H   0  0  0  0  0  0  0  0  0  0  0  0
   11.8625   14.9548   22.1853 H   0  0  0  0  0  0  0  0  0  0  0  0
   10.3783   11.8555   21.9783 H   0  0  0  0  0  0  0  0  0  0  0  0
  1  2  2  0  0  0  0
  1  5  1  0  0  0  0
  2  6  1  0  0  0  0
  3  4  1  0  0  0  0
  3  5  2  0  0  0  0
  4  6  2  0  0  0  0
  4 10  1  0  0  0  0
  5 14  1  0  0  0  0
  6 15  1  0  0  0  0
  7  9  1  0  0  0  0
  7 10  1  0  0  0  0
  7 11  2  0  0  0  0
  8 14  1  0  0  0  0
  9 16  1  0  0  0  0
 12 14  2  0  0  0  0
 13 14  2  0  0  0  0
  1 17  1  0  0  0  0
  2 18  1  0  0  0  0
  3 19  1  0  0  0  0
  8 20  1  0  0  0  0
  8 21  1  0  0  0  0
  8 22  1  0  0  0  0
  9 23  1  0  0  0  0
  9 24  1  0  0  0  0
 10 25  1  0  0  0  0
M  END
> <Catalog ID>
Z57044261

> <MW>
280.968

> <MW (desalted)>
282.144

> <ClogP>
0.768

> <logS>
-2.77

> <HBD>
1

> <HBA>
3

> <TPSA>
63.24

> <RotBonds>
3

> <ROCS_ShapeQuery>
A71EV2A-x0451_0A_A71EV2A-x0310_0A_A71EV2A-x0416_0A_peptide

> <ROCS_TanimotoCombo>
0.434 

> <ROCS_ShapeTanimoto>
0.296 

> <ROCS_ColorTanimoto>
0.138 

> <ROCS_RefTversky>
0.261 

> <ROCS_RefColorTversky>
0.146 

> <ROCS_RefTverskyCombo>
0.407 

> <ROCS_FitTversky>
1.832 

> <ROCS_FitColorTversky>
0.701 

> <ROCS_FitTverskyCombo>
2.534 

> <ROCS_ColorScore>
-4.445

> <ROCS_Overlap>
1808.055

> <ROCS_Rank>
249                 

$$$$
untitled-dbase-198_2169
  -OEChem-11112315393D

 29 29  0     1  0  0  0  0  0999 V2000
   10.4189   13.6813   23.3588 C   0  0  0  0  0  0  0  0  0  0  0  0
   12.7342   15.4067   22.6648 C   0  0  0  0  0  0  0  0  0  0  0  0
   10.1018   10.8320   23.3690 C   0  0  0  0  0  0  0  0  0  0  0  0
    9.5018   10.5272   24.7373 C   0  0  0  0  0  0  0  0  0  0  0  0
    7.7296   10.9693   22.7881 C   0  0  0  0  0  0  0  0  0  0  0  0
    9.0772   11.6729   22.5933 C   0  0  1  0  0  0  0  0  0  0  0  0
    9.0375   13.1248   23.0704 C   0  0  0  0  0  0  0  0  0  0  0  0
   14.1959   15.7697   22.6976 C   0  0  0  0  0  0  0  0  0  0  0  0
   11.2314   13.6215   22.2406 N   0  0  0  0  0  0  0  0  0  0  0  0
   12.5200   14.0846   22.3281 N   0  0  0  0  0  0  0  0  0  0  0  0
   10.7518   14.1230   24.4555 O   0  0  0  0  0  0  0  0  0  0  0  0
   11.8547   16.2334   22.9008 O   0  0  0  0  0  0  0  0  0  0  0  0
    7.4838    8.8731   24.3670 O   0  0  0  0  0  0  0  0  0  0  0  0
    7.0167   11.1755   25.3220 O   0  0  0  0  0  0  0  0  0  0  0  0
    7.7565   10.2934   24.4437 S   0  0  0  0  0  0  0  0  0  0  0  0
   14.7920   15.4781   24.3388 Cl  0  0  0  0  0  0  0  0  0  0  0  0
   11.0395   11.3992   23.4936 H   0  0  0  0  0  0  0  0  0  0  0  0
   10.3576    9.9041   22.8348 H   0  0  0  0  0  0  0  0  0  0  0  0
    9.9022    9.5929   25.1417 H   0  0  0  0  0  0  0  0  0  0  0  0
    9.6528   11.3395   25.4513 H   0  0  0  0  0  0  0  0  0  0  0  0
    6.8904   11.6750   22.7312 H   0  0  0  0  0  0  0  0  0  0  0  0
    7.5742   10.1604   22.0649 H   0  0  0  0  0  0  0  0  0  0  0  0
    9.3392   11.6591   21.5294 H   0  0  0  0  0  0  0  0  0  0  0  0
    8.4368   13.1953   23.9844 H   0  0  0  0  0  0  0  0  0  0  0  0
    8.5640   13.7499   22.3047 H   0  0  0  0  0  0  0  0  0  0  0  0
   14.3716   16.8178   22.4417 H   0  0  0  0  0  0  0  0  0  0  0  0
   14.7449   15.1338   21.9979 H   0  0  0  0  0  0  0  0  0  0  0  0
   10.8793   13.2406   21.3684 H   0  0  0  0  0  0  0  0  0  0  0  0
   13.3033   13.4654   22.1482 H   0  0  0  0  0  0  0  0  0  0  0  0
  1  7  1  0  0  0  0
  1  9  1  0  0  0  0
  1 11  2  0  0  0  0
  2  8  1  0  0  0  0
  2 10  1  0  0  0  0
  2 12  2  0  0  0  0
  3  4  1  0  0  0  0
  3  6  1  0  0  0  0
  4 15  1  0  0  0  0
  5  6  1  0  0  0  0
  5 15  1  0  0  0  0
  6  7  1  0  0  0  0
  8 16  1  0  0  0  0
  9 10  1  0  0  0  0
 13 15  2  0  0  0  0
 14 15  2  0  0  0  0
  3 17  1  0  0  0  0
  3 18  1  0  0  0  0
  4 19  1  0  0  0  0
  4 20  1  0  0  0  0
  5 21  1  0  0  0  0
  5 22  1  0  0  0  0
  6 23  1  0  0  0  0
  7 24  1  0  0  0  0
  7 25  1  0  0  0  0
  8 26  1  0  0  0  0
  8 27  1  0  0  0  0
  9 28  1  0  0  0  0
 10 29  1  0  0  0  0
M  END
> <Catalog ID>
Z104343032

> <MW>
268.028

> <MW (desalted)>
268.718

> <ClogP>
-2.743

> <logS>
-1.12

> <HBD>
2

> <HBA>
4

> <TPSA>
92.34

> <RotBonds>
4

> <ROCS_ShapeQuery>
A71EV2A-x0451_0A_A71EV2A-x0310_0A_A71EV2A-x0416_0A_peptide

> <ROCS_TanimotoCombo>
0.434 

> <ROCS_ShapeTanimoto>
0.240 

> <ROCS_ColorTanimoto>
0.194 

> <ROCS_RefTversky>
0.221 

> <ROCS_RefColorTversky>
0.208 

> <ROCS_RefTverskyCombo>
0.428 

> <ROCS_FitTversky>
1.562 

> <ROCS_FitColorTversky>
0.743 

> <ROCS_FitTverskyCombo>
2.306 

> <ROCS_ColorScore>
-6.338

> <ROCS_Overlap>
1528.401

> <ROCS_Rank>
250                 

$$$$
untitled-dbase-362_161
  -OEChem-11112315393D

 29 29  0     0  0  0  0  0  0999 V2000
    8.2365    9.5447   24.0485 C   0  0  0  0  0  0  0  0  0  0  0  0
    7.3604   10.2253   24.8939 C   0  0  0  0  0  0  0  0  0  0  0  0
    9.2115   10.2484   23.3416 C   0  0  0  0  0  0  0  0  0  0  0  0
    8.4344   12.3136   24.3256 C   0  0  0  0  0  0  0  0  0  0  0  0
    7.4594   11.6098   25.0325 C   0  0  0  0  0  0  0  0  0  0  0  0
    9.3105   11.6329   23.4801 C   0  0  0  0  0  0  0  0  0  0  0  0
    6.5455   12.3181   25.9143 C   0  0  0  0  0  0  0  0  0  0  0  0
   10.9040   13.5129   23.1818 C   0  0  0  0  0  0  0  0  0  0  0  0
    5.6499   12.6629   28.2296 C   0  0  0  0  0  0  0  0  0  0  0  0
    7.3813   10.9449   27.8430 C   0  0  0  0  0  0  0  0  0  0  0  0
   11.9128   13.9984   22.1669 C   0  0  0  0  0  0  0  0  0  0  0  0
   10.2861   12.3365   22.7731 N   0  0  0  0  0  0  0  0  0  0  0  0
    6.5252   11.9877   27.2818 N   0  0  0  0  0  0  0  0  0  0  0  0
    5.8363   13.1943   25.4019 O   0  0  0  0  0  0  0  0  0  0  0  0
   10.7029   14.1556   24.2087 O   0  0  0  0  0  0  0  0  0  0  0  0
   11.0706   15.0739   21.0401 Cl  0  0  0  0  0  0  0  0  0  0  0  0
    8.1598    8.4667   23.9407 H   0  0  0  0  0  0  0  0  0  0  0  0
    6.6041    9.6665   25.4388 H   0  0  0  0  0  0  0  0  0  0  0  0
    9.8888    9.7077   22.6849 H   0  0  0  0  0  0  0  0  0  0  0  0
    8.5110   13.3937   24.4328 H   0  0  0  0  0  0  0  0  0  0  0  0
    4.6900   12.1289   28.2876 H   0  0  0  0  0  0  0  0  0  0  0  0
    6.1236   12.6740   29.2223 H   0  0  0  0  0  0  0  0  0  0  0  0
    5.4750   13.6961   27.8952 H   0  0  0  0  0  0  0  0  0  0  0  0
    8.3356   11.3870   28.1651 H   0  0  0  0  0  0  0  0  0  0  0  0
    6.8801   10.4851   28.7075 H   0  0  0  0  0  0  0  0  0  0  0  0
    7.5725   10.1770   27.0789 H   0  0  0  0  0  0  0  0  0  0  0  0
   12.3702   13.1829   21.6011 H   0  0  0  0  0  0  0  0  0  0  0  0
   12.7005   14.5604   22.6766 H   0  0  0  0  0  0  0  0  0  0  0  0
   10.5721   11.9528   21.8744 H   0  0  0  0  0  0  0  0  0  0  0  0
  1  2  2  0  0  0  0
  1  3  1  0  0  0  0
  2  5  1  0  0  0  0
  3  6  2  0  0  0  0
  4  5  2  0  0  0  0
  4  6  1  0  0  0  0
  5  7  1  0  0  0  0
  6 12  1  0  0  0  0
  7 13  1  0  0  0  0
  7 14  2  0  0  0  0
  8 11  1  0  0  0  0
  8 12  1  0  0  0  0
  8 15  2  0  0  0  0
  9 13  1  0  0  0  0
 10 13  1  0  0  0  0
 11 16  1  0  0  0  0
  1 17  1  0  0  0  0
  2 18  1  0  0  0  0
  3 19  1  0  0  0  0
  4 20  1  0  0  0  0
  9 21  1  0  0  0  0
  9 22  1  0  0  0  0
  9 23  1  0  0  0  0
 10 24  1  0  0  0  0
 10 25  1  0  0  0  0
 10 26  1  0  0  0  0
 11 27  1  0  0  0  0
 11 28  1  0  0  0  0
 12 29  1  0  0  0  0
M  END
> <Catalog ID>
Z258588828

> <MW>
240.067

> <MW (desalted)>
240.686

> <ClogP>
0.708

> <logS>
-2.45

> <HBD>
1

> <HBA>
2

> <TPSA>
49.41

> <RotBonds>
3

> <ROCS_ShapeQuery>
A71EV2A-x0451_0A_A71EV2A-x0310_0A_A71EV2A-x0416_0A_peptide

> <ROCS_TanimotoCombo>
0.433 

> <ROCS_ShapeTanimoto>
0.297 

> <ROCS_ColorTanimoto>
0.137 

> <ROCS_RefTversky>
0.262 

> <ROCS_RefColorTversky>
0.142 

> <ROCS_RefTverskyCombo>
0.404 

> <ROCS_FitTversky>
1.790 

> <ROCS_FitColorTversky>
0.798 

> <ROCS_FitTverskyCombo>
2.589 

> <ROCS_ColorScore>
-4.300

> <ROCS_Overlap>
1817.120

> <ROCS_Rank>
251                 

$$$$
untitled-dbase-69_972
  -OEChem-11112315393D

 36 37  0     0  0  0  0  0  0999 V2000
    9.0157   11.0743   23.9627 C   0  0  0  0  0  0  0  0  0  0  0  0
    7.4040   11.7940   25.0416 C   0  0  0  0  0  0  0  0  0  0  0  0
   10.5444   13.5158   23.1695 C   0  0  0  0  0  0  0  0  0  0  0  0
   13.3496   10.8362   22.1960 C   0  0  0  0  0  0  0  0  0  0  0  0
   12.7555    9.5220   21.7085 C   0  0  0  0  0  0  0  0  0  0  0  0
   12.9451   11.2568   23.6039 C   0  0  0  0  0  0  0  0  0  0  0  0
   11.3589    9.6925   21.1199 C   0  0  0  0  0  0  0  0  0  0  0  0
   11.5586   10.8480   24.1075 C   0  0  0  0  0  0  0  0  0  0  0  0
   10.2319    9.8798   22.1347 C   0  0  0  0  0  0  0  0  0  0  0  0
   10.3511   11.0445   23.1538 C   0  0  0  0  0  0  0  0  0  0  0  0
    6.3722   12.5430   25.7716 C   0  0  0  0  0  0  0  0  0  0  0  0
   10.7110   14.7084   22.2628 C   0  0  0  0  0  0  0  0  0  0  0  0
    8.4887   12.2329   24.4547 N   0  0  0  0  0  0  0  0  0  0  0  0
    8.3161    9.9643   24.2160 N   0  0  0  0  0  0  0  0  0  0  0  0
   10.4901   12.3234   22.4770 N   0  0  0  0  0  0  0  0  0  0  0  0
   10.4840   13.6339   24.3921 O   0  0  0  0  0  0  0  0  0  0  0  0
    7.2246   10.4505   24.9466 O   0  0  0  0  0  0  0  0  0  0  0  0
   12.4456   14.9939   22.0518 Cl  0  0  0  0  0  0  0  0  0  0  0  0
   14.4459   10.7874   22.1262 H   0  0  0  0  0  0  0  0  0  0  0  0
   13.0417   11.6262   21.4959 H   0  0  0  0  0  0  0  0  0  0  0  0
   13.4173    9.0700   20.9739 H   0  0  0  0  0  0  0  0  0  0  0  0
   12.6961    8.8413   22.5552 H   0  0  0  0  0  0  0  0  0  0  0  0
   13.6941   10.8044   24.3019 H   0  0  0  0  0  0  0  0  0  0  0  0
   13.1032   12.3590   23.7410 H   0  0  0  0  0  0  0  0  0  0  0  0
   11.3870   10.6020   20.4843 H   0  0  0  0  0  0  0  0  0  0  0  0
   11.1284    8.8673   20.4135 H   0  0  0  0  0  0  0  0  0  0  0  0
   11.6006    9.7927   24.4475 H   0  0  0  0  0  0  0  0  0  0  0  0
   11.3570   11.4040   25.0465 H   0  0  0  0  0  0  0  0  0  0  0  0
    9.2774    9.9733   21.5795 H   0  0  0  0  0  0  0  0  0  0  0  0
   10.1241    8.9311   22.6978 H   0  0  0  0  0  0  0  0  0  0  0  0
    5.5631   12.8778   25.0979 H   0  0  0  0  0  0  0  0  0  0  0  0
    5.9050   11.9424   26.5742 H   0  0  0  0  0  0  0  0  0  0  0  0
    6.7790   13.4428   26.2701 H   0  0  0  0  0  0  0  0  0  0  0  0
   10.2593   14.5548   21.2796 H   0  0  0  0  0  0  0  0  0  0  0  0
   10.2579   15.5867   22.7307 H   0  0  0  0  0  0  0  0  0  0  0  0
   10.5489   12.3399   21.4674 H   0  0  0  0  0  0  0  0  0  0  0  0
  1 10  1  0  0  0  0
  1 13  1  0  0  0  0
  1 14  2  0  0  0  0
  2 11  1  0  0  0  0
  2 13  2  0  0  0  0
  2 17  1  0  0  0  0
  3 12  1  0  0  0  0
  3 15  1  0  0  0  0
  3 16  2  0  0  0  0
  4  5  1  0  0  0  0
  4  6  1  0  0  0  0
  5  7  1  0  0  0  0
  6  8  1  0  0  0  0
  7  9  1  0  0  0  0
  8 10  1  0  0  0  0
  9 10  1  0  0  0  0
 10 15  1  0  0  0  0
 12 18  1  0  0  0  0
 14 17  1  0  0  0  0
  4 19  1  0  0  0  0
  4 20  1  0  0  0  0
  5 21  1  0  0  0  0
  5 22  1  0  0  0  0
  6 23  1  0  0  0  0
  6 24  1  0  0  0  0
  7 25  1  0  0  0  0
  7 26  1  0  0  0  0
  8 27  1  0  0  0  0
  8 28  1  0  0  0  0
  9 29  1  0  0  0  0
  9 30  1  0  0  0  0
 11 31  1  0  0  0  0
 11 32  1  0  0  0  0
 11 33  1  0  0  0  0
 12 34  1  0  0  0  0
 12 35  1  0  0  0  0
 15 36  1  0  0  0  0
M  END
> <Catalog ID>
Z561418018

> <MW>
271.109

> <MW (desalted)>
271.743

> <ClogP>
1.764

> <logS>
-2.691

> <HBD>
1

> <HBA>
3

> <TPSA>
68.02

> <RotBonds>
3

> <ROCS_ShapeQuery>
A71EV2A-x0451_0A_A71EV2A-x0310_0A_A71EV2A-x0416_0A_peptide

> <ROCS_TanimotoCombo>
0.433 

> <ROCS_ShapeTanimoto>
0.287 

> <ROCS_ColorTanimoto>
0.146 

> <ROCS_RefTversky>
0.259 

> <ROCS_RefColorTversky>
0.158 

> <ROCS_RefTverskyCombo>
0.417 

> <ROCS_FitTversky>
1.625 

> <ROCS_FitColorTversky>
0.660 

> <ROCS_FitTverskyCombo>
2.285 

> <ROCS_ColorScore>
-4.812

> <ROCS_Overlap>
1793.488

> <ROCS_Rank>
252                 

$$$$
untitled-dbase-392_30
  -OEChem-11112315393D

 26 26  0     0  0  0  0  0  0999 V2000
    8.9365   12.3199   24.4290 C   0  0  0  0  0  0  0  0  0  0  0  0
    8.4059    9.7192   23.5703 C   0  0  0  0  0  0  0  0  0  0  0  0
    9.8704   11.6392   23.6480 C   0  0  0  0  0  0  0  0  0  0  0  0
    7.4720   10.3999   24.3513 C   0  0  0  0  0  0  0  0  0  0  0  0
    9.6052   10.3388   23.2186 C   0  0  0  0  0  0  0  0  0  0  0  0
    7.7373   11.7002   24.7807 C   0  0  0  0  0  0  0  0  0  0  0  0
   11.5672   15.5073   20.3794 C   0  0  0  0  0  0  0  0  0  0  0  0
   10.5719   15.4330   21.2683 C   0  0  0  0  0  0  0  0  0  0  0  0
   10.7293   14.6284   22.5092 C   0  0  0  0  0  0  0  0  0  0  0  0
   11.1602   12.3092   23.2717 C   0  0  0  0  0  0  0  0  0  0  0  0
    6.1904    9.7350   24.7252 C   0  0  0  0  0  0  0  0  0  0  0  0
   10.9742   13.2944   22.2313 N   0  0  0  0  0  0  0  0  0  0  0  0
   10.6434   15.1198   23.6300 O   0  0  0  0  0  0  0  0  0  0  0  0
   10.4968    9.6767   22.4681 F   0  0  0  0  0  0  0  0  0  0  0  0
    6.8458   12.3623   25.5314 F   0  0  0  0  0  0  0  0  0  0  0  0
    6.0685    8.4661   24.2346 F   0  0  0  0  0  0  0  0  0  0  0  0
    6.0104    9.6141   26.0738 F   0  0  0  0  0  0  0  0  0  0  0  0
    5.0957   10.4106   24.2689 F   0  0  0  0  0  0  0  0  0  0  0  0
    9.1341   13.3332   24.7683 H   0  0  0  0  0  0  0  0  0  0  0  0
    8.2081    8.7059   23.2310 H   0  0  0  0  0  0  0  0  0  0  0  0
   11.4445   16.0954   19.4759 H   0  0  0  0  0  0  0  0  0  0  0  0
   12.5145   14.9981   20.5189 H   0  0  0  0  0  0  0  0  0  0  0  0
    9.6399   15.9584   21.0907 H   0  0  0  0  0  0  0  0  0  0  0  0
   11.6008   12.8134   24.1387 H   0  0  0  0  0  0  0  0  0  0  0  0
   11.8928   11.5783   22.9135 H   0  0  0  0  0  0  0  0  0  0  0  0
   10.9975   12.9707   21.2686 H   0  0  0  0  0  0  0  0  0  0  0  0
  1  3  1  0  0  0  0
  1  6  2  0  0  0  0
  2  4  2  0  0  0  0
  2  5  1  0  0  0  0
  3  5  2  0  0  0  0
  3 10  1  0  0  0  0
  4  6  1  0  0  0  0
  4 11  1  0  0  0  0
  5 14  1  0  0  0  0
  6 15  1  0  0  0  0
  7  8  2  0  0  0  0
  8  9  1  0  0  0  0
  9 12  1  0  0  0  0
  9 13  2  0  0  0  0
 10 12  1  0  0  0  0
 11 16  1  0  0  0  0
 11 17  1  0  0  0  0
 11 18  1  0  0  0  0
  1 19  1  0  0  0  0
  2 20  1  0  0  0  0
  7 21  1  0  0  0  0
  7 22  1  0  0  0  0
  8 23  1  0  0  0  0
 10 24  1  0  0  0  0
 10 25  1  0  0  0  0
 12 26  1  0  0  0  0
M  END
> <Catalog ID>
Z2285378149

> <MW>
265.179

> <MW (desalted)>
265.179

> <ClogP>
2.354

> <logS>
-3.71

> <HBD>
1

> <HBA>
1

> <TPSA>
29.1

> <RotBonds>
4

> <ROCS_ShapeQuery>
A71EV2A-x0451_0A_A71EV2A-x0310_0A_A71EV2A-x0416_0A_peptide

> <ROCS_TanimotoCombo>
0.433 

> <ROCS_ShapeTanimoto>
0.308 

> <ROCS_ColorTanimoto>
0.126 

> <ROCS_RefTversky>
0.273 

> <ROCS_RefColorTversky>
0.132 

> <ROCS_RefTverskyCombo>
0.405 

> <ROCS_FitTversky>
1.687 

> <ROCS_FitColorTversky>
0.741 

> <ROCS_FitTverskyCombo>
2.428 

> <ROCS_ColorScore>
-3.990

> <ROCS_Overlap>
1895.725

> <ROCS_Rank>
253                 

$$$$
untitled-dbase-653_7
  -OEChem-11112315393D

 21 21  0     0  0  0  0  0  0999 V2000
    7.3421   10.2416   24.8451 C   0  0  0  0  0  0  0  0  0  0  0  0
    8.2576    9.5328   24.0673 C   0  0  0  0  0  0  0  0  0  0  0  0
    8.4350   12.3112   24.2455 C   0  0  0  0  0  0  0  0  0  0  0  0
    9.3506   11.6024   23.4677 C   0  0  0  0  0  0  0  0  0  0  0  0
    7.4308   11.6309   24.9342 C   0  0  0  0  0  0  0  0  0  0  0  0
    9.2619   10.2132   23.3786 C   0  0  0  0  0  0  0  0  0  0  0  0
   10.9139   13.5123   23.2011 C   0  0  0  0  0  0  0  0  0  0  0  0
   11.9592   13.9984   22.2241 C   0  0  0  0  0  0  0  0  0  0  0  0
   10.3451   12.3142   22.7901 N   0  0  0  0  0  0  0  0  0  0  0  0
    6.4984   12.3519   25.7261 N   0  3  0  0  0  0  0  0  0  0  0  0
    5.6030   11.7202   26.3374 O   0  5  0  0  0  0  0  0  0  0  0  0
   10.6493   14.1732   24.2017 O   0  0  0  0  0  0  0  0  0  0  0  0
    6.5952   13.6013   25.7927 O   0  0  0  0  0  0  0  0  0  0  0  0
   10.3745    9.2959   22.4272 Cl  0  0  0  0  0  0  0  0  0  0  0  0
   11.4958   13.4326   20.6114 Cl  0  0  0  0  0  0  0  0  0  0  0  0
    6.5643    9.6990   25.3768 H   0  0  0  0  0  0  0  0  0  0  0  0
    8.1746    8.4505   24.0085 H   0  0  0  0  0  0  0  0  0  0  0  0
    8.5047   13.3952   24.3147 H   0  0  0  0  0  0  0  0  0  0  0  0
   12.9602   13.6253   22.4548 H   0  0  0  0  0  0  0  0  0  0  0  0
   11.9800   15.0919   22.2271 H   0  0  0  0  0  0  0  0  0  0  0  0
   10.6826   11.9182   21.9163 H   0  0  0  0  0  0  0  0  0  0  0  0
  1  2  2  0  0  0  0
  1  5  1  0  0  0  0
  2  6  1  0  0  0  0
  3  4  1  0  0  0  0
  3  5  2  0  0  0  0
  4  6  2  0  0  0  0
  4  9  1  0  0  0  0
  5 10  1  0  0  0  0
  6 14  1  0  0  0  0
  7  8  1  0  0  0  0
  7  9  1  0  0  0  0
  7 12  2  0  0  0  0
  8 15  1  0  0  0  0
 10 11  1  0  0  0  0
 10 13  2  0  0  0  0
  1 16  1  0  0  0  0
  2 17  1  0  0  0  0
  3 18  1  0  0  0  0
  8 19  1  0  0  0  0
  8 20  1  0  0  0  0
  9 21  1  0  0  0  0
M  CHG  2  10   1  11  -1
M  END
> <Catalog ID>
Z56891399

> <MW>
247.976

> <MW (desalted)>
249.051

> <ClogP>
2.022

> <logS>
-3.66

> <HBD>
1

> <HBA>
3

> <TPSA>
72.24

> <RotBonds>
3

> <ROCS_ShapeQuery>
A71EV2A-x0451_0A_A71EV2A-x0310_0A_A71EV2A-x0416_0A_peptide

> <ROCS_TanimotoCombo>
0.433 

> <ROCS_ShapeTanimoto>
0.299 

> <ROCS_ColorTanimoto>
0.134 

> <ROCS_RefTversky>
0.263 

> <ROCS_RefColorTversky>
0.143 

> <ROCS_RefTverskyCombo>
0.405 

> <ROCS_FitTversky>
1.865 

> <ROCS_FitColorTversky>
0.682 

> <ROCS_FitTverskyCombo>
2.547 

> <ROCS_ColorScore>
-4.330

> <ROCS_Overlap>
1819.985

> <ROCS_Rank>
254                 

$$$$
untitled-dbase-261_23
  -OEChem-11112315393D

 26 26  0     0  0  0  0  0  0999 V2000
    8.4651   12.2843   24.2596 C   0  0  0  0  0  0  0  0  0  0  0  0
    8.3307    9.5093   24.0068 C   0  0  0  0  0  0  0  0  0  0  0  0
    7.4861   11.5679   24.9481 C   0  0  0  0  0  0  0  0  0  0  0  0
    9.3768   11.6132   23.4446 C   0  0  0  0  0  0  0  0  0  0  0  0
    9.3096   10.2258   23.3183 C   0  0  0  0  0  0  0  0  0  0  0  0
    7.4189   10.1804   24.8217 C   0  0  0  0  0  0  0  0  0  0  0  0
   10.9223   13.5381   23.1816 C   0  0  0  0  0  0  0  0  0  0  0  0
    6.5272   12.3240   25.8099 C   0  0  0  0  0  0  0  0  0  0  0  0
   10.0454    8.1340   22.4586 C   0  0  0  0  0  0  0  0  0  0  0  0
   11.9436   14.0495   22.1922 C   0  0  0  0  0  0  0  0  0  0  0  0
   10.3514   12.3436   22.7605 N   0  0  0  0  0  0  0  0  0  0  0  0
   10.6750   14.1781   24.2000 O   0  0  0  0  0  0  0  0  0  0  0  0
   10.1903    9.5509   22.5266 O   0  0  0  0  0  0  0  0  0  0  0  0
    6.2222    9.2612   25.6597 Cl  0  0  0  0  0  0  0  0  0  0  0  0
   11.4496   13.5113   20.5791 Cl  0  0  0  0  0  0  0  0  0  0  0  0
    8.5153   13.3667   24.3582 H   0  0  0  0  0  0  0  0  0  0  0  0
    8.2863    8.4276   23.9011 H   0  0  0  0  0  0  0  0  0  0  0  0
    5.6464   12.6184   25.2283 H   0  0  0  0  0  0  0  0  0  0  0  0
    6.1980   11.7169   26.6616 H   0  0  0  0  0  0  0  0  0  0  0  0
    6.9935   13.2272   26.2216 H   0  0  0  0  0  0  0  0  0  0  0  0
   10.8085    7.7203   21.7948 H   0  0  0  0  0  0  0  0  0  0  0  0
    9.0488    7.8864   22.0845 H   0  0  0  0  0  0  0  0  0  0  0  0
   10.1709    7.7154   23.4599 H   0  0  0  0  0  0  0  0  0  0  0  0
   12.9517   13.6787   22.3945 H   0  0  0  0  0  0  0  0  0  0  0  0
   11.9578   15.1428   22.2157 H   0  0  0  0  0  0  0  0  0  0  0  0
   10.6727   11.9660   21.8719 H   0  0  0  0  0  0  0  0  0  0  0  0
  1  3  2  0  0  0  0
  1  4  1  0  0  0  0
  2  5  1  0  0  0  0
  2  6  2  0  0  0  0
  3  6  1  0  0  0  0
  3  8  1  0  0  0  0
  4  5  2  0  0  0  0
  4 11  1  0  0  0  0
  5 13  1  0  0  0  0
  6 14  1  0  0  0  0
  7 10  1  0  0  0  0
  7 11  1  0  0  0  0
  7 12  2  0  0  0  0
  9 13  1  0  0  0  0
 10 15  1  0  0  0  0
  1 16  1  0  0  0  0
  2 17  1  0  0  0  0
  8 18  1  0  0  0  0
  8 19  1  0  0  0  0
  8 20  1  0  0  0  0
  9 21  1  0  0  0  0
  9 22  1  0  0  0  0
  9 23  1  0  0  0  0
 10 24  1  0  0  0  0
 10 25  1  0  0  0  0
 11 26  1  0  0  0  0
M  END
> <Catalog ID>
Z56896263

> <MW>
247.017

> <MW (desalted)>
248.106

> <ClogP>
2.669

> <logS>
-3.24

> <HBD>
1

> <HBA>
2

> <TPSA>
38.33

> <RotBonds>
3

> <ROCS_ShapeQuery>
A71EV2A-x0451_0A_A71EV2A-x0310_0A_A71EV2A-x0416_0A_peptide

> <ROCS_TanimotoCombo>
0.433 

> <ROCS_ShapeTanimoto>
0.297 

> <ROCS_ColorTanimoto>
0.136 

> <ROCS_RefTversky>
0.261 

> <ROCS_RefColorTversky>
0.141 

> <ROCS_RefTverskyCombo>
0.402 

> <ROCS_FitTversky>
1.875 

> <ROCS_FitColorTversky>
0.791 

> <ROCS_FitTverskyCombo>
2.667 

> <ROCS_ColorScore>
-4.261

> <ROCS_Overlap>
1808.416

> <ROCS_Rank>
255                 

$$$$
untitled-dbase-415_485
  -OEChem-11112315393D

 23 23  0     0  0  0  0  0  0999 V2000
    6.9370   12.5076   25.3782 C   0  0  0  0  0  0  0  0  0  0  0  0
    8.2064   12.5366   24.7318 C   0  0  0  0  0  0  0  0  0  0  0  0
    6.4744   11.2219   25.5527 C   0  0  0  0  0  0  0  0  0  0  0  0
    8.6659   11.2717   24.4370 C   0  0  0  0  0  0  0  0  0  0  0  0
   11.5274   15.2672   22.1180 C   0  0  0  0  0  0  0  0  0  0  0  0
   10.7304   13.1780   23.1959 C   0  0  0  0  0  0  0  0  0  0  0  0
    9.9492   10.8770   23.7651 C   0  0  0  0  0  0  0  0  0  0  0  0
   11.8747   15.8101   20.7551 C   0  0  0  0  0  0  0  0  0  0  0  0
   11.1302   13.9319   22.0820 N   0  0  0  0  0  0  0  0  0  0  0  0
   10.3964   11.8772   22.8236 N   0  0  0  0  0  0  0  0  0  0  0  0
   11.5826   15.9676   23.1270 O   0  0  0  0  0  0  0  0  0  0  0  0
   10.6816   13.6069   24.3476 O   0  0  0  0  0  0  0  0  0  0  0  0
    7.5686   10.0565   24.9386 S   0  0  0  0  0  0  0  0  0  0  0  0
   13.5906   15.4859   20.4628 Cl  0  0  0  0  0  0  0  0  0  0  0  0
    6.3907   13.3846   25.6999 H   0  0  0  0  0  0  0  0  0  0  0  0
    8.7518   13.4423   24.4984 H   0  0  0  0  0  0  0  0  0  0  0  0
    5.5462   10.9111   26.0110 H   0  0  0  0  0  0  0  0  0  0  0  0
   10.7436   10.7314   24.5053 H   0  0  0  0  0  0  0  0  0  0  0  0
    9.8341    9.9333   23.2216 H   0  0  0  0  0  0  0  0  0  0  0  0
   11.2788   15.2952   19.9966 H   0  0  0  0  0  0  0  0  0  0  0  0
   11.7020   16.8862   20.6737 H   0  0  0  0  0  0  0  0  0  0  0  0
   11.1300   13.4677   21.1781 H   0  0  0  0  0  0  0  0  0  0  0  0
   10.4298   11.6270   21.8404 H   0  0  0  0  0  0  0  0  0  0  0  0
  1  2  1  0  0  0  0
  1  3  2  0  0  0  0
  2  4  2  0  0  0  0
  3 13  1  0  0  0  0
  4  7  1  0  0  0  0
  4 13  1  0  0  0  0
  5  8  1  0  0  0  0
  5  9  1  0  0  0  0
  5 11  2  0  0  0  0
  6  9  1  0  0  0  0
  6 10  1  0  0  0  0
  6 12  2  0  0  0  0
  7 10  1  0  0  0  0
  8 14  1  0  0  0  0
  1 15  1  0  0  0  0
  2 16  1  0  0  0  0
  3 17  1  0  0  0  0
  7 18  1  0  0  0  0
  7 19  1  0  0  0  0
  8 20  1  0  0  0  0
  8 21  1  0  0  0  0
  9 22  1  0  0  0  0
 10 23  1  0  0  0  0
M  END
> <Catalog ID>
Z111875086

> <MW>
232.007

> <MW (desalted)>
232.687

> <ClogP>
1.809

> <logS>
-2.36

> <HBD>
2

> <HBA>
2

> <TPSA>
58.2

> <RotBonds>
3

> <ROCS_ShapeQuery>
A71EV2A-x0451_0A_A71EV2A-x0310_0A_A71EV2A-x0416_0A_peptide

> <ROCS_TanimotoCombo>
0.433 

> <ROCS_ShapeTanimoto>
0.259 

> <ROCS_ColorTanimoto>
0.174 

> <ROCS_RefTversky>
0.233 

> <ROCS_RefColorTversky>
0.179 

> <ROCS_RefTverskyCombo>
0.412 

> <ROCS_FitTversky>
1.772 

> <ROCS_FitColorTversky>
0.857 

> <ROCS_FitTverskyCombo>
2.629 

> <ROCS_ColorScore>
-5.436

> <ROCS_Overlap>
1611.340

> <ROCS_Rank>
256                 

$$$$
untitled-dbase-311_15
  -OEChem-11112315393D

 26 27  0     0  0  0  0  0  0999 V2000
    8.0702   11.4601   24.3648 C   0  0  0  0  0  0  0  0  0  0  0  0
    7.0715    9.7646   25.0899 C   0  0  0  0  0  0  0  0  0  0  0  0
   12.3432   14.3635   21.4894 C   0  0  0  0  0  0  0  0  0  0  0  0
   12.0427   13.5255   22.4838 C   0  0  0  0  0  0  0  0  0  0  0  0
   10.8115   13.7593   23.2667 C   0  0  0  0  0  0  0  0  0  0  0  0
    8.5683   12.8125   24.0060 C   0  0  0  0  0  0  0  0  0  0  0  0
    9.8578   10.2736   23.1041 C   0  0  0  0  0  0  0  0  0  0  0  0
   10.0370   11.5973   22.3690 C   0  0  0  0  0  0  0  0  0  0  0  0
    6.0807    8.9487   25.8009 C   0  0  0  0  0  0  0  0  0  0  0  0
    7.0335   11.1329   25.1067 N   0  0  0  0  0  0  0  0  0  0  0  0
    8.0653    9.2173   24.3844 N   0  0  0  0  0  0  0  0  0  0  0  0
    8.6770   10.3182   23.9309 N   0  0  0  0  0  0  0  0  0  0  0  0
    9.8490   12.7481   23.2688 N   0  0  0  0  0  0  0  0  0  0  0  0
   10.7136   14.8255   23.8758 O   0  0  0  0  0  0  0  0  0  0  0  0
   13.2324   14.2439   20.8797 H   0  0  0  0  0  0  0  0  0  0  0  0
   11.6890   15.1996   21.2659 H   0  0  0  0  0  0  0  0  0  0  0  0
   12.6697   12.6805   22.7366 H   0  0  0  0  0  0  0  0  0  0  0  0
    7.8094   13.3141   23.3999 H   0  0  0  0  0  0  0  0  0  0  0  0
    8.7426   13.4035   24.9114 H   0  0  0  0  0  0  0  0  0  0  0  0
    9.7270    9.4445   22.4004 H   0  0  0  0  0  0  0  0  0  0  0  0
   10.7202   10.0680   23.7461 H   0  0  0  0  0  0  0  0  0  0  0  0
   11.0572   11.6774   21.9728 H   0  0  0  0  0  0  0  0  0  0  0  0
    9.3545   11.6448   21.5145 H   0  0  0  0  0  0  0  0  0  0  0  0
    5.2105    8.7167   25.1598 H   0  0  0  0  0  0  0  0  0  0  0  0
    6.4983    7.9844   26.1482 H   0  0  0  0  0  0  0  0  0  0  0  0
    5.6945    9.4495   26.7092 H   0  0  0  0  0  0  0  0  0  0  0  0
  1  6  1  0  0  0  0
  1 10  2  0  0  0  0
  1 12  1  0  0  0  0
  2  9  1  0  0  0  0
  2 10  1  0  0  0  0
  2 11  2  0  0  0  0
  3  4  2  0  0  0  0
  4  5  1  0  0  0  0
  5 13  1  0  0  0  0
  5 14  2  0  0  0  0
  6 13  1  0  0  0  0
  7  8  1  0  0  0  0
  7 12  1  0  0  0  0
  8 13  1  0  0  0  0
 11 12  1  0  0  0  0
  3 15  1  0  0  0  0
  3 16  1  0  0  0  0
  4 17  1  0  0  0  0
  6 18  1  0  0  0  0
  6 19  1  0  0  0  0
  7 20  1  0  0  0  0
  7 21  1  0  0  0  0
  8 22  1  0  0  0  0
  8 23  1  0  0  0  0
  9 24  1  0  0  0  0
  9 25  1  0  0  0  0
  9 26  1  0  0  0  0
M  END
> <Catalog ID>
Z2737383294

> <MW>
192.218

> <MW (desalted)>
192.218

> <ClogP>
-1.19

> <logS>
-0.66

> <HBD>
0

> <HBA>
3

> <TPSA>
51.02

> <RotBonds>
1

> <ROCS_ShapeQuery>
A71EV2A-x0451_0A_A71EV2A-x0310_0A_A71EV2A-x0416_0A_peptide

> <ROCS_TanimotoCombo>
0.433 

> <ROCS_ShapeTanimoto>
0.280 

> <ROCS_ColorTanimoto>
0.153 

> <ROCS_RefTversky>
0.249 

> <ROCS_RefColorTversky>
0.164 

> <ROCS_RefTverskyCombo>
0.414 

> <ROCS_FitTversky>
1.784 

> <ROCS_FitColorTversky>
0.683 

> <ROCS_FitTverskyCombo>
2.467 

> <ROCS_ColorScore>
-5.000

> <ROCS_Overlap>
1726.468

> <ROCS_Rank>
257                 

$$$$
untitled-dbase-253_349
  -OEChem-11112315393D

 33 34  0     0  0  0  0  0  0999 V2000
    8.3751   12.3367   24.3045 C   0  0  0  0  0  0  0  0  0  0  0  0
    7.3738   11.6643   24.9963 C   0  0  0  0  0  0  0  0  0  0  0  0
    9.1383   10.2417   23.4768 C   0  0  0  0  0  0  0  0  0  0  0  0
    9.2782   11.6193   23.5280 C   0  0  0  0  0  0  0  0  0  0  0  0
    7.3191   10.2847   24.8792 C   0  0  0  0  0  0  0  0  0  0  0  0
   10.9185   13.4523   23.1935 C   0  0  0  0  0  0  0  0  0  0  0  0
    5.0607    9.8622   28.1518 C   0  0  0  0  0  0  0  0  0  0  0  0
    6.4454    9.2312   27.9887 C   0  0  0  0  0  0  0  0  0  0  0  0
    4.7525   10.8373   27.0133 C   0  0  0  0  0  0  0  0  0  0  0  0
    6.6041    8.6154   26.5987 C   0  0  0  0  0  0  0  0  0  0  0  0
    4.9570   10.1836   25.6431 C   0  0  0  0  0  0  0  0  0  0  0  0
   11.9750   13.8648   22.1949 C   0  0  0  0  0  0  0  0  0  0  0  0
    8.1786    9.5535   24.1347 N   0  0  0  0  0  0  0  0  0  0  0  0
    6.3129    9.6262   25.5782 N   0  0  0  0  0  0  0  0  0  0  0  0
   10.2921   12.2656   22.8249 N   0  0  0  0  0  0  0  0  0  0  0  0
   10.6908   14.1528   24.1761 O   0  0  0  0  0  0  0  0  0  0  0  0
   12.0765   15.6325   22.2151 Cl  0  0  0  0  0  0  0  0  0  0  0  0
    8.4429   13.4188   24.3784 H   0  0  0  0  0  0  0  0  0  0  0  0
    6.6636   12.2164   25.6034 H   0  0  0  0  0  0  0  0  0  0  0  0
    9.8133    9.6270   22.8889 H   0  0  0  0  0  0  0  0  0  0  0  0
    4.2955    9.0713   28.1788 H   0  0  0  0  0  0  0  0  0  0  0  0
    5.0040   10.3881   29.1159 H   0  0  0  0  0  0  0  0  0  0  0  0
    7.2152    9.9920   28.1436 H   0  0  0  0  0  0  0  0  0  0  0  0
    6.5885    8.4622   28.7506 H   0  0  0  0  0  0  0  0  0  0  0  0
    3.7187   11.1874   27.1009 H   0  0  0  0  0  0  0  0  0  0  0  0
    5.3979   11.7191   27.0987 H   0  0  0  0  0  0  0  0  0  0  0  0
    7.6275    8.2467   26.4918 H   0  0  0  0  0  0  0  0  0  0  0  0
    5.9220    7.7677   26.4888 H   0  0  0  0  0  0  0  0  0  0  0  0
    4.2193    9.3940   25.4953 H   0  0  0  0  0  0  0  0  0  0  0  0
    4.8164   10.9398   24.8703 H   0  0  0  0  0  0  0  0  0  0  0  0
   11.7474   13.5361   21.1777 H   0  0  0  0  0  0  0  0  0  0  0  0
   12.9409   13.4477   22.4934 H   0  0  0  0  0  0  0  0  0  0  0  0
   10.6047   11.8282   21.9590 H   0  0  0  0  0  0  0  0  0  0  0  0
  1  2  2  0  0  0  0
  1  4  1  0  0  0  0
  2  5  1  0  0  0  0
  3  4  2  0  0  0  0
  3 13  1  0  0  0  0
  4 15  1  0  0  0  0
  5 13  2  0  0  0  0
  5 14  1  0  0  0  0
  6 12  1  0  0  0  0
  6 15  1  0  0  0  0
  6 16  2  0  0  0  0
  7  8  1  0  0  0  0
  7  9  1  0  0  0  0
  8 10  1  0  0  0  0
  9 11  1  0  0  0  0
 10 14  1  0  0  0  0
 11 14  1  0  0  0  0
 12 17  1  0  0  0  0
  1 18  1  0  0  0  0
  2 19  1  0  0  0  0
  3 20  1  0  0  0  0
  7 21  1  0  0  0  0
  7 22  1  0  0  0  0
  8 23  1  0  0  0  0
  8 24  1  0  0  0  0
  9 25  1  0  0  0  0
  9 26  1  0  0  0  0
 10 27  1  0  0  0  0
 10 28  1  0  0  0  0
 11 29  1  0  0  0  0
 11 30  1  0  0  0  0
 12 31  1  0  0  0  0
 12 32  1  0  0  0  0
 15 33  1  0  0  0  0
M  END
> <Catalog ID>
Z258588412

> <MW>
253.098

> <MW (desalted)>
253.728

> <ClogP>
2.492

> <logS>
-2.44

> <HBD>
1

> <HBA>
3

> <TPSA>
45.23

> <RotBonds>
3

> <ROCS_ShapeQuery>
A71EV2A-x0451_0A_A71EV2A-x0310_0A_A71EV2A-x0416_0A_peptide

> <ROCS_TanimotoCombo>
0.432 

> <ROCS_ShapeTanimoto>
0.265 

> <ROCS_ColorTanimoto>
0.167 

> <ROCS_RefTversky>
0.242 

> <ROCS_RefColorTversky>
0.173 

> <ROCS_RefTverskyCombo>
0.415 

> <ROCS_FitTversky>
1.574 

> <ROCS_FitColorTversky>
0.828 

> <ROCS_FitTverskyCombo>
2.402 

> <ROCS_ColorScore>
-5.245

> <ROCS_Overlap>
1676.923

> <ROCS_Rank>
258                 

$$$$
untitled-dbase-583_866
  -OEChem-11112315393D

 40 40  0     0  0  0  0  0  0999 V2000
    6.7473   10.2397   26.2216 C   0  0  0  0  0  0  0  0  0  0  0  0
   10.8023   13.1971   23.3379 C   0  0  0  0  0  0  0  0  0  0  0  0
    8.0168   12.0850   25.0254 C   0  0  0  0  0  0  0  0  0  0  0  0
    8.6873    9.7206   24.7831 C   0  0  0  0  0  0  0  0  0  0  0  0
    8.2731   12.2795   23.5287 C   0  0  0  0  0  0  0  0  0  0  0  0
    8.9240    9.9660   23.2922 C   0  0  0  0  0  0  0  0  0  0  0  0
   11.9434   15.1476   20.3294 C   0  0  0  0  0  0  0  0  0  0  0  0
   10.1836   15.8193   21.9848 C   0  0  0  0  0  0  0  0  0  0  0  0
   12.5684   15.5684   22.7184 C   0  0  0  0  0  0  0  0  0  0  0  0
    5.5201   11.1068   26.3491 C   0  0  0  0  0  0  0  0  0  0  0  0
   10.6302   11.6998   23.3635 C   0  0  0  0  0  0  0  0  0  0  0  0
   11.4794   15.0262   21.7855 C   0  0  0  0  0  0  0  0  0  0  0  0
    7.7343   10.6805   25.3396 N   0  0  0  0  0  0  0  0  0  0  0  0
    9.2672   11.3564   22.9656 N   0  0  0  0  0  0  0  0  0  0  0  0
   11.2345   13.6358   22.0945 N   0  0  0  0  0  0  0  0  0  0  0  0
    6.8238    9.2011   26.8830 O   0  0  0  0  0  0  0  0  0  0  0  0
   10.5800   13.9195   24.3060 O   0  0  0  0  0  0  0  0  0  0  0  0
    5.8319   12.2302   27.6677 Cl  0  0  0  0  0  0  0  0  0  0  0  0
    8.9037   12.3700   25.6060 H   0  0  0  0  0  0  0  0  0  0  0  0
    7.2024   12.7423   25.3383 H   0  0  0  0  0  0  0  0  0  0  0  0
    8.3375    8.6938   24.9372 H   0  0  0  0  0  0  0  0  0  0  0  0
    9.6237    9.8321   25.3450 H   0  0  0  0  0  0  0  0  0  0  0  0
    7.3089   12.1981   22.9805 H   0  0  0  0  0  0  0  0  0  0  0  0
    8.6131   13.3247   23.3751 H   0  0  0  0  0  0  0  0  0  0  0  0
    9.7463    9.2968   22.9638 H   0  0  0  0  0  0  0  0  0  0  0  0
    8.0284    9.6379   22.7200 H   0  0  0  0  0  0  0  0  0  0  0  0
   12.8706   14.5875   20.1611 H   0  0  0  0  0  0  0  0  0  0  0  0
   11.1873   14.7623   19.6364 H   0  0  0  0  0  0  0  0  0  0  0  0
   12.1434   16.1923   20.0644 H   0  0  0  0  0  0  0  0  0  0  0  0
    9.8315   15.7475   23.0205 H   0  0  0  0  0  0  0  0  0  0  0  0
    9.3822   15.4350   21.3431 H   0  0  0  0  0  0  0  0  0  0  0  0
   10.3248   16.8800   21.7494 H   0  0  0  0  0  0  0  0  0  0  0  0
   12.2624   15.4937   23.7683 H   0  0  0  0  0  0  0  0  0  0  0  0
   13.5067   15.0153   22.6000 H   0  0  0  0  0  0  0  0  0  0  0  0
   12.7733   16.6260   22.5152 H   0  0  0  0  0  0  0  0  0  0  0  0
    4.6695   10.4789   26.5884 H   0  0  0  0  0  0  0  0  0  0  0  0
    5.3765   11.6507   25.4226 H   0  0  0  0  0  0  0  0  0  0  0  0
   11.3360   11.2359   22.6682 H   0  0  0  0  0  0  0  0  0  0  0  0
   10.8154   11.3224   24.3733 H   0  0  0  0  0  0  0  0  0  0  0  0
   11.3863   12.9453   21.3651 H   0  0  0  0  0  0  0  0  0  0  0  0
  1 10  1  0  0  0  0
  1 13  1  0  0  0  0
  1 16  2  0  0  0  0
  2 11  1  0  0  0  0
  2 15  1  0  0  0  0
  2 17  2  0  0  0  0
  3  5  1  0  0  0  0
  3 13  1  0  0  0  0
  4  6  1  0  0  0  0
  4 13  1  0  0  0  0
  5 14  1  0  0  0  0
  6 14  1  0  0  0  0
  7 12  1  0  0  0  0
  8 12  1  0  0  0  0
  9 12  1  0  0  0  0
 10 18  1  0  0  0  0
 11 14  1  0  0  0  0
 12 15  1  0  0  0  0
  3 19  1  0  0  0  0
  3 20  1  0  0  0  0
  4 21  1  0  0  0  0
  4 22  1  0  0  0  0
  5 23  1  0  0  0  0
  5 24  1  0  0  0  0
  6 25  1  0  0  0  0
  6 26  1  0  0  0  0
  7 27  1  0  0  0  0
  7 28  1  0  0  0  0
  7 29  1  0  0  0  0
  8 30  1  0  0  0  0
  8 31  1  0  0  0  0
  8 32  1  0  0  0  0
  9 33  1  0  0  0  0
  9 34  1  0  0  0  0
  9 35  1  0  0  0  0
 10 36  1  0  0  0  0
 10 37  1  0  0  0  0
 11 38  1  0  0  0  0
 11 39  1  0  0  0  0
 15 40  1  0  0  0  0
M  END
> <Catalog ID>
Z57982053

> <MW>
311.117

> <MW (desalted)>
275.775

> <ClogP>
0.868

> <logS>
-1.78

> <HBD>
1

> <HBA>
3

> <TPSA>
52.65

> <RotBonds>
4

> <ROCS_ShapeQuery>
A71EV2A-x0451_0A_A71EV2A-x0310_0A_A71EV2A-x0416_0A_peptide

> <ROCS_TanimotoCombo>
0.432 

> <ROCS_ShapeTanimoto>
0.302 

> <ROCS_ColorTanimoto>
0.130 

> <ROCS_RefTversky>
0.268 

> <ROCS_RefColorTversky>
0.142 

> <ROCS_RefTverskyCombo>
0.410 

> <ROCS_FitTversky>
1.722 

> <ROCS_FitColorTversky>
0.595 

> <ROCS_FitTverskyCombo>
2.317 

> <ROCS_ColorScore>
-4.331

> <ROCS_Overlap>
1858.761

> <ROCS_Rank>
259                 

$$$$
untitled-dbase-519_2331
  -OEChem-11112315393D

 39 40  0     0  0  0  0  0  0999 V2000
    9.1475   11.6846   23.3813 C   0  0  0  0  0  0  0  0  0  0  0  0
    8.0600   12.1052   24.1662 C   0  0  0  0  0  0  0  0  0  0  0  0
    9.2687   10.3533   23.6794 C   0  0  0  0  0  0  0  0  0  0  0  0
   15.4482   15.2848   17.9499 C   0  0  0  0  0  0  0  0  0  0  0  0
   14.3004   15.8603   18.3142 C   0  0  0  0  0  0  0  0  0  0  0  0
   14.1834   16.4224   19.6820 C   0  0  0  0  0  0  0  0  0  0  0  0
   10.6555   13.6585   23.1287 C   0  0  0  0  0  0  0  0  0  0  0  0
   13.0059   16.3579   21.8449 C   0  0  0  0  0  0  0  0  0  0  0  0
   12.2769   14.8193   20.0200 C   0  0  0  0  0  0  0  0  0  0  0  0
   12.6038   15.2296   22.7879 C   0  0  0  0  0  0  0  0  0  0  0  0
   11.0494   14.6820   20.9134 C   0  0  0  0  0  0  0  0  0  0  0  0
    7.4715   13.4523   24.2549 C   0  0  0  0  0  0  0  0  0  0  0  0
   10.1779    9.2879   23.2372 C   0  0  0  0  0  0  0  0  0  0  0  0
    9.9829   12.4975   22.4374 C   0  0  0  0  0  0  0  0  0  0  0  0
    7.5460   11.1108   24.8953 N   0  0  0  0  0  0  0  0  0  0  0  0
   13.1859   15.8755   20.4773 N   0  0  0  0  0  0  0  0  0  0  0  0
   11.4213   14.4972   22.3174 N   0  0  0  0  0  0  0  0  0  0  0  0
   14.9843   17.3015   19.9702 O   0  0  0  0  0  0  0  0  0  0  0  0
   10.5108   13.8119   24.3437 O   0  0  0  0  0  0  0  0  0  0  0  0
    8.3184    9.9988   24.5819 O   0  0  0  0  0  0  0  0  0  0  0  0
   15.5941   14.8562   16.9640 H   0  0  0  0  0  0  0  0  0  0  0  0
   16.2768   15.2332   18.6482 H   0  0  0  0  0  0  0  0  0  0  0  0
   13.4521   15.9313   17.6462 H   0  0  0  0  0  0  0  0  0  0  0  0
   12.2421   17.1407   21.9083 H   0  0  0  0  0  0  0  0  0  0  0  0
   13.9586   16.8073   22.1644 H   0  0  0  0  0  0  0  0  0  0  0  0
   12.8526   13.8790   20.0130 H   0  0  0  0  0  0  0  0  0  0  0  0
   11.9607   14.9991   18.9811 H   0  0  0  0  0  0  0  0  0  0  0  0
   13.4530   14.5417   22.9252 H   0  0  0  0  0  0  0  0  0  0  0  0
   12.3607   15.6299   23.7867 H   0  0  0  0  0  0  0  0  0  0  0  0
   10.4322   15.5925   20.8573 H   0  0  0  0  0  0  0  0  0  0  0  0
   10.4261   13.8588   20.5439 H   0  0  0  0  0  0  0  0  0  0  0  0
    6.6679   13.5883   23.5110 H   0  0  0  0  0  0  0  0  0  0  0  0
    7.0395   13.6540   25.2514 H   0  0  0  0  0  0  0  0  0  0  0  0
    8.2202   14.2466   24.0843 H   0  0  0  0  0  0  0  0  0  0  0  0
   11.0720    9.2250   23.8834 H   0  0  0  0  0  0  0  0  0  0  0  0
    9.6957    8.2924   23.2451 H   0  0  0  0  0  0  0  0  0  0  0  0
   10.5316    9.4398   22.2001 H   0  0  0  0  0  0  0  0  0  0  0  0
   10.7519   11.8717   21.9810 H   0  0  0  0  0  0  0  0  0  0  0  0
    9.3745   12.8884   21.6204 H   0  0  0  0  0  0  0  0  0  0  0  0
  1  2  1  0  0  0  0
  1  3  2  0  0  0  0
  1 14  1  0  0  0  0
  2 12  1  0  0  0  0
  2 15  2  0  0  0  0
  3 13  1  0  0  0  0
  3 20  1  0  0  0  0
  4  5  2  0  0  0  0
  5  6  1  0  0  0  0
  6 16  1  0  0  0  0
  6 18  2  0  0  0  0
  7 14  1  0  0  0  0
  7 17  1  0  0  0  0
  7 19  2  0  0  0  0
  8 10  1  0  0  0  0
  8 16  1  0  0  0  0
  9 11  1  0  0  0  0
  9 16  1  0  0  0  0
 10 17  1  0  0  0  0
 11 17  1  0  0  0  0
 15 20  1  0  0  0  0
  4 21  1  0  0  0  0
  4 22  1  0  0  0  0
  5 23  1  0  0  0  0
  8 24  1  0  0  0  0
  8 25  1  0  0  0  0
  9 26  1  0  0  0  0
  9 27  1  0  0  0  0
 10 28  1  0  0  0  0
 10 29  1  0  0  0  0
 11 30  1  0  0  0  0
 11 31  1  0  0  0  0
 12 32  1  0  0  0  0
 12 33  1  0  0  0  0
 12 34  1  0  0  0  0
 13 35  1  0  0  0  0
 13 36  1  0  0  0  0
 13 37  1  0  0  0  0
 14 38  1  0  0  0  0
 14 39  1  0  0  0  0
M  END
> <Catalog ID>
Z2285377434

> <MW>
277.319

> <MW (desalted)>
277.319

> <ClogP>
-0.012

> <logS>
-1.341

> <HBD>
0

> <HBA>
3

> <TPSA>
66.65

> <RotBonds>
3

> <ROCS_ShapeQuery>
A71EV2A-x0451_0A_A71EV2A-x0310_0A_A71EV2A-x0416_0A_peptide

> <ROCS_TanimotoCombo>
0.432 

> <ROCS_ShapeTanimoto>
0.307 

> <ROCS_ColorTanimoto>
0.124 

> <ROCS_RefTversky>
0.276 

> <ROCS_RefColorTversky>
0.137 

> <ROCS_RefTverskyCombo>
0.413 

> <ROCS_FitTversky>
1.590 

> <ROCS_FitColorTversky>
0.573 

> <ROCS_FitTverskyCombo>
2.163 

> <ROCS_ColorScore>
-4.173

> <ROCS_Overlap>
1914.364

> <ROCS_Rank>
260                 

$$$$
untitled-dbase-805_24
  -OEChem-11112315393D

 28 29  0     0  0  0  0  0  0999 V2000
    4.4078   12.5076   28.7720 C   0  0  0  0  0  0  0  0  0  0  0  0
    5.5769   11.8087   29.0730 C   0  0  0  0  0  0  0  0  0  0  0  0
    4.1266   12.8608   27.4522 C   0  0  0  0  0  0  0  0  0  0  0  0
    6.4648   11.4632   28.0542 C   0  0  0  0  0  0  0  0  0  0  0  0
    5.0145   12.5153   26.4334 C   0  0  0  0  0  0  0  0  0  0  0  0
    6.1836   11.8165   26.7344 C   0  0  0  0  0  0  0  0  0  0  0  0
    7.1013   11.4583   25.6810 C   0  0  0  0  0  0  0  0  0  0  0  0
    7.1678   10.3310   24.8893 C   0  0  0  0  0  0  0  0  0  0  0  0
    8.8850   11.4163   24.0626 C   0  0  0  0  0  0  0  0  0  0  0  0
   10.7106   12.9838   23.4522 C   0  0  0  0  0  0  0  0  0  0  0  0
    6.2566    9.1686   24.9468 C   0  0  0  0  0  0  0  0  0  0  0  0
   11.8450   13.0764   22.4582 C   0  0  0  0  0  0  0  0  0  0  0  0
    8.1897   10.3053   23.9604 N   0  0  0  0  0  0  0  0  0  0  0  0
    9.9792   11.7902   23.3285 N   0  0  0  0  0  0  0  0  0  0  0  0
   10.5017   13.9041   24.2380 O   0  0  0  0  0  0  0  0  0  0  0  0
    8.3659   12.5358   25.2552 S   0  0  0  0  0  0  0  0  0  0  0  0
   11.5717   14.5125   21.4589 Cl  0  0  0  0  0  0  0  0  0  0  0  0
    3.7162   12.7760   29.5652 H   0  0  0  0  0  0  0  0  0  0  0  0
    5.7957   11.5340   30.1008 H   0  0  0  0  0  0  0  0  0  0  0  0
    3.2158   13.4040   27.2177 H   0  0  0  0  0  0  0  0  0  0  0  0
    7.3705   10.9161   28.3047 H   0  0  0  0  0  0  0  0  0  0  0  0
    4.7815   12.7988   25.4098 H   0  0  0  0  0  0  0  0  0  0  0  0
    5.3972    9.3064   24.2716 H   0  0  0  0  0  0  0  0  0  0  0  0
    6.7642    8.2329   24.6593 H   0  0  0  0  0  0  0  0  0  0  0  0
    5.8632    9.0037   25.9637 H   0  0  0  0  0  0  0  0  0  0  0  0
   11.9100   12.2008   21.8073 H   0  0  0  0  0  0  0  0  0  0  0  0
   12.7912   13.1890   22.9949 H   0  0  0  0  0  0  0  0  0  0  0  0
   10.2999   11.1263   22.6097 H   0  0  0  0  0  0  0  0  0  0  0  0
  1  2  1  0  0  0  0
  1  3  2  0  0  0  0
  2  4  2  0  0  0  0
  3  5  1  0  0  0  0
  4  6  1  0  0  0  0
  5  6  2  0  0  0  0
  6  7  1  0  0  0  0
  7  8  2  0  0  0  0
  7 16  1  0  0  0  0
  8 11  1  0  0  0  0
  8 13  1  0  0  0  0
  9 13  2  0  0  0  0
  9 14  1  0  0  0  0
  9 16  1  0  0  0  0
 10 12  1  0  0  0  0
 10 14  1  0  0  0  0
 10 15  2  0  0  0  0
 12 17  1  0  0  0  0
  1 18  1  0  0  0  0
  2 19  1  0  0  0  0
  3 20  1  0  0  0  0
  4 21  1  0  0  0  0
  5 22  1  0  0  0  0
 11 23  1  0  0  0  0
 11 24  1  0  0  0  0
 11 25  1  0  0  0  0
 12 26  1  0  0  0  0
 12 27  1  0  0  0  0
 14 28  1  0  0  0  0
M  END
> <Catalog ID>
Z1562127262

> <MW>
266.747

> <MW (desalted)>
266.747

> <ClogP>
3.307

> <logS>
-4.292

> <HBD>
1

> <HBA>
2

> <TPSA>
41.99

> <RotBonds>
3

> <ROCS_ShapeQuery>
A71EV2A-x0451_0A_A71EV2A-x0310_0A_A71EV2A-x0416_0A_peptide

> <ROCS_TanimotoCombo>
0.432 

> <ROCS_ShapeTanimoto>
0.271 

> <ROCS_ColorTanimoto>
0.160 

> <ROCS_RefTversky>
0.246 

> <ROCS_RefColorTversky>
0.167 

> <ROCS_RefTverskyCombo>
0.413 

> <ROCS_FitTversky>
1.611 

> <ROCS_FitColorTversky>
0.800 

> <ROCS_FitTverskyCombo>
2.411 

> <ROCS_ColorScore>
-5.071

> <ROCS_Overlap>
1705.887

> <ROCS_Rank>
261                 

$$$$
untitled-dbase-140_479
  -OEChem-11112315393D

 36 37  0     0  0  0  0  0  0999 V2000
   12.2910   14.8696   21.1752 C   0  0  0  0  0  0  0  0  0  0  0  0
   11.7650   14.9058   22.4782 C   0  0  0  0  0  0  0  0  0  0  0  0
   13.0112   16.0310   21.0823 C   0  0  0  0  0  0  0  0  0  0  0  0
    6.8269   12.8115   26.5427 C   0  0  0  0  0  0  0  0  0  0  0  0
    6.3920   11.5523   26.4618 C   0  0  0  0  0  0  0  0  0  0  0  0
   10.8966   13.8960   23.1364 C   0  0  0  0  0  0  0  0  0  0  0  0
    7.3625   10.4804   26.1633 C   0  0  0  0  0  0  0  0  0  0  0  0
    8.3187   12.2800   23.2092 C   0  0  0  0  0  0  0  0  0  0  0  0
   10.3295   11.0661   24.1031 C   0  0  0  0  0  0  0  0  0  0  0  0
    7.4286   11.1925   23.8050 C   0  0  0  0  0  0  0  0  0  0  0  0
    9.4037   10.0055   24.7023 C   0  0  0  0  0  0  0  0  0  0  0  0
    9.7031   11.7193   22.8666 C   0  0  0  0  0  0  0  0  0  0  0  0
   13.8176   16.6442   20.0197 C   0  0  0  0  0  0  0  0  0  0  0  0
   12.1311   16.0055   23.1426 N   0  0  0  0  0  0  0  0  0  0  0  0
    8.0638   10.5542   24.9618 N   0  0  0  0  0  0  0  0  0  0  0  0
   10.5680   12.7871   22.3707 N   0  0  0  0  0  0  0  0  0  0  0  0
   10.5070   14.0963   24.2839 O   0  0  0  0  0  0  0  0  0  0  0  0
    7.4962    9.5853   26.9996 O   0  0  0  0  0  0  0  0  0  0  0  0
   12.9235   16.7176   22.2502 O   0  0  0  0  0  0  0  0  0  0  0  0
   12.1669   14.1129   20.4145 H   0  0  0  0  0  0  0  0  0  0  0  0
    6.1623   13.6413   26.7590 H   0  0  0  0  0  0  0  0  0  0  0  0
    7.8775   13.0352   26.3906 H   0  0  0  0  0  0  0  0  0  0  0  0
    5.3523   11.2896   26.6077 H   0  0  0  0  0  0  0  0  0  0  0  0
    7.8423   12.6802   22.3063 H   0  0  0  0  0  0  0  0  0  0  0  0
    8.4082   13.1084   23.9238 H   0  0  0  0  0  0  0  0  0  0  0  0
   10.5443   11.8269   24.8648 H   0  0  0  0  0  0  0  0  0  0  0  0
   11.2846   10.5978   23.8360 H   0  0  0  0  0  0  0  0  0  0  0  0
    6.4578   11.6190   24.0772 H   0  0  0  0  0  0  0  0  0  0  0  0
    7.2401   10.4055   23.0646 H   0  0  0  0  0  0  0  0  0  0  0  0
    9.2808    9.1665   24.0076 H   0  0  0  0  0  0  0  0  0  0  0  0
    9.8703    9.6194   25.6092 H   0  0  0  0  0  0  0  0  0  0  0  0
    9.6239   10.9946   22.0613 H   0  0  0  0  0  0  0  0  0  0  0  0
   13.2063   17.3026   19.3760 H   0  0  0  0  0  0  0  0  0  0  0  0
   14.6481   17.2557   20.4202 H   0  0  0  0  0  0  0  0  0  0  0  0
   14.2923   15.8911   19.3627 H   0  0  0  0  0  0  0  0  0  0  0  0
   10.8781   12.7224   21.4054 H   0  0  0  0  0  0  0  0  0  0  0  0
  1  2  1  0  0  0  0
  1  3  2  0  0  0  0
  2  6  1  0  0  0  0
  2 14  2  0  0  0  0
  3 13  1  0  0  0  0
  3 19  1  0  0  0  0
  4  5  2  0  0  0  0
  5  7  1  0  0  0  0
  6 16  1  0  0  0  0
  6 17  2  0  0  0  0
  7 15  1  0  0  0  0
  7 18  2  0  0  0  0
  8 10  1  0  0  0  0
  8 12  1  0  0  0  0
  9 11  1  0  0  0  0
  9 12  1  0  0  0  0
 10 15  1  0  0  0  0
 11 15  1  0  0  0  0
 12 16  1  0  0  0  0
 14 19  1  0  0  0  0
  1 20  1  0  0  0  0
  4 21  1  0  0  0  0
  4 22  1  0  0  0  0
  5 23  1  0  0  0  0
  8 24  1  0  0  0  0
  8 25  1  0  0  0  0
  9 26  1  0  0  0  0
  9 27  1  0  0  0  0
 10 28  1  0  0  0  0
 10 29  1  0  0  0  0
 11 30  1  0  0  0  0
 11 31  1  0  0  0  0
 12 32  1  0  0  0  0
 13 33  1  0  0  0  0
 13 34  1  0  0  0  0
 13 35  1  0  0  0  0
 16 36  1  0  0  0  0
M  END
> <Catalog ID>
Z2285377404

> <MW>
263.292

> <MW (desalted)>
263.292

> <ClogP>
-0.381

> <logS>
-2.259

> <HBD>
1

> <HBA>
3

> <TPSA>
75.44

> <RotBonds>
3

> <ROCS_ShapeQuery>
A71EV2A-x0451_0A_A71EV2A-x0310_0A_A71EV2A-x0416_0A_peptide

> <ROCS_TanimotoCombo>
0.432 

> <ROCS_ShapeTanimoto>
0.276 

> <ROCS_ColorTanimoto>
0.155 

> <ROCS_RefTversky>
0.253 

> <ROCS_RefColorTversky>
0.171 

> <ROCS_RefTverskyCombo>
0.424 

> <ROCS_FitTversky>
1.511 

> <ROCS_FitColorTversky>
0.632 

> <ROCS_FitTverskyCombo>
2.143 

> <ROCS_ColorScore>
-5.209

> <ROCS_Overlap>
1752.536

> <ROCS_Rank>
262                 

$$$$
untitled-dbase-660_673
  -OEChem-11112315393D

 39 40  0     0  0  0  0  0  0999 V2000
   11.5030   15.3109   19.7402 C   0  0  0  0  0  0  0  0  0  0  0  0
   12.8323   15.7095   19.8807 C   0  0  0  0  0  0  0  0  0  0  0  0
   10.8598   14.6470   20.7849 C   0  0  0  0  0  0  0  0  0  0  0  0
   13.5185   15.4439   21.0657 C   0  0  0  0  0  0  0  0  0  0  0  0
   11.5460   14.3815   21.9699 C   0  0  0  0  0  0  0  0  0  0  0  0
   12.8753   14.7800   22.1103 C   0  0  0  0  0  0  0  0  0  0  0  0
   10.8369   13.6722   23.0659 C   0  0  0  0  0  0  0  0  0  0  0  0
    5.9332    9.7316   24.4555 C   0  0  0  0  0  0  0  0  0  0  0  0
    8.3760   12.3399   24.1854 C   0  0  0  0  0  0  0  0  0  0  0  0
    9.2661   10.2443   23.1050 C   0  0  0  0  0  0  0  0  0  0  0  0
    7.5568   11.4703   25.1354 C   0  0  0  0  0  0  0  0  0  0  0  0
    8.4284    9.4158   24.0769 C   0  0  0  0  0  0  0  0  0  0  0  0
    9.6323   11.6051   23.7071 C   0  0  0  0  0  0  0  0  0  0  0  0
   13.6340   14.5080   23.3680 C   0  0  0  0  0  0  0  0  0  0  0  0
    4.8708   10.7958   24.3442 C   0  0  0  0  0  0  0  0  0  0  0  0
    7.2542   10.1726   24.5284 N   0  0  0  0  0  0  0  0  0  0  0  0
   10.3621   12.4083   22.7574 N   0  0  0  0  0  0  0  0  0  0  0  0
   10.6939   14.2326   24.1494 O   0  0  0  0  0  0  0  0  0  0  0  0
    5.5971    8.5448   24.4789 O   0  0  0  0  0  0  0  0  0  0  0  0
    4.3765   11.1877   25.9873 Cl  0  0  0  0  0  0  0  0  0  0  0  0
   10.9680   15.5176   18.8176 H   0  0  0  0  0  0  0  0  0  0  0  0
   13.3326   16.2262   19.0668 H   0  0  0  0  0  0  0  0  0  0  0  0
    9.8240   14.3406   20.6626 H   0  0  0  0  0  0  0  0  0  0  0  0
   14.5538   15.7591   21.1650 H   0  0  0  0  0  0  0  0  0  0  0  0
    7.7630   12.6465   23.3350 H   0  0  0  0  0  0  0  0  0  0  0  0
    8.6749   13.2530   24.7079 H   0  0  0  0  0  0  0  0  0  0  0  0
   10.1855    9.6989   22.8765 H   0  0  0  0  0  0  0  0  0  0  0  0
    8.7299   10.3712   22.1625 H   0  0  0  0  0  0  0  0  0  0  0  0
    8.0959   11.3648   26.0808 H   0  0  0  0  0  0  0  0  0  0  0  0
    6.5976   11.9506   25.3702 H   0  0  0  0  0  0  0  0  0  0  0  0
    8.0620    8.5031   23.5955 H   0  0  0  0  0  0  0  0  0  0  0  0
    9.0446    9.1121   24.9273 H   0  0  0  0  0  0  0  0  0  0  0  0
   10.3086   11.4559   24.5555 H   0  0  0  0  0  0  0  0  0  0  0  0
   13.5163   15.3414   24.0701 H   0  0  0  0  0  0  0  0  0  0  0  0
   13.2810   13.5896   23.8528 H   0  0  0  0  0  0  0  0  0  0  0  0
   14.7031   14.3708   23.1638 H   0  0  0  0  0  0  0  0  0  0  0  0
    4.0305   10.3965   23.7879 H   0  0  0  0  0  0  0  0  0  0  0  0
    5.2976   11.6695   23.8653 H   0  0  0  0  0  0  0  0  0  0  0  0
   10.4627   12.0344   21.8202 H   0  0  0  0  0  0  0  0  0  0  0  0
  1  2  1  0  0  0  0
  1  3  2  0  0  0  0
  2  4  2  0  0  0  0
  3  5  1  0  0  0  0
  4  6  1  0  0  0  0
  5  6  2  0  0  0  0
  5  7  1  0  0  0  0
  6 14  1  0  0  0  0
  7 17  1  0  0  0  0
  7 18  2  0  0  0  0
  8 15  1  0  0  0  0
  8 16  1  0  0  0  0
  8 19  2  0  0  0  0
  9 11  1  0  0  0  0
  9 13  1  0  0  0  0
 10 12  1  0  0  0  0
 10 13  1  0  0  0  0
 11 16  1  0  0  0  0
 12 16  1  0  0  0  0
 13 17  1  0  0  0  0
 15 20  1  0  0  0  0
  1 21  1  0  0  0  0
  2 22  1  0  0  0  0
  3 23  1  0  0  0  0
  4 24  1  0  0  0  0
  9 25  1  0  0  0  0
  9 26  1  0  0  0  0
 10 27  1  0  0  0  0
 10 28  1  0  0  0  0
 11 29  1  0  0  0  0
 11 30  1  0  0  0  0
 12 31  1  0  0  0  0
 12 32  1  0  0  0  0
 13 33  1  0  0  0  0
 14 34  1  0  0  0  0
 14 35  1  0  0  0  0
 14 36  1  0  0  0  0
 15 37  1  0  0  0  0
 15 38  1  0  0  0  0
 17 39  1  0  0  0  0
M  END
> <Catalog ID>
Z567158808

> <MW>
294.114

> <MW (desalted)>
294.777

> <ClogP>
0.291

> <logS>
-3.843

> <HBD>
1

> <HBA>
2

> <TPSA>
49.41

> <RotBonds>
3

> <ROCS_ShapeQuery>
A71EV2A-x0451_0A_A71EV2A-x0310_0A_A71EV2A-x0416_0A_peptide

> <ROCS_TanimotoCombo>
0.431 

> <ROCS_ShapeTanimoto>
0.301 

> <ROCS_ColorTanimoto>
0.130 

> <ROCS_RefTversky>
0.271 

> <ROCS_RefColorTversky>
0.139 

> <ROCS_RefTverskyCombo>
0.410 

> <ROCS_FitTversky>
1.584 

> <ROCS_FitColorTversky>
0.668 

> <ROCS_FitTverskyCombo>
2.253 

> <ROCS_ColorScore>
-4.233

> <ROCS_Overlap>
1880.475

> <ROCS_Rank>
263                 

$$$$
untitled-dbase-632_310
  -OEChem-11112315393D

 30 31  0     1  0  0  0  0  0999 V2000
    6.0659   11.5976   25.8944 C   0  0  0  0  0  0  0  0  0  0  0  0
    6.2370   10.2186   25.9463 C   0  0  0  0  0  0  0  0  0  0  0  0
    6.9511   12.3963   25.1646 C   0  0  0  0  0  0  0  0  0  0  0  0
    7.2940    9.6017   25.2725 C   0  0  0  0  0  0  0  0  0  0  0  0
    8.0277   11.7983   24.4744 C   0  0  0  0  0  0  0  0  0  0  0  0
    8.1794   10.4100   24.5415 C   0  0  0  0  0  0  0  0  0  0  0  0
    9.8301   11.5901   23.2195 C   0  0  0  0  0  0  0  0  0  0  0  0
   11.1445   14.3075   23.0670 C   0  0  0  0  0  0  0  0  0  0  0  0
   12.3421   11.5208   22.9415 C   0  0  0  0  0  0  0  0  0  0  0  0
   10.8989   13.7039   20.6098 C   0  0  0  0  0  0  0  0  0  0  0  0
   11.8403   15.6036   22.7022 C   0  0  0  0  0  0  0  0  0  0  0  0
   11.0065   11.9509   22.3382 C   0  0  2  0  0  0  0  0  0  0  0  0
    8.9808   12.4601   23.7139 N   0  0  0  0  0  0  0  0  0  0  0  0
   11.0184   13.3754   22.0286 N   0  0  0  0  0  0  0  0  0  0  0  0
   10.7232   14.1039   24.2084 O   0  0  0  0  0  0  0  0  0  0  0  0
    9.5605    9.9487   23.6181 S   0  0  0  0  0  0  0  0  0  0  0  0
   13.5941   15.4653   22.9373 Cl  0  0  0  0  0  0  0  0  0  0  0  0
    5.2380   12.0596   26.4251 H   0  0  0  0  0  0  0  0  0  0  0  0
    5.5403    9.6112   26.5182 H   0  0  0  0  0  0  0  0  0  0  0  0
    6.8072   13.4725   25.1301 H   0  0  0  0  0  0  0  0  0  0  0  0
    7.4205    8.5243   25.3166 H   0  0  0  0  0  0  0  0  0  0  0  0
   12.5068   11.9962   23.9146 H   0  0  0  0  0  0  0  0  0  0  0  0
   12.3661   10.4348   23.0861 H   0  0  0  0  0  0  0  0  0  0  0  0
   13.1869   11.7777   22.2926 H   0  0  0  0  0  0  0  0  0  0  0  0
   11.9009   13.7525   20.1584 H   0  0  0  0  0  0  0  0  0  0  0  0
   10.3057   12.9287   20.1027 H   0  0  0  0  0  0  0  0  0  0  0  0
   10.3998   14.6780   20.4999 H   0  0  0  0  0  0  0  0  0  0  0  0
   11.6685   15.8402   21.6492 H   0  0  0  0  0  0  0  0  0  0  0  0
   11.4856   16.4145   23.3433 H   0  0  0  0  0  0  0  0  0  0  0  0
   10.8996   11.4448   21.3709 H   0  0  0  0  0  0  0  0  0  0  0  0
  1  2  1  0  0  0  0
  1  3  2  0  0  0  0
  2  4  2  0  0  0  0
  3  5  1  0  0  0  0
  4  6  1  0  0  0  0
  5  6  2  0  0  0  0
  5 13  1  0  0  0  0
  6 16  1  0  0  0  0
  7 12  1  0  0  0  0
  7 13  2  0  0  0  0
  7 16  1  0  0  0  0
  8 11  1  0  0  0  0
  8 14  1  0  0  0  0
  8 15  2  0  0  0  0
  9 12  1  0  0  0  0
 10 14  1  0  0  0  0
 11 17  1  0  0  0  0
 12 14  1  0  0  0  0
  1 18  1  0  0  0  0
  2 19  1  0  0  0  0
  3 20  1  0  0  0  0
  4 21  1  0  0  0  0
  9 22  1  0  0  0  0
  9 23  1  0  0  0  0
  9 24  1  0  0  0  0
 10 25  1  0  0  0  0
 10 26  1  0  0  0  0
 10 27  1  0  0  0  0
 11 28  1  0  0  0  0
 11 29  1  0  0  0  0
 12 30  1  0  0  0  0
M  END
> <Catalog ID>
Z90662692

> <MW>
268.044

> <MW (desalted)>
268.762

> <ClogP>
1.826

> <logS>
-2.84

> <HBD>
0

> <HBA>
2

> <TPSA>
33.2

> <RotBonds>
3

> <ROCS_ShapeQuery>
A71EV2A-x0451_0A_A71EV2A-x0310_0A_A71EV2A-x0416_0A_peptide

> <ROCS_TanimotoCombo>
0.431 

> <ROCS_ShapeTanimoto>
0.303 

> <ROCS_ColorTanimoto>
0.128 

> <ROCS_RefTversky>
0.268 

> <ROCS_RefColorTversky>
0.134 

> <ROCS_RefTverskyCombo>
0.402 

> <ROCS_FitTversky>
1.760 

> <ROCS_FitColorTversky>
0.751 

> <ROCS_FitTverskyCombo>
2.511 

> <ROCS_ColorScore>
-4.053

> <ROCS_Overlap>
1859.049

> <ROCS_Rank>
264                 

$$$$
untitled-dbase-80_6
  -OEChem-11112315393D

 23 23  0     0  0  0  0  0  0999 V2000
    8.3671    9.4801   23.9765 C   0  0  0  0  0  0  0  0  0  0  0  0
    7.4341   10.1221   24.7906 C   0  0  0  0  0  0  0  0  0  0  0  0
    9.3353   10.2253   23.3034 C   0  0  0  0  0  0  0  0  0  0  0  0
    8.4372   12.2547   24.2584 C   0  0  0  0  0  0  0  0  0  0  0  0
    7.4691   11.5094   24.9315 C   0  0  0  0  0  0  0  0  0  0  0  0
    9.3703   11.6126   23.4444 C   0  0  0  0  0  0  0  0  0  0  0  0
   11.7671   15.2282   21.5586 C   0  0  0  0  0  0  0  0  0  0  0  0
   11.9233   14.0475   22.1656 C   0  0  0  0  0  0  0  0  0  0  0  0
   10.9235   13.5696   23.1644 C   0  0  0  0  0  0  0  0  0  0  0  0
    6.4713   12.1953   25.8020 C   0  0  0  0  0  0  0  0  0  0  0  0
   10.3392   12.3576   22.7715 N   0  0  0  0  0  0  0  0  0  0  0  0
   10.6888   14.2078   24.1837 O   0  0  0  0  0  0  0  0  0  0  0  0
    5.5856   11.3424   26.3971 F   0  0  0  0  0  0  0  0  0  0  0  0
    7.0335   12.8982   26.8295 F   0  0  0  0  0  0  0  0  0  0  0  0
    5.7079   13.0960   25.1171 F   0  0  0  0  0  0  0  0  0  0  0  0
    8.3402    8.3998   23.8670 H   0  0  0  0  0  0  0  0  0  0  0  0
    6.6834    9.5332   25.3103 H   0  0  0  0  0  0  0  0  0  0  0  0
   10.0574    9.7144   22.6715 H   0  0  0  0  0  0  0  0  0  0  0  0
    8.4620   13.3366   24.3693 H   0  0  0  0  0  0  0  0  0  0  0  0
   12.4724   15.6081   20.8280 H   0  0  0  0  0  0  0  0  0  0  0  0
   10.9075   15.8481   21.7912 H   0  0  0  0  0  0  0  0  0  0  0  0
   12.7821   13.4271   21.9334 H   0  0  0  0  0  0  0  0  0  0  0  0
   10.6646   11.9700   21.8776 H   0  0  0  0  0  0  0  0  0  0  0  0
  1  2  2  0  0  0  0
  1  3  1  0  0  0  0
  2  5  1  0  0  0  0
  3  6  2  0  0  0  0
  4  5  2  0  0  0  0
  4  6  1  0  0  0  0
  5 10  1  0  0  0  0
  6 11  1  0  0  0  0
  7  8  2  0  0  0  0
  8  9  1  0  0  0  0
  9 11  1  0  0  0  0
  9 12  2  0  0  0  0
 10 13  1  0  0  0  0
 10 14  1  0  0  0  0
 10 15  1  0  0  0  0
  1 16  1  0  0  0  0
  2 17  1  0  0  0  0
  3 18  1  0  0  0  0
  4 19  1  0  0  0  0
  7 20  1  0  0  0  0
  7 21  1  0  0  0  0
  8 22  1  0  0  0  0
 11 23  1  0  0  0  0
M  END
> <Catalog ID>
Z440633868

> <MW>
215.056

> <MW (desalted)>
215.172

> <ClogP>
2.75

> <logS>
-3.31

> <HBD>
1

> <HBA>
1

> <TPSA>
29.1

> <RotBonds>
3

> <ROCS_ShapeQuery>
A71EV2A-x0451_0A_A71EV2A-x0310_0A_A71EV2A-x0416_0A_peptide

> <ROCS_TanimotoCombo>
0.431 

> <ROCS_ShapeTanimoto>
0.297 

> <ROCS_ColorTanimoto>
0.134 

> <ROCS_RefTversky>
0.262 

> <ROCS_RefColorTversky>
0.139 

> <ROCS_RefTverskyCombo>
0.401 

> <ROCS_FitTversky>
1.825 

> <ROCS_FitColorTversky>
0.785 

> <ROCS_FitTverskyCombo>
2.610 

> <ROCS_ColorScore>
-4.229

> <ROCS_Overlap>
1813.708

> <ROCS_Rank>
265                 

$$$$
untitled-dbase-701_33
  -OEChem-11112315393D

 35 37  0     1  0  0  0  0  0999 V2000
    6.3122   10.4176   26.0584 C   0  0  0  0  0  0  0  0  0  0  0  0
    6.2431   11.8089   26.0537 C   0  0  0  0  0  0  0  0  0  0  0  0
    7.2858    9.7648   25.3018 C   0  0  0  0  0  0  0  0  0  0  0  0
    7.1517   12.5488   25.2986 C   0  0  0  0  0  0  0  0  0  0  0  0
    8.1963   10.4988   24.5302 C   0  0  0  0  0  0  0  0  0  0  0  0
    8.1340   11.8974   24.5480 C   0  0  0  0  0  0  0  0  0  0  0  0
   11.1865   15.4850   20.1369 C   0  0  0  0  0  0  0  0  0  0  0  0
   12.1996   15.1507   20.9389 C   0  0  0  0  0  0  0  0  0  0  0  0
   11.9847   15.1570   22.3996 C   0  0  0  0  0  0  0  0  0  0  0  0
    9.2411    9.7840   23.7250 C   0  0  0  0  0  0  0  0  0  0  0  0
    9.8169   10.7153   22.6672 C   0  0  0  0  0  0  0  0  0  0  0  0
   11.2861   12.0511   24.3152 C   0  0  0  0  0  0  0  0  0  0  0  0
   11.8071   13.4836   24.3131 C   0  0  0  0  0  0  0  0  0  0  0  0
   10.7071   13.0407   22.2197 C   0  0  0  0  0  0  0  0  0  0  0  0
   10.1507   12.0775   23.2768 C   0  0  1  0  0  0  0  0  0  0  0  0
   11.5415   13.9769   22.9655 N   0  0  0  0  0  0  0  0  0  0  0  0
   12.2109   16.1912   23.0270 O   0  0  0  0  0  0  0  0  0  0  0  0
    8.9843   12.7065   23.8408 O   0  0  0  0  0  0  0  0  0  0  0  0
    5.6092    9.8410   26.6527 H   0  0  0  0  0  0  0  0  0  0  0  0
    5.4796   12.3166   26.6356 H   0  0  0  0  0  0  0  0  0  0  0  0
    7.3341    8.6788   25.3211 H   0  0  0  0  0  0  0  0  0  0  0  0
    7.0841   13.6336   25.2935 H   0  0  0  0  0  0  0  0  0  0  0  0
   11.2831   15.4990   19.0564 H   0  0  0  0  0  0  0  0  0  0  0  0
   10.2244   15.7552   20.5592 H   0  0  0  0  0  0  0  0  0  0  0  0
   13.1733   14.8750   20.5555 H   0  0  0  0  0  0  0  0  0  0  0  0
   10.0508    9.4324   24.3749 H   0  0  0  0  0  0  0  0  0  0  0  0
    8.7858    8.9062   23.2510 H   0  0  0  0  0  0  0  0  0  0  0  0
   10.7363   10.2667   22.2661 H   0  0  0  0  0  0  0  0  0  0  0  0
    9.1128   10.8101   21.8322 H   0  0  0  0  0  0  0  0  0  0  0  0
   12.0881   11.3701   24.0049 H   0  0  0  0  0  0  0  0  0  0  0  0
   10.9404   11.7612   25.3129 H   0  0  0  0  0  0  0  0  0  0  0  0
   11.2513   14.1163   25.0133 H   0  0  0  0  0  0  0  0  0  0  0  0
   12.8730   13.5509   24.5493 H   0  0  0  0  0  0  0  0  0  0  0  0
   11.3569   12.5318   21.4978 H   0  0  0  0  0  0  0  0  0  0  0  0
    9.9276   13.5931   21.6846 H   0  0  0  0  0  0  0  0  0  0  0  0
  1  2  1  0  0  0  0
  1  3  2  0  0  0  0
  2  4  2  0  0  0  0
  3  5  1  0  0  0  0
  4  6  1  0  0  0  0
  5  6  2  0  0  0  0
  5 10  1  0  0  0  0
  6 18  1  0  0  0  0
  7  8  2  0  0  0  0
  8  9  1  0  0  0  0
  9 16  1  0  0  0  0
  9 17  2  0  0  0  0
 10 11  1  0  0  0  0
 11 15  1  0  0  0  0
 12 13  1  0  0  0  0
 12 15  1  0  0  0  0
 13 16  1  0  0  0  0
 14 15  1  0  0  0  0
 14 16  1  0  0  0  0
 15 18  1  0  0  0  0
  1 19  1  0  0  0  0
  2 20  1  0  0  0  0
  3 21  1  0  0  0  0
  4 22  1  0  0  0  0
  7 23  1  0  0  0  0
  7 24  1  0  0  0  0
  8 25  1  0  0  0  0
 10 26  1  0  0  0  0
 10 27  1  0  0  0  0
 11 28  1  0  0  0  0
 11 29  1  0  0  0  0
 12 30  1  0  0  0  0
 12 31  1  0  0  0  0
 13 32  1  0  0  0  0
 13 33  1  0  0  0  0
 14 34  1  0  0  0  0
 14 35  1  0  0  0  0
M  END
> <Catalog ID>
Z2285378174

> <MW>
243.301

> <MW (desalted)>
243.301

> <ClogP>
2.191

> <logS>
-3.68

> <HBD>
0

> <HBA>
2

> <TPSA>
29.54

> <RotBonds>
1

> <ROCS_ShapeQuery>
A71EV2A-x0451_0A_A71EV2A-x0310_0A_A71EV2A-x0416_0A_peptide

> <ROCS_TanimotoCombo>
0.431 

> <ROCS_ShapeTanimoto>
0.332 

> <ROCS_ColorTanimoto>
0.099 

> <ROCS_RefTversky>
0.290 

> <ROCS_RefColorTversky>
0.112 

> <ROCS_RefTverskyCombo>
0.402 

> <ROCS_FitTversky>
1.764 

> <ROCS_FitColorTversky>
0.466 

> <ROCS_FitTverskyCombo>
2.230 

> <ROCS_ColorScore>
-3.399

> <ROCS_Overlap>
2013.995

> <ROCS_Rank>
266                 

$$$$
untitled-dbase-263_17
  -OEChem-11112315393D

 29 29  0     0  0  0  0  0  0999 V2000
    7.6995   11.1646   24.6092 C   0  0  0  0  0  0  0  0  0  0  0  0
    8.6061   12.0727   24.0626 C   0  0  0  0  0  0  0  0  0  0  0  0
    8.7480    9.3734   23.3726 C   0  0  0  0  0  0  0  0  0  0  0  0
    9.6546   10.2816   22.8259 C   0  0  0  0  0  0  0  0  0  0  0  0
    7.7704    9.8149   24.2642 C   0  0  0  0  0  0  0  0  0  0  0  0
    9.5837   11.6313   23.1709 C   0  0  0  0  0  0  0  0  0  0  0  0
    5.8262    9.1599   25.7187 C   0  0  0  0  0  0  0  0  0  0  0  0
   10.9285   13.7162   23.2564 C   0  0  0  0  0  0  0  0  0  0  0  0
    5.0714    7.9025   26.0702 C   0  0  0  0  0  0  0  0  0  0  0  0
   11.8988   14.4801   22.3856 C   0  0  0  0  0  0  0  0  0  0  0  0
   10.6928    9.7807   21.8750 C   0  0  0  0  0  0  0  0  0  0  0  0
    6.8651    8.9063   24.8132 N   0  0  0  0  0  0  0  0  0  0  0  0
   10.4837   12.5560   22.6354 N   0  0  0  0  0  0  0  0  0  0  0  0
    5.5079   10.2403   26.2049 O   0  0  0  0  0  0  0  0  0  0  0  0
   10.6118   14.1542   24.3591 O   0  0  0  0  0  0  0  0  0  0  0  0
   10.6216    8.4365   21.6494 F   0  0  0  0  0  0  0  0  0  0  0  0
   10.6213   10.3559   20.6394 F   0  0  0  0  0  0  0  0  0  0  0  0
   11.9618   10.0135   22.3171 F   0  0  0  0  0  0  0  0  0  0  0  0
   11.4711   14.1657   20.6962 Cl  0  0  0  0  0  0  0  0  0  0  0  0
    6.9427   11.5198   25.3043 H   0  0  0  0  0  0  0  0  0  0  0  0
    8.5411   13.1220   24.3393 H   0  0  0  0  0  0  0  0  0  0  0  0
    8.8028    8.3211   23.1022 H   0  0  0  0  0  0  0  0  0  0  0  0
    5.5298    7.4270   26.9419 H   0  0  0  0  0  0  0  0  0  0  0  0
    5.1023    7.2047   25.2286 H   0  0  0  0  0  0  0  0  0  0  0  0
    4.0273    8.1433   26.2911 H   0  0  0  0  0  0  0  0  0  0  0  0
   12.9379   14.1826   22.5477 H   0  0  0  0  0  0  0  0  0  0  0  0
   11.8023   15.5510   22.5856 H   0  0  0  0  0  0  0  0  0  0  0  0
    6.9673    7.9276   24.5204 H   0  0  0  0  0  0  0  0  0  0  0  0
   10.8467   12.3618   21.7050 H   0  0  0  0  0  0  0  0  0  0  0  0
  1  2  2  0  0  0  0
  1  5  1  0  0  0  0
  2  6  1  0  0  0  0
  3  4  1  0  0  0  0
  3  5  2  0  0  0  0
  4  6  2  0  0  0  0
  4 11  1  0  0  0  0
  5 12  1  0  0  0  0
  6 13  1  0  0  0  0
  7  9  1  0  0  0  0
  7 12  1  0  0  0  0
  7 14  2  0  0  0  0
  8 10  1  0  0  0  0
  8 13  1  0  0  0  0
  8 15  2  0  0  0  0
 10 19  1  0  0  0  0
 11 16  1  0  0  0  0
 11 17  1  0  0  0  0
 11 18  1  0  0  0  0
  1 20  1  0  0  0  0
  2 21  1  0  0  0  0
  3 22  1  0  0  0  0
  9 23  1  0  0  0  0
  9 24  1  0  0  0  0
  9 25  1  0  0  0  0
 10 26  1  0  0  0  0
 10 27  1  0  0  0  0
 12 28  1  0  0  0  0
 13 29  1  0  0  0  0
M  END
> <Catalog ID>
Z258588520

> <MW>
294.038

> <MW (desalted)>
294.658

> <ClogP>
0.812

> <logS>
-3.363

> <HBD>
2

> <HBA>
2

> <TPSA>
58.2

> <RotBonds>
4

> <ROCS_ShapeQuery>
A71EV2A-x0451_0A_A71EV2A-x0310_0A_A71EV2A-x0416_0A_peptide

> <ROCS_TanimotoCombo>
0.431 

> <ROCS_ShapeTanimoto>
0.275 

> <ROCS_ColorTanimoto>
0.156 

> <ROCS_RefTversky>
0.252 

> <ROCS_RefColorTversky>
0.163 

> <ROCS_RefTverskyCombo>
0.415 

> <ROCS_FitTversky>
1.511 

> <ROCS_FitColorTversky>
0.780 

> <ROCS_FitTverskyCombo>
2.291 

> <ROCS_ColorScore>
-4.943

> <ROCS_Overlap>
1748.225

> <ROCS_Rank>
267                 

$$$$
untitled-dbase-926_471
  -OEChem-11112315393D

 33 34  0     1  0  0  0  0  0999 V2000
    5.7335   12.7308   26.0613 C   0  0  0  0  0  0  0  0  0  0  0  0
    5.6802   11.3419   25.8382 C   0  0  0  0  0  0  0  0  0  0  0  0
    6.9897   13.0976   25.6440 C   0  0  0  0  0  0  0  0  0  0  0  0
   12.5400   13.9480   21.3503 C   0  0  0  0  0  0  0  0  0  0  0  0
   12.4279   13.6786   22.6546 C   0  0  0  0  0  0  0  0  0  0  0  0
   11.0867   13.5306   23.2801 C   0  0  0  0  0  0  0  0  0  0  0  0
    9.8760    9.5408   23.7671 C   0  0  0  0  0  0  0  0  0  0  0  0
    8.7251    9.6196   22.7779 C   0  0  0  0  0  0  0  0  0  0  0  0
    9.7346   10.4966   24.9556 C   0  0  0  0  0  0  0  0  0  0  0  0
    8.4471   11.0344   22.2699 C   0  0  0  0  0  0  0  0  0  0  0  0
    9.0032   11.8241   24.6468 C   0  0  1  0  0  0  0  0  0  0  0  0
    9.0203   12.1618   23.1394 C   0  0  1  0  0  0  0  0  0  0  0  0
    6.8123   10.8591   25.3192 N   0  0  0  0  0  0  0  0  0  0  0  0
    7.5888   11.9508   25.2128 N   0  0  0  0  0  0  0  0  0  0  0  0
   10.3607   12.5022   22.7048 N   0  0  0  0  0  0  0  0  0  0  0  0
   10.7009   14.2531   24.1935 O   0  0  0  0  0  0  0  0  0  0  0  0
    4.9684   13.3753   26.4679 H   0  0  0  0  0  0  0  0  0  0  0  0
    4.8623   10.6629   26.0322 H   0  0  0  0  0  0  0  0  0  0  0  0
    7.4939   14.0538   25.6195 H   0  0  0  0  0  0  0  0  0  0  0  0
   13.5219   14.0556   20.9013 H   0  0  0  0  0  0  0  0  0  0  0  0
   11.6789   14.0665   20.7020 H   0  0  0  0  0  0  0  0  0  0  0  0
   13.3153   13.5670   23.2681 H   0  0  0  0  0  0  0  0  0  0  0  0
    9.9702    8.5052   24.1439 H   0  0  0  0  0  0  0  0  0  0  0  0
   10.8280    9.7543   23.2440 H   0  0  0  0  0  0  0  0  0  0  0  0
    8.9328    8.9583   21.9163 H   0  0  0  0  0  0  0  0  0  0  0  0
    7.8074    9.2165   23.2474 H   0  0  0  0  0  0  0  0  0  0  0  0
    9.2091    9.9686   25.7811 H   0  0  0  0  0  0  0  0  0  0  0  0
   10.7440   10.7165   25.3639 H   0  0  0  0  0  0  0  0  0  0  0  0
    8.8460   11.1236   21.2359 H   0  0  0  0  0  0  0  0  0  0  0  0
    7.3486   11.1649   22.1680 H   0  0  0  0  0  0  0  0  0  0  0  0
    9.5475   12.6645   25.1901 H   0  0  0  0  0  0  0  0  0  0  0  0
    8.4248   13.0809   22.9708 H   0  0  0  0  0  0  0  0  0  0  0  0
   10.7502   11.9748   21.9291 H   0  0  0  0  0  0  0  0  0  0  0  0
  1  2  1  0  0  0  0
  1  3  2  0  0  0  0
  2 13  2  0  0  0  0
  3 14  1  0  0  0  0
  4  5  2  0  0  0  0
  5  6  1  0  0  0  0
  6 15  1  0  0  0  0
  6 16  2  0  0  0  0
  7  8  1  0  0  0  0
  7  9  1  0  0  0  0
  8 10  1  0  0  0  0
  9 11  1  0  0  0  0
 10 12  1  0  0  0  0
 11 12  1  0  0  0  0
 11 14  1  0  0  0  0
 12 15  1  0  0  0  0
 13 14  1  0  0  0  0
  1 17  1  0  0  0  0
  2 18  1  0  0  0  0
  3 19  1  0  0  0  0
  4 20  1  0  0  0  0
  4 21  1  0  0  0  0
  5 22  1  0  0  0  0
  7 23  1  0  0  0  0
  7 24  1  0  0  0  0
  8 25  1  0  0  0  0
  8 26  1  0  0  0  0
  9 27  1  0  0  0  0
  9 28  1  0  0  0  0
 10 29  1  0  0  0  0
 10 30  1  0  0  0  0
 11 31  1  0  0  0  0
 12 32  1  0  0  0  0
 15 33  1  0  0  0  0
M  END
> <Catalog ID>
Z2285377660

> <MW>
219.283

> <MW (desalted)>
219.283

> <ClogP>
1.29

> <logS>
-1.8

> <HBD>
1

> <HBA>
2

> <TPSA>
46.92

> <RotBonds>
3

> <ROCS_ShapeQuery>
A71EV2A-x0451_0A_A71EV2A-x0310_0A_A71EV2A-x0416_0A_peptide

> <ROCS_TanimotoCombo>
0.431 

> <ROCS_ShapeTanimoto>
0.281 

> <ROCS_ColorTanimoto>
0.150 

> <ROCS_RefTversky>
0.252 

> <ROCS_RefColorTversky>
0.161 

> <ROCS_RefTverskyCombo>
0.413 

> <ROCS_FitTversky>
1.701 

> <ROCS_FitColorTversky>
0.674 

> <ROCS_FitTverskyCombo>
2.375 

> <ROCS_ColorScore>
-4.911

> <ROCS_Overlap>
1745.731

> <ROCS_Rank>
268                 

$$$$
untitled-dbase-712_987
  -OEChem-11112315393D

 34 35  0     0  0  0  0  0  0999 V2000
    8.6883    9.7562   23.4116 C   0  0  0  0  0  0  0  0  0  0  0  0
    9.6383   10.7317   23.1092 C   0  0  0  0  0  0  0  0  0  0  0  0
    8.5501   12.2626   24.6288 C   0  0  0  0  0  0  0  0  0  0  0  0
    7.6691   10.0339   24.3226 C   0  0  0  0  0  0  0  0  0  0  0  0
    7.6001   11.2871   24.9312 C   0  0  0  0  0  0  0  0  0  0  0  0
    9.5693   11.9848   23.7178 C   0  0  0  0  0  0  0  0  0  0  0  0
   15.4737   12.1864   26.5965 C   0  0  0  0  0  0  0  0  0  0  0  0
   13.1815   11.4407   26.0354 C   0  0  0  0  0  0  0  0  0  0  0  0
   14.6010   12.2903   24.2092 C   0  0  0  0  0  0  0  0  0  0  0  0
   12.0319   12.3220   25.5602 C   0  0  0  0  0  0  0  0  0  0  0  0
   13.4543   13.1729   23.7255 C   0  0  0  0  0  0  0  0  0  0  0  0
   15.4910   11.2103   27.7455 C   0  0  0  0  0  0  0  0  0  0  0  0
   14.4714   12.0107   25.6440 N   0  0  0  0  0  0  0  0  0  0  0  0
   12.1504   12.5386   24.0866 N   0  0  0  0  0  0  0  0  0  0  0  0
   16.3274   13.0755   26.5471 O   0  0  0  0  0  0  0  0  0  0  0  0
   10.9663   13.2150   21.8989 O   0  0  0  0  0  0  0  0  0  0  0  0
   10.4042   14.4320   24.0322 O   0  0  0  0  0  0  0  0  0  0  0  0
    6.7564    9.0976   24.6135 F   0  0  0  0  0  0  0  0  0  0  0  0
    6.6205   11.5544   25.8047 F   0  0  0  0  0  0  0  0  0  0  0  0
   10.7706   13.2195   23.3326 S   0  0  0  0  0  0  0  0  0  0  0  0
   14.5108   11.9195   29.0239 Cl  0  0  0  0  0  0  0  0  0  0  0  0
    8.7420    8.7799   22.9390 H   0  0  0  0  0  0  0  0  0  0  0  0
   10.4277   10.5048   22.3976 H   0  0  0  0  0  0  0  0  0  0  0  0
    8.4861   13.2353   25.1089 H   0  0  0  0  0  0  0  0  0  0  0  0
   13.1827   11.3734   27.1312 H   0  0  0  0  0  0  0  0  0  0  0  0
   13.0449   10.4275   25.6499 H   0  0  0  0  0  0  0  0  0  0  0  0
   14.6262   11.3625   23.6317 H   0  0  0  0  0  0  0  0  0  0  0  0
   15.5620   12.7971   24.0678 H   0  0  0  0  0  0  0  0  0  0  0  0
   11.0659   11.8595   25.7915 H   0  0  0  0  0  0  0  0  0  0  0  0
   12.0876   13.2880   26.0728 H   0  0  0  0  0  0  0  0  0  0  0  0
   13.5283   14.1516   24.2127 H   0  0  0  0  0  0  0  0  0  0  0  0
   13.5082   13.3204   22.6402 H   0  0  0  0  0  0  0  0  0  0  0  0
   16.5127   11.0857   28.0857 H   0  0  0  0  0  0  0  0  0  0  0  0
   15.0545   10.2738   27.4177 H   0  0  0  0  0  0  0  0  0  0  0  0
  1  2  2  0  0  0  0
  1  4  1  0  0  0  0
  2  6  1  0  0  0  0
  3  5  1  0  0  0  0
  3  6  2  0  0  0  0
  4  5  2  0  0  0  0
  4 18  1  0  0  0  0
  5 19  1  0  0  0  0
  6 20  1  0  0  0  0
  7 12  1  0  0  0  0
  7 13  1  0  0  0  0
  7 15  2  0  0  0  0
  8 10  1  0  0  0  0
  8 13  1  0  0  0  0
  9 11  1  0  0  0  0
  9 13  1  0  0  0  0
 10 14  1  0  0  0  0
 11 14  1  0  0  0  0
 12 21  1  0  0  0  0
 14 20  1  0  0  0  0
 16 20  2  0  0  0  0
 17 20  2  0  0  0  0
  1 22  1  0  0  0  0
  2 23  1  0  0  0  0
  3 24  1  0  0  0  0
  8 25  1  0  0  0  0
  8 26  1  0  0  0  0
  9 27  1  0  0  0  0
  9 28  1  0  0  0  0
 10 29  1  0  0  0  0
 10 30  1  0  0  0  0
 11 31  1  0  0  0  0
 11 32  1  0  0  0  0
 12 33  1  0  0  0  0
 12 34  1  0  0  0  0
M  END
> <Catalog ID>
Z147647376

> <MW>
338.03

> <MW (desalted)>
338.758

> <ClogP>
1.693

> <logS>
-3.33

> <HBD>
0

> <HBA>
3

> <TPSA>
57.69

> <RotBonds>
2

> <ROCS_ShapeQuery>
A71EV2A-x0451_0A_A71EV2A-x0310_0A_A71EV2A-x0416_0A_peptide

> <ROCS_TanimotoCombo>
0.431 

> <ROCS_ShapeTanimoto>
0.307 

> <ROCS_ColorTanimoto>
0.123 

> <ROCS_RefTversky>
0.276 

> <ROCS_RefColorTversky>
0.133 

> <ROCS_RefTverskyCombo>
0.409 

> <ROCS_FitTversky>
1.573 

> <ROCS_FitColorTversky>
0.636 

> <ROCS_FitTverskyCombo>
2.209 

> <ROCS_ColorScore>
-4.030

> <ROCS_Overlap>
1918.306

> <ROCS_Rank>
269                 

$$$$
untitled-dbase-28_7
  -OEChem-11112315393D

 18 18  0     0  0  0  0  0  0999 V2000
    7.3968   11.6722   25.0061 C   0  0  0  0  0  0  0  0  0  0  0  0
    8.3985   12.3338   24.3047 C   0  0  0  0  0  0  0  0  0  0  0  0
    7.3270   10.2931   24.8912 C   0  0  0  0  0  0  0  0  0  0  0  0
    9.2873   11.6066   23.5209 C   0  0  0  0  0  0  0  0  0  0  0  0
    9.1330   10.2304   23.4726 C   0  0  0  0  0  0  0  0  0  0  0  0
   10.9107   13.4566   23.1974 C   0  0  0  0  0  0  0  0  0  0  0  0
   11.9567   13.8897   22.1965 C   0  0  0  0  0  0  0  0  0  0  0  0
    8.1723    9.5526   24.1398 N   0  0  0  0  0  0  0  0  0  0  0  0
   10.2929   12.2708   22.8174 N   0  0  0  0  0  0  0  0  0  0  0  0
   10.6846   14.1430   24.1903 O   0  0  0  0  0  0  0  0  0  0  0  0
   10.1665    9.2168   22.5408 Cl  0  0  0  0  0  0  0  0  0  0  0  0
   11.4491   13.3130   20.6011 Cl  0  0  0  0  0  0  0  0  0  0  0  0
    6.6923   12.2186   25.6227 H   0  0  0  0  0  0  0  0  0  0  0  0
    8.4762   13.4156   24.3766 H   0  0  0  0  0  0  0  0  0  0  0  0
    6.5634    9.7300   25.4176 H   0  0  0  0  0  0  0  0  0  0  0  0
   12.9479   13.4862   22.4186 H   0  0  0  0  0  0  0  0  0  0  0  0
   12.0150   14.9817   22.1802 H   0  0  0  0  0  0  0  0  0  0  0  0
   10.6028   11.8476   21.9447 H   0  0  0  0  0  0  0  0  0  0  0  0
  1  2  2  0  0  0  0
  1  3  1  0  0  0  0
  2  4  1  0  0  0  0
  3  8  2  0  0  0  0
  4  5  2  0  0  0  0
  4  9  1  0  0  0  0
  5  8  1  0  0  0  0
  5 11  1  0  0  0  0
  6  7  1  0  0  0  0
  6  9  1  0  0  0  0
  6 10  2  0  0  0  0
  7 12  1  0  0  0  0
  1 13  1  0  0  0  0
  2 14  1  0  0  0  0
  3 15  1  0  0  0  0
  7 16  1  0  0  0  0
  7 17  1  0  0  0  0
  9 18  1  0  0  0  0
M  END
> <Catalog ID>
Z56827284

> <MW>
203.986

> <MW (desalted)>
205.041

> <ClogP>
1.083

> <logS>
-2.48

> <HBD>
1

> <HBA>
2

> <TPSA>
41.99

> <RotBonds>
2

> <ROCS_ShapeQuery>
A71EV2A-x0451_0A_A71EV2A-x0310_0A_A71EV2A-x0416_0A_peptide

> <ROCS_TanimotoCombo>
0.430 

> <ROCS_ShapeTanimoto>
0.258 

> <ROCS_ColorTanimoto>
0.173 

> <ROCS_RefTversky>
0.230 

> <ROCS_RefColorTversky>
0.173 

> <ROCS_RefTverskyCombo>
0.403 

> <ROCS_FitTversky>
1.887 

> <ROCS_FitColorTversky>
0.976 

> <ROCS_FitTverskyCombo>
2.863 

> <ROCS_ColorScore>
-5.256

> <ROCS_Overlap>
1591.487

> <ROCS_Rank>
270                 

$$$$
untitled-dbase-783_237
  -OEChem-11112315393D

 23 23  0     0  0  0  0  0  0999 V2000
    9.1643    9.7534   23.6416 C   0  0  0  0  0  0  0  0  0  0  0  0
    7.9018    9.8896   24.2187 C   0  0  0  0  0  0  0  0  0  0  0  0
    9.9562   10.8805   23.4221 C   0  0  0  0  0  0  0  0  0  0  0  0
    7.4311   11.1530   24.5763 C   0  0  0  0  0  0  0  0  0  0  0  0
    9.4855   12.1439   23.7797 C   0  0  0  0  0  0  0  0  0  0  0  0
    8.2230   12.2802   24.3568 C   0  0  0  0  0  0  0  0  0  0  0  0
   10.3325   13.3420   23.5441 C   0  0  0  0  0  0  0  0  0  0  0  0
   13.2438   14.4211   22.7631 C   0  0  0  0  0  0  0  0  0  0  0  0
   13.9915   15.6693   22.3718 C   0  0  0  0  0  0  0  0  0  0  0  0
   11.1941   13.2636   22.4667 N   0  0  0  0  0  0  0  0  0  0  0  0
   11.9941   14.3433   22.1810 N   0  0  0  0  0  0  0  0  0  0  0  0
   10.2179   14.3156   24.2845 O   0  0  0  0  0  0  0  0  0  0  0  0
   13.7225   13.5921   23.5351 O   0  0  0  0  0  0  0  0  0  0  0  0
    7.7596   13.4895   24.7045 F   0  0  0  0  0  0  0  0  0  0  0  0
   13.4381   16.1533   20.7613 Cl  0  0  0  0  0  0  0  0  0  0  0  0
    9.5307    8.7697   23.3630 H   0  0  0  0  0  0  0  0  0  0  0  0
    7.2853    9.0120   24.3897 H   0  0  0  0  0  0  0  0  0  0  0  0
   10.9384   10.7619   22.9719 H   0  0  0  0  0  0  0  0  0  0  0  0
    6.4482   11.2593   25.0257 H   0  0  0  0  0  0  0  0  0  0  0  0
   13.7654   16.4675   23.0842 H   0  0  0  0  0  0  0  0  0  0  0  0
   15.0730   15.5153   22.3385 H   0  0  0  0  0  0  0  0  0  0  0  0
   11.2352   12.4252   21.8978 H   0  0  0  0  0  0  0  0  0  0  0  0
   11.6719   15.0717   21.5525 H   0  0  0  0  0  0  0  0  0  0  0  0
  1  2  1  0  0  0  0
  1  3  2  0  0  0  0
  2  4  2  0  0  0  0
  3  5  1  0  0  0  0
  4  6  1  0  0  0  0
  5  6  2  0  0  0  0
  5  7  1  0  0  0  0
  6 14  1  0  0  0  0
  7 10  1  0  0  0  0
  7 12  2  0  0  0  0
  8  9  1  0  0  0  0
  8 11  1  0  0  0  0
  8 13  2  0  0  0  0
  9 15  1  0  0  0  0
 10 11  1  0  0  0  0
  1 16  1  0  0  0  0
  2 17  1  0  0  0  0
  3 18  1  0  0  0  0
  4 19  1  0  0  0  0
  9 20  1  0  0  0  0
  9 21  1  0  0  0  0
 10 22  1  0  0  0  0
 11 23  1  0  0  0  0
M  END
> <Catalog ID>
Z56968518

> <MW>
230.026

> <MW (desalted)>
230.623

> <ClogP>
0.859

> <logS>
-2.92

> <HBD>
2

> <HBA>
2

> <TPSA>
58.2

> <RotBonds>
3

> <ROCS_ShapeQuery>
A71EV2A-x0451_0A_A71EV2A-x0310_0A_A71EV2A-x0416_0A_peptide

> <ROCS_TanimotoCombo>
0.430 

> <ROCS_ShapeTanimoto>
0.272 

> <ROCS_ColorTanimoto>
0.158 

> <ROCS_RefTversky>
0.244 

> <ROCS_RefColorTversky>
0.166 

> <ROCS_RefTverskyCombo>
0.410 

> <ROCS_FitTversky>
1.724 

> <ROCS_FitColorTversky>
0.763 

> <ROCS_FitTverskyCombo>
2.487 

> <ROCS_ColorScore>
-5.055

> <ROCS_Overlap>
1690.249

> <ROCS_Rank>
271                 

$$$$
untitled-dbase-382_40
  -OEChem-11112315393D

 26 26  0     0  0  0  0  0  0999 V2000
    8.2499   12.2803   24.4085 C   0  0  0  0  0  0  0  0  0  0  0  0
    9.9290   10.8899   23.3672 C   0  0  0  0  0  0  0  0  0  0  0  0
    7.4555   11.1554   24.6298 C   0  0  0  0  0  0  0  0  0  0  0  0
    9.1347    9.7649   23.5885 C   0  0  0  0  0  0  0  0  0  0  0  0
    9.4867   12.1477   23.7772 C   0  0  0  0  0  0  0  0  0  0  0  0
    7.8979    9.8977   24.2198 C   0  0  0  0  0  0  0  0  0  0  0  0
   10.3340   13.3454   23.5414 C   0  0  0  0  0  0  0  0  0  0  0  0
   13.2471   14.4236   22.7655 C   0  0  0  0  0  0  0  0  0  0  0  0
    7.0486    8.6948   24.4575 C   0  0  0  0  0  0  0  0  0  0  0  0
   13.9955   15.6712   22.3738 C   0  0  0  0  0  0  0  0  0  0  0  0
   11.1983   13.2652   22.4663 N   0  0  0  0  0  0  0  0  0  0  0  0
   11.9988   14.3446   22.1806 N   0  0  0  0  0  0  0  0  0  0  0  0
   10.2176   14.3203   24.2798 O   0  0  0  0  0  0  0  0  0  0  0  0
   13.7240   13.5960   23.5401 O   0  0  0  0  0  0  0  0  0  0  0  0
   13.4459   16.1521   20.7610 Cl  0  0  0  0  0  0  0  0  0  0  0  0
    7.8961   13.2558   24.7319 H   0  0  0  0  0  0  0  0  0  0  0  0
   10.8908   10.7746   22.8743 H   0  0  0  0  0  0  0  0  0  0  0  0
    6.4935   11.2679   25.1226 H   0  0  0  0  0  0  0  0  0  0  0  0
    9.4874    8.7887   23.2661 H   0  0  0  0  0  0  0  0  0  0  0  0
    6.3791    8.5256   23.6053 H   0  0  0  0  0  0  0  0  0  0  0  0
    7.6621    7.7962   24.6019 H   0  0  0  0  0  0  0  0  0  0  0  0
    6.4378    8.8112   25.3623 H   0  0  0  0  0  0  0  0  0  0  0  0
   13.7676   16.4706   23.0841 H   0  0  0  0  0  0  0  0  0  0  0  0
   15.0772   15.5173   22.3434 H   0  0  0  0  0  0  0  0  0  0  0  0
   11.2409   12.4257   21.8990 H   0  0  0  0  0  0  0  0  0  0  0  0
   11.6780   15.0718   21.5500 H   0  0  0  0  0  0  0  0  0  0  0  0
  1  3  2  0  0  0  0
  1  5  1  0  0  0  0
  2  4  1  0  0  0  0
  2  5  2  0  0  0  0
  3  6  1  0  0  0  0
  4  6  2  0  0  0  0
  5  7  1  0  0  0  0
  6  9  1  0  0  0  0
  7 11  1  0  0  0  0
  7 13  2  0  0  0  0
  8 10  1  0  0  0  0
  8 12  1  0  0  0  0
  8 14  2  0  0  0  0
 10 15  1  0  0  0  0
 11 12  1  0  0  0  0
  1 16  1  0  0  0  0
  2 17  1  0  0  0  0
  3 18  1  0  0  0  0
  4 19  1  0  0  0  0
  9 20  1  0  0  0  0
  9 21  1  0  0  0  0
  9 22  1  0  0  0  0
 10 23  1  0  0  0  0
 10 24  1  0  0  0  0
 11 25  1  0  0  0  0
 12 26  1  0  0  0  0
M  END
> <Catalog ID>
Z56771049

> <MW>
226.051

> <MW (desalted)>
226.66

> <ClogP>
1.423

> <logS>
-3.15

> <HBD>
2

> <HBA>
2

> <TPSA>
58.2

> <RotBonds>
3

> <ROCS_ShapeQuery>
A71EV2A-x0451_0A_A71EV2A-x0310_0A_A71EV2A-x0416_0A_peptide

> <ROCS_TanimotoCombo>
0.430 

> <ROCS_ShapeTanimoto>
0.271 

> <ROCS_ColorTanimoto>
0.158 

> <ROCS_RefTversky>
0.243 

> <ROCS_RefColorTversky>
0.166 

> <ROCS_RefTverskyCombo>
0.410 

> <ROCS_FitTversky>
1.735 

> <ROCS_FitColorTversky>
0.763 

> <ROCS_FitTverskyCombo>
2.498 

> <ROCS_ColorScore>
-5.056

> <ROCS_Overlap>
1685.958

> <ROCS_Rank>
272                 

$$$$
untitled-dbase-835_488
  -OEChem-11112315393D

 42 43  0     0  0  0  0  0  0999 V2000
    6.6957   10.9793   26.3651 C   0  0  0  0  0  0  0  0  0  0  0  0
   10.9164   13.3964   23.3183 C   0  0  0  0  0  0  0  0  0  0  0  0
    4.5504   12.3021   29.1700 C   0  0  0  0  0  0  0  0  0  0  0  0
    4.0210   11.4276   28.0395 C   0  0  0  0  0  0  0  0  0  0  0  0
    6.0605   12.4858   29.0725 C   0  0  0  0  0  0  0  0  0  0  0  0
    4.4203   11.9675   26.6665 C   0  0  0  0  0  0  0  0  0  0  0  0
    6.4730   13.0537   27.7155 C   0  0  0  0  0  0  0  0  0  0  0  0
    9.7899   10.8615   24.5607 C   0  0  0  0  0  0  0  0  0  0  0  0
    8.1123   12.2179   23.2581 C   0  0  0  0  0  0  0  0  0  0  0  0
    8.6381   10.0494   25.1470 C   0  0  0  0  0  0  0  0  0  0  0  0
    6.9931   11.3785   23.8708 C   0  0  0  0  0  0  0  0  0  0  0  0
    5.9181   12.2519   26.5363 C   0  0  0  0  0  0  0  0  0  0  0  0
    9.4235   11.4280   23.1853 C   0  0  0  0  0  0  0  0  0  0  0  0
   12.0572   14.0814   22.6099 C   0  0  0  0  0  0  0  0  0  0  0  0
    7.4025   10.8347   25.1717 N   0  0  0  0  0  0  0  0  0  0  0  0
   10.4914   12.2500   22.6716 N   0  0  0  0  0  0  0  0  0  0  0  0
    6.6788   10.1369   27.2663 O   0  0  0  0  0  0  0  0  0  0  0  0
   10.4497   13.8327   24.3691 O   0  0  0  0  0  0  0  0  0  0  0  0
   11.3682   15.2410   21.4630 Cl  0  0  0  0  0  0  0  0  0  0  0  0
    4.0588   13.2822   29.1359 H   0  0  0  0  0  0  0  0  0  0  0  0
    4.2957   11.8505   30.1354 H   0  0  0  0  0  0  0  0  0  0  0  0
    4.4045   10.4069   28.1583 H   0  0  0  0  0  0  0  0  0  0  0  0
    2.9288   11.3633   28.1042 H   0  0  0  0  0  0  0  0  0  0  0  0
    6.3985   13.1609   29.8671 H   0  0  0  0  0  0  0  0  0  0  0  0
    6.5598   11.5250   29.2441 H   0  0  0  0  0  0  0  0  0  0  0  0
    4.0933   11.2623   25.8936 H   0  0  0  0  0  0  0  0  0  0  0  0
    3.8761   12.9038   26.4900 H   0  0  0  0  0  0  0  0  0  0  0  0
    6.1028   14.0835   27.6391 H   0  0  0  0  0  0  0  0  0  0  0  0
    7.5668   13.1050   27.6638 H   0  0  0  0  0  0  0  0  0  0  0  0
   10.0686   11.6653   25.2456 H   0  0  0  0  0  0  0  0  0  0  0  0
   10.6650   10.2137   24.4572 H   0  0  0  0  0  0  0  0  0  0  0  0
    7.8199   12.5133   22.2470 H   0  0  0  0  0  0  0  0  0  0  0  0
    8.2472   13.1376   23.8307 H   0  0  0  0  0  0  0  0  0  0  0  0
    8.5241    9.1238   24.5761 H   0  0  0  0  0  0  0  0  0  0  0  0
    8.8580    9.7572   26.1824 H   0  0  0  0  0  0  0  0  0  0  0  0
    6.0978   11.9860   24.0393 H   0  0  0  0  0  0  0  0  0  0  0  0
    6.7179   10.5742   23.1835 H   0  0  0  0  0  0  0  0  0  0  0  0
    6.0902   12.8249   25.6169 H   0  0  0  0  0  0  0  0  0  0  0  0
    9.3109   10.6037   22.4732 H   0  0  0  0  0  0  0  0  0  0  0  0
   12.7165   14.6177   23.2968 H   0  0  0  0  0  0  0  0  0  0  0  0
   12.6420   13.3386   22.0604 H   0  0  0  0  0  0  0  0  0  0  0  0
   10.9462   11.9781   21.8069 H   0  0  0  0  0  0  0  0  0  0  0  0
  1 12  1  0  0  0  0
  1 15  1  0  0  0  0
  1 17  2  0  0  0  0
  2 14  1  0  0  0  0
  2 16  1  0  0  0  0
  2 18  2  0  0  0  0
  3  4  1  0  0  0  0
  3  5  1  0  0  0  0
  4  6  1  0  0  0  0
  5  7  1  0  0  0  0
  6 12  1  0  0  0  0
  7 12  1  0  0  0  0
  8 10  1  0  0  0  0
  8 13  1  0  0  0  0
  9 11  1  0  0  0  0
  9 13  1  0  0  0  0
 10 15  1  0  0  0  0
 11 15  1  0  0  0  0
 13 16  1  0  0  0  0
 14 19  1  0  0  0  0
  3 20  1  0  0  0  0
  3 21  1  0  0  0  0
  4 22  1  0  0  0  0
  4 23  1  0  0  0  0
  5 24  1  0  0  0  0
  5 25  1  0  0  0  0
  6 26  1  0  0  0  0
  6 27  1  0  0  0  0
  7 28  1  0  0  0  0
  7 29  1  0  0  0  0
  8 30  1  0  0  0  0
  8 31  1  0  0  0  0
  9 32  1  0  0  0  0
  9 33  1  0  0  0  0
 10 34  1  0  0  0  0
 10 35  1  0  0  0  0
 11 36  1  0  0  0  0
 11 37  1  0  0  0  0
 12 38  1  0  0  0  0
 13 39  1  0  0  0  0
 14 40  1  0  0  0  0
 14 41  1  0  0  0  0
 16 42  1  0  0  0  0
M  END
> <Catalog ID>
Z291278676

> <MW>
286.145

> <MW (desalted)>
286.798

> <ClogP>
0.224

> <logS>
-3.621

> <HBD>
1

> <HBA>
2

> <TPSA>
49.41

> <RotBonds>
3

> <ROCS_ShapeQuery>
A71EV2A-x0451_0A_A71EV2A-x0310_0A_A71EV2A-x0416_0A_peptide

> <ROCS_TanimotoCombo>
0.430 

> <ROCS_ShapeTanimoto>
0.266 

> <ROCS_ColorTanimoto>
0.163 

> <ROCS_RefTversky>
0.244 

> <ROCS_RefColorTversky>
0.169 

> <ROCS_RefTverskyCombo>
0.414 

> <ROCS_FitTversky>
1.509 

> <ROCS_FitColorTversky>
0.812 

> <ROCS_FitTverskyCombo>
2.321 

> <ROCS_ColorScore>
-5.147

> <ROCS_Overlap>
1695.671

> <ROCS_Rank>
273                 

$$$$
untitled-dbase-61_17
  -OEChem-11112315393D

 22 22  0     0  0  0  0  0  0999 V2000
    8.3619    9.4961   23.9683 C   0  0  0  0  0  0  0  0  0  0  0  0
    7.4468   10.1446   24.7976 C   0  0  0  0  0  0  0  0  0  0  0  0
    9.3294   10.2338   23.2860 C   0  0  0  0  0  0  0  0  0  0  0  0
    8.4665   12.2684   24.2620 C   0  0  0  0  0  0  0  0  0  0  0  0
    7.4991   11.5307   24.9444 C   0  0  0  0  0  0  0  0  0  0  0  0
    9.3816   11.6199   23.4328 C   0  0  0  0  0  0  0  0  0  0  0  0
   10.9214   13.5504   23.1779 C   0  0  0  0  0  0  0  0  0  0  0  0
   11.9365   14.0724   22.1877 C   0  0  0  0  0  0  0  0  0  0  0  0
    6.5205   12.2235   25.8311 C   0  0  0  0  0  0  0  0  0  0  0  0
   10.3499   12.3574   22.7506 N   0  0  0  0  0  0  0  0  0  0  0  0
   10.6779   14.1813   24.2030 O   0  0  0  0  0  0  0  0  0  0  0  0
    5.6332   11.3776   26.4339 F   0  0  0  0  0  0  0  0  0  0  0  0
    7.1039   12.9153   26.8543 F   0  0  0  0  0  0  0  0  0  0  0  0
    5.7582   13.1358   25.1604 F   0  0  0  0  0  0  0  0  0  0  0  0
   11.4354   13.5466   20.5727 Cl  0  0  0  0  0  0  0  0  0  0  0  0
    8.3216    8.4168   23.8543 H   0  0  0  0  0  0  0  0  0  0  0  0
    6.6965    9.5615   25.3244 H   0  0  0  0  0  0  0  0  0  0  0  0
   10.0374    9.7179   22.6423 H   0  0  0  0  0  0  0  0  0  0  0  0
    8.5048   13.3494   24.3775 H   0  0  0  0  0  0  0  0  0  0  0  0
   12.9464   13.7022   22.3817 H   0  0  0  0  0  0  0  0  0  0  0  0
   11.9483   15.1655   22.2203 H   0  0  0  0  0  0  0  0  0  0  0  0
   10.6674   11.9873   21.8567 H   0  0  0  0  0  0  0  0  0  0  0  0
  1  2  2  0  0  0  0
  1  3  1  0  0  0  0
  2  5  1  0  0  0  0
  3  6  2  0  0  0  0
  4  5  2  0  0  0  0
  4  6  1  0  0  0  0
  5  9  1  0  0  0  0
  6 10  1  0  0  0  0
  7  8  1  0  0  0  0
  7 10  1  0  0  0  0
  7 11  2  0  0  0  0
  8 15  1  0  0  0  0
  9 12  1  0  0  0  0
  9 13  1  0  0  0  0
  9 14  1  0  0  0  0
  1 16  1  0  0  0  0
  2 17  1  0  0  0  0
  3 18  1  0  0  0  0
  4 19  1  0  0  0  0
  8 20  1  0  0  0  0
  8 21  1  0  0  0  0
 10 22  1  0  0  0  0
M  END
> <Catalog ID>
Z56896276

> <MW>
237.017

> <MW (desalted)>
237.606

> <ClogP>
3.108

> <logS>
-3.25

> <HBD>
1

> <HBA>
1

> <TPSA>
29.1

> <RotBonds>
3

> <ROCS_ShapeQuery>
A71EV2A-x0451_0A_A71EV2A-x0310_0A_A71EV2A-x0416_0A_peptide

> <ROCS_TanimotoCombo>
0.429 

> <ROCS_ShapeTanimoto>
0.290 

> <ROCS_ColorTanimoto>
0.140 

> <ROCS_RefTversky>
0.257 

> <ROCS_RefColorTversky>
0.141 

> <ROCS_RefTverskyCombo>
0.397 

> <ROCS_FitTversky>
1.805 

> <ROCS_FitColorTversky>
0.960 

> <ROCS_FitTverskyCombo>
2.765 

> <ROCS_ColorScore>
-4.256

> <ROCS_Overlap>
1777.519

> <ROCS_Rank>
274                 

$$$$
untitled-dbase-19_40
  -OEChem-11112315393D

 24 24  0     0  0  0  0  0  0999 V2000
    7.0855    8.7470   24.4435 C   0  0  0  0  0  0  0  0  0  0  0  0
    7.4576   11.1576   24.6268 C   0  0  0  0  0  0  0  0  0  0  0  0
    9.1366    9.7659   23.5871 C   0  0  0  0  0  0  0  0  0  0  0  0
    8.2529   12.2820   24.4063 C   0  0  0  0  0  0  0  0  0  0  0  0
    9.9321   10.8903   23.3666 C   0  0  0  0  0  0  0  0  0  0  0  0
    7.8994    9.8995   24.2173 C   0  0  0  0  0  0  0  0  0  0  0  0
    9.4902   12.1484   23.7762 C   0  0  0  0  0  0  0  0  0  0  0  0
   10.3369   13.3467   23.5409 C   0  0  0  0  0  0  0  0  0  0  0  0
   13.2494   14.4269   22.7660 C   0  0  0  0  0  0  0  0  0  0  0  0
   13.9971   15.6750   22.3748 C   0  0  0  0  0  0  0  0  0  0  0  0
    6.4244    7.8111   24.6272 N   0  0  0  0  0  0  0  0  0  0  0  0
   11.2014   13.2673   22.4660 N   0  0  0  0  0  0  0  0  0  0  0  0
   12.0014   14.3472   22.1807 N   0  0  0  0  0  0  0  0  0  0  0  0
   10.2196   14.3214   24.2795 O   0  0  0  0  0  0  0  0  0  0  0  0
   13.7267   13.5994   23.5405 O   0  0  0  0  0  0  0  0  0  0  0  0
   13.4477   16.1560   20.7620 Cl  0  0  0  0  0  0  0  0  0  0  0  0
    6.4958   11.2775   25.1196 H   0  0  0  0  0  0  0  0  0  0  0  0
    9.4956    8.7917   23.2630 H   0  0  0  0  0  0  0  0  0  0  0  0
    7.8997   13.2574   24.7308 H   0  0  0  0  0  0  0  0  0  0  0  0
   10.8950   10.7754   22.8755 H   0  0  0  0  0  0  0  0  0  0  0  0
   13.7686   16.4742   23.0852 H   0  0  0  0  0  0  0  0  0  0  0  0
   15.0789   15.5218   22.3446 H   0  0  0  0  0  0  0  0  0  0  0  0
   11.2447   12.4280   21.8985 H   0  0  0  0  0  0  0  0  0  0  0  0
   11.6803   15.0744   21.5502 H   0  0  0  0  0  0  0  0  0  0  0  0
  1  6  1  0  0  0  0
  1 11  3  0  0  0  0
  2  4  2  0  0  0  0
  2  6  1  0  0  0  0
  3  5  1  0  0  0  0
  3  6  2  0  0  0  0
  4  7  1  0  0  0  0
  5  7  2  0  0  0  0
  7  8  1  0  0  0  0
  8 12  1  0  0  0  0
  8 14  2  0  0  0  0
  9 10  1  0  0  0  0
  9 13  1  0  0  0  0
  9 15  2  0  0  0  0
 10 16  1  0  0  0  0
 12 13  1  0  0  0  0
  2 17  1  0  0  0  0
  3 18  1  0  0  0  0
  4 19  1  0  0  0  0
  5 20  1  0  0  0  0
 10 21  1  0  0  0  0
 10 22  1  0  0  0  0
 12 23  1  0  0  0  0
 13 24  1  0  0  0  0
M  END
> <Catalog ID>
Z1268154349

> <MW>
237.031

> <MW (desalted)>
237.642

> <ClogP>
0.825

> <logS>
-2.939

> <HBD>
2

> <HBA>
3

> <TPSA>
81.99

> <RotBonds>
3

> <ROCS_ShapeQuery>
A71EV2A-x0451_0A_A71EV2A-x0310_0A_A71EV2A-x0416_0A_peptide

> <ROCS_TanimotoCombo>
0.429 

> <ROCS_ShapeTanimoto>
0.276 

> <ROCS_ColorTanimoto>
0.154 

> <ROCS_RefTversky>
0.248 

> <ROCS_RefColorTversky>
0.166 

> <ROCS_RefTverskyCombo>
0.414 

> <ROCS_FitTversky>
1.690 

> <ROCS_FitColorTversky>
0.668 

> <ROCS_FitTverskyCombo>
2.357 

> <ROCS_ColorScore>
-5.058

> <ROCS_Overlap>
1717.958

> <ROCS_Rank>
275                 

$$$$
untitled-dbase-857_37
  -OEChem-11112315393D

 24 24  0     0  0  0  0  0  0999 V2000
    7.7720    9.9483   24.3040 C   0  0  0  0  0  0  0  0  0  0  0  0
    7.5647   11.1774   24.9300 C   0  0  0  0  0  0  0  0  0  0  0  0
    8.8395    9.7866   23.4208 C   0  0  0  0  0  0  0  0  0  0  0  0
    8.4249   12.2449   24.6728 C   0  0  0  0  0  0  0  0  0  0  0  0
    9.6997   10.8541   23.1636 C   0  0  0  0  0  0  0  0  0  0  0  0
    9.4924   12.0833   23.7896 C   0  0  0  0  0  0  0  0  0  0  0  0
   13.2888   16.5691   21.6490 C   0  0  0  0  0  0  0  0  0  0  0  0
   13.8527   15.5366   22.2831 C   0  0  0  0  0  0  0  0  0  0  0  0
   10.4088   13.2206   23.5155 C   0  0  0  0  0  0  0  0  0  0  0  0
   13.0200   14.4039   22.7664 C   0  0  0  0  0  0  0  0  0  0  0  0
   11.0331   13.2027   22.2829 N   0  0  0  0  0  0  0  0  0  0  0  0
   11.9081   14.2157   21.9704 N   0  0  0  0  0  0  0  0  0  0  0  0
   10.5721   14.0828   24.3752 O   0  0  0  0  0  0  0  0  0  0  0  0
   13.3162   13.7393   23.7542 O   0  0  0  0  0  0  0  0  0  0  0  0
    7.1022    9.1172   24.5042 H   0  0  0  0  0  0  0  0  0  0  0  0
    6.7334   11.3032   25.6174 H   0  0  0  0  0  0  0  0  0  0  0  0
    9.0010    8.8295   22.9336 H   0  0  0  0  0  0  0  0  0  0  0  0
    8.2542   13.1984   25.1661 H   0  0  0  0  0  0  0  0  0  0  0  0
   10.5282   10.7167   22.4734 H   0  0  0  0  0  0  0  0  0  0  0  0
   13.9037   17.3922   21.3001 H   0  0  0  0  0  0  0  0  0  0  0  0
   12.2226   16.6279   21.4612 H   0  0  0  0  0  0  0  0  0  0  0  0
   14.9240   15.5162   22.4515 H   0  0  0  0  0  0  0  0  0  0  0  0
   10.9301   12.4702   21.5892 H   0  0  0  0  0  0  0  0  0  0  0  0
   11.6760   14.7841   21.1622 H   0  0  0  0  0  0  0  0  0  0  0  0
  1  2  1  0  0  0  0
  1  3  2  0  0  0  0
  2  4  2  0  0  0  0
  3  5  1  0  0  0  0
  4  6  1  0  0  0  0
  5  6  2  0  0  0  0
  6  9  1  0  0  0  0
  7  8  2  0  0  0  0
  8 10  1  0  0  0  0
  9 11  1  0  0  0  0
  9 13  2  0  0  0  0
 10 12  1  0  0  0  0
 10 14  2  0  0  0  0
 11 12  1  0  0  0  0
  1 15  1  0  0  0  0
  2 16  1  0  0  0  0
  3 17  1  0  0  0  0
  4 18  1  0  0  0  0
  5 19  1  0  0  0  0
  7 20  1  0  0  0  0
  7 21  1  0  0  0  0
  8 22  1  0  0  0  0
 11 23  1  0  0  0  0
 12 24  1  0  0  0  0
M  END
> <Catalog ID>
Z1726087774

> <MW>
190.074

> <MW (desalted)>
190.199

> <ClogP>
0.756

> <logS>
-2.693

> <HBD>
2

> <HBA>
2

> <TPSA>
58.2

> <RotBonds>
3

> <ROCS_ShapeQuery>
A71EV2A-x0451_0A_A71EV2A-x0310_0A_A71EV2A-x0416_0A_peptide

> <ROCS_TanimotoCombo>
0.429 

> <ROCS_ShapeTanimoto>
0.257 

> <ROCS_ColorTanimoto>
0.172 

> <ROCS_RefTversky>
0.232 

> <ROCS_RefColorTversky>
0.183 

> <ROCS_RefTverskyCombo>
0.416 

> <ROCS_FitTversky>
1.709 

> <ROCS_FitColorTversky>
0.736 

> <ROCS_FitTverskyCombo>
2.445 

> <ROCS_ColorScore>
-5.577

> <ROCS_Overlap>
1609.832

> <ROCS_Rank>
276                 

$$$$
untitled-dbase-472_26
  -OEChem-11112315393D

 21 21  0     0  0  0  0  0  0999 V2000
    9.2813   10.2315   23.3661 C   0  0  0  0  0  0  0  0  0  0  0  0
    8.2850    9.5286   24.0435 C   0  0  0  0  0  0  0  0  0  0  0  0
    8.4182   12.3074   24.2508 C   0  0  0  0  0  0  0  0  0  0  0  0
    9.3479   11.6210   23.4698 C   0  0  0  0  0  0  0  0  0  0  0  0
    7.4218   11.6044   24.9282 C   0  0  0  0  0  0  0  0  0  0  0  0
    7.3553   10.2150   24.8245 C   0  0  0  0  0  0  0  0  0  0  0  0
   10.9207   13.5223   23.1979 C   0  0  0  0  0  0  0  0  0  0  0  0
   11.9710   13.9986   22.2214 C   0  0  0  0  0  0  0  0  0  0  0  0
   10.3454   12.3233   22.7928 N   0  0  0  0  0  0  0  0  0  0  0  0
    6.4778   12.3058   25.7242 N   0  3  0  0  0  0  0  0  0  0  0  0
    6.5579   13.5555   25.8027 O   0  5  0  0  0  0  0  0  0  0  0  0
   10.6564   14.1894   24.1944 O   0  0  0  0  0  0  0  0  0  0  0  0
    5.5898   11.6564   26.3277 O   0  0  0  0  0  0  0  0  0  0  0  0
    6.4039    9.5264   25.4716 F   0  0  0  0  0  0  0  0  0  0  0  0
   11.5095   13.4268   20.6103 Cl  0  0  0  0  0  0  0  0  0  0  0  0
   10.0011    9.6861   22.7610 H   0  0  0  0  0  0  0  0  0  0  0  0
    8.2340    8.4466   23.9638 H   0  0  0  0  0  0  0  0  0  0  0  0
    8.4724   13.3914   24.3308 H   0  0  0  0  0  0  0  0  0  0  0  0
   12.9697   13.6221   22.4567 H   0  0  0  0  0  0  0  0  0  0  0  0
   11.9968   15.0920   22.2190 H   0  0  0  0  0  0  0  0  0  0  0  0
   10.6835   11.9202   21.9209 H   0  0  0  0  0  0  0  0  0  0  0  0
  1  2  2  0  0  0  0
  1  4  1  0  0  0  0
  2  6  1  0  0  0  0
  3  4  2  0  0  0  0
  3  5  1  0  0  0  0
  4  9  1  0  0  0  0
  5  6  2  0  0  0  0
  5 10  1  0  0  0  0
  6 14  1  0  0  0  0
  7  8  1  0  0  0  0
  7  9  1  0  0  0  0
  7 12  2  0  0  0  0
  8 15  1  0  0  0  0
 10 11  1  0  0  0  0
 10 13  2  0  0  0  0
  1 16  1  0  0  0  0
  2 17  1  0  0  0  0
  3 18  1  0  0  0  0
  8 19  1  0  0  0  0
  8 20  1  0  0  0  0
  9 21  1  0  0  0  0
M  CHG  2  10   1  11  -1
M  END
> <Catalog ID>
Z56869415

> <MW>
232.005

> <MW (desalted)>
232.596

> <ClogP>
2.002

> <logS>
-3.19

> <HBD>
1

> <HBA>
3

> <TPSA>
72.24

> <RotBonds>
3

> <ROCS_ShapeQuery>
A71EV2A-x0451_0A_A71EV2A-x0310_0A_A71EV2A-x0416_0A_peptide

> <ROCS_TanimotoCombo>
0.429 

> <ROCS_ShapeTanimoto>
0.295 

> <ROCS_ColorTanimoto>
0.133 

> <ROCS_RefTversky>
0.261 

> <ROCS_RefColorTversky>
0.142 

> <ROCS_RefTverskyCombo>
0.403 

> <ROCS_FitTversky>
1.822 

> <ROCS_FitColorTversky>
0.681 

> <ROCS_FitTverskyCombo>
2.503 

> <ROCS_ColorScore>
-4.323

> <ROCS_Overlap>
1805.250

> <ROCS_Rank>
277                 

$$$$
untitled-dbase-365_605
  -OEChem-11112315393D

 32 33  0     1  0  0  0  0  0999 V2000
   11.3102   15.0294   22.2984 C   0  0  0  0  0  0  0  0  0  0  0  0
   11.3215   13.6688   22.1206 C   0  0  0  0  0  0  0  0  0  0  0  0
    5.2769   12.4927   26.3622 C   0  0  0  0  0  0  0  0  0  0  0  0
    6.5424   12.6854   26.7402 C   0  0  0  0  0  0  0  0  0  0  0  0
    7.5748   12.8998   25.7002 C   0  0  0  0  0  0  0  0  0  0  0  0
    8.6980    9.6099   24.9110 C   0  0  0  0  0  0  0  0  0  0  0  0
    9.1697    9.7446   23.4619 C   0  0  0  0  0  0  0  0  0  0  0  0
    7.4828   10.4916   25.1816 C   0  0  0  0  0  0  0  0  0  0  0  0
    8.1492   12.0553   23.3845 C   0  0  0  0  0  0  0  0  0  0  0  0
    9.3858   11.2094   23.0457 C   0  0  1  0  0  0  0  0  0  0  0  0
   10.6484   11.7983   23.6818 C   0  0  0  0  0  0  0  0  0  0  0  0
   10.8440   15.3255   23.5491 N   0  0  0  0  0  0  0  0  0  0  0  0
   10.5629   14.1806   24.1617 N   0  0  0  0  0  0  0  0  0  0  0  0
   10.8501   13.1884   23.3035 N   0  0  0  0  0  0  0  0  0  0  0  0
    7.7424   11.8730   24.7828 N   0  0  0  0  0  0  0  0  0  0  0  0
    8.1702   13.9677   25.7593 O   0  0  0  0  0  0  0  0  0  0  0  0
   11.6077   15.7990   21.6025 H   0  0  0  0  0  0  0  0  0  0  0  0
   11.6106   13.0330   21.2960 H   0  0  0  0  0  0  0  0  0  0  0  0
    4.4771   12.3305   27.0769 H   0  0  0  0  0  0  0  0  0  0  0  0
    5.0173   12.4948   25.3089 H   0  0  0  0  0  0  0  0  0  0  0  0
    6.8402   12.6906   27.7805 H   0  0  0  0  0  0  0  0  0  0  0  0
    8.4474    8.5627   25.1200 H   0  0  0  0  0  0  0  0  0  0  0  0
    9.5135    9.8864   25.5884 H   0  0  0  0  0  0  0  0  0  0  0  0
   10.1078    9.1768   23.3338 H   0  0  0  0  0  0  0  0  0  0  0  0
    8.4322    9.2694   22.7936 H   0  0  0  0  0  0  0  0  0  0  0  0
    6.6267   10.0603   24.6588 H   0  0  0  0  0  0  0  0  0  0  0  0
    7.2446   10.4984   26.2530 H   0  0  0  0  0  0  0  0  0  0  0  0
    8.3617   13.1246   23.2514 H   0  0  0  0  0  0  0  0  0  0  0  0
    7.3264   11.8066   22.7042 H   0  0  0  0  0  0  0  0  0  0  0  0
    9.5238   11.2372   21.9464 H   0  0  0  0  0  0  0  0  0  0  0  0
   11.5285   11.2277   23.3741 H   0  0  0  0  0  0  0  0  0  0  0  0
   10.5830   11.7451   24.7716 H   0  0  0  0  0  0  0  0  0  0  0  0
  1  2  2  0  0  0  0
  1 12  1  0  0  0  0
  2 14  1  0  0  0  0
  3  4  2  0  0  0  0
  4  5  1  0  0  0  0
  5 15  1  0  0  0  0
  5 16  2  0  0  0  0
  6  7  1  0  0  0  0
  6  8  1  0  0  0  0
  7 10  1  0  0  0  0
  8 15  1  0  0  0  0
  9 10  1  0  0  0  0
  9 15  1  0  0  0  0
 10 11  1  0  0  0  0
 11 14  1  0  0  0  0
 12 13  2  0  0  0  0
 13 14  1  0  0  0  0
  1 17  1  0  0  0  0
  2 18  1  0  0  0  0
  3 19  1  0  0  0  0
  3 20  1  0  0  0  0
  4 21  1  0  0  0  0
  6 22  1  0  0  0  0
  6 23  1  0  0  0  0
  7 24  1  0  0  0  0
  7 25  1  0  0  0  0
  8 26  1  0  0  0  0
  8 27  1  0  0  0  0
  9 28  1  0  0  0  0
  9 29  1  0  0  0  0
 10 30  1  0  0  0  0
 11 31  1  0  0  0  0
 11 32  1  0  0  0  0
M  END
> <Catalog ID>
Z2737383337

> <MW>
220.271

> <MW (desalted)>
220.271

> <ClogP>
0.264

> <logS>
-1.29

> <HBD>
0

> <HBA>
3

> <TPSA>
51.02

> <RotBonds>
3

> <ROCS_ShapeQuery>
A71EV2A-x0451_0A_A71EV2A-x0310_0A_A71EV2A-x0416_0A_peptide

> <ROCS_TanimotoCombo>
0.428 

> <ROCS_ShapeTanimoto>
0.298 

> <ROCS_ColorTanimoto>
0.130 

> <ROCS_RefTversky>
0.264 

> <ROCS_RefColorTversky>
0.144 

> <ROCS_RefTverskyCombo>
0.408 

> <ROCS_FitTversky>
1.771 

> <ROCS_FitColorTversky>
0.577 

> <ROCS_FitTverskyCombo>
2.347 

> <ROCS_ColorScore>
-4.390

> <ROCS_Overlap>
1828.033

> <ROCS_Rank>
278                 

$$$$
untitled-dbase-563_23
  -OEChem-11112315393D

 26 27  0     0  0  0  0  0  0999 V2000
    6.3997   11.5061   26.2447 C   0  0  0  0  0  0  0  0  0  0  0  0
    6.8851   10.4507   25.4803 C   0  0  0  0  0  0  0  0  0  0  0  0
    6.9561   12.7698   26.0987 C   0  0  0  0  0  0  0  0  0  0  0  0
    7.9489   10.6434   24.5808 C   0  0  0  0  0  0  0  0  0  0  0  0
    8.5468   11.9187   24.4527 C   0  0  0  0  0  0  0  0  0  0  0  0
    8.0100   12.9758   25.2037 C   0  0  0  0  0  0  0  0  0  0  0  0
   10.5453   13.1625   23.4977 C   0  0  0  0  0  0  0  0  0  0  0  0
    8.3749    9.4647   23.7397 C   0  0  0  0  0  0  0  0  0  0  0  0
    9.6996    9.7034   23.0332 C   0  0  0  0  0  0  0  0  0  0  0  0
    9.7201   11.1051   22.4487 C   0  0  0  0  0  0  0  0  0  0  0  0
   11.5021   13.2648   22.3335 C   0  0  0  0  0  0  0  0  0  0  0  0
    9.6237   12.1095   23.5171 N   0  0  0  0  0  0  0  0  0  0  0  0
   10.5608   14.0646   24.3434 O   0  0  0  0  0  0  0  0  0  0  0  0
    8.5445   14.2037   25.1871 F   0  0  0  0  0  0  0  0  0  0  0  0
   12.4764   14.7021   22.6130 Cl  0  0  0  0  0  0  0  0  0  0  0  0
    5.6015   11.3395   26.9619 H   0  0  0  0  0  0  0  0  0  0  0  0
    6.4315    9.4686   25.5887 H   0  0  0  0  0  0  0  0  0  0  0  0
    6.5884   13.5958   26.7001 H   0  0  0  0  0  0  0  0  0  0  0  0
    8.4556    8.5834   24.3955 H   0  0  0  0  0  0  0  0  0  0  0  0
    7.6067    9.2377   22.9844 H   0  0  0  0  0  0  0  0  0  0  0  0
   10.5244    9.5756   23.7435 H   0  0  0  0  0  0  0  0  0  0  0  0
    9.8463    8.9650   22.2344 H   0  0  0  0  0  0  0  0  0  0  0  0
   10.6427   11.2928   21.8994 H   0  0  0  0  0  0  0  0  0  0  0  0
    8.8849   11.1909   21.7586 H   0  0  0  0  0  0  0  0  0  0  0  0
   10.9286   13.3724   21.4216 H   0  0  0  0  0  0  0  0  0  0  0  0
   12.1297   12.3829   22.3219 H   0  0  0  0  0  0  0  0  0  0  0  0
  1  2  1  0  0  0  0
  1  3  2  0  0  0  0
  2  4  2  0  0  0  0
  3  6  1  0  0  0  0
  4  5  1  0  0  0  0
  4  8  1  0  0  0  0
  5  6  2  0  0  0  0
  5 12  1  0  0  0  0
  6 14  1  0  0  0  0
  7 11  1  0  0  0  0
  7 12  1  0  0  0  0
  7 13  2  0  0  0  0
  8  9  1  0  0  0  0
  9 10  1  0  0  0  0
 10 12  1  0  0  0  0
 11 15  1  0  0  0  0
  1 16  1  0  0  0  0
  2 17  1  0  0  0  0
  3 18  1  0  0  0  0
  8 19  1  0  0  0  0
  8 20  1  0  0  0  0
  9 21  1  0  0  0  0
  9 22  1  0  0  0  0
 10 23  1  0  0  0  0
 10 24  1  0  0  0  0
 11 25  1  0  0  0  0
 11 26  1  0  0  0  0
M  END
> <Catalog ID>
Z275684620

> <MW>
227.051

> <MW (desalted)>
227.663

> <ClogP>
2.527

> <logS>
-3.039

> <HBD>
0

> <HBA>
1

> <TPSA>
20.31

> <RotBonds>
1

> <ROCS_ShapeQuery>
A71EV2A-x0451_0A_A71EV2A-x0310_0A_A71EV2A-x0416_0A_peptide

> <ROCS_TanimotoCombo>
0.428 

> <ROCS_ShapeTanimoto>
0.297 

> <ROCS_ColorTanimoto>
0.131 

> <ROCS_RefTversky>
0.262 

> <ROCS_RefColorTversky>
0.133 

> <ROCS_RefTverskyCombo>
0.395 

> <ROCS_FitTversky>
1.826 

> <ROCS_FitColorTversky>
0.909 

> <ROCS_FitTverskyCombo>
2.735 

> <ROCS_ColorScore>
-4.034

> <ROCS_Overlap>
1813.321

> <ROCS_Rank>
279                 

$$$$
untitled-dbase-264_49
  -OEChem-11112315393D

 35 37  0     1  0  0  0  0  0999 V2000
    3.6649   11.7471   25.1541 C   0  0  0  0  0  0  0  0  0  0  0  0
    4.0574   11.1482   23.9473 C   0  0  0  0  0  0  0  0  0  0  0  0
    4.6142   12.1018   26.1144 C   0  0  0  0  0  0  0  0  0  0  0  0
    5.4053   10.8967   23.6829 C   0  0  0  0  0  0  0  0  0  0  0  0
    5.9477   11.8375   25.8498 C   0  0  0  0  0  0  0  0  0  0  0  0
    6.3435   11.2447   24.6433 C   0  0  0  0  0  0  0  0  0  0  0  0
   12.2099   13.9060   21.8200 C   0  0  0  0  0  0  0  0  0  0  0  0
   11.9997   12.9718   22.7497 C   0  0  0  0  0  0  0  0  0  0  0  0
   10.7828   13.0560   23.5838 C   0  0  0  0  0  0  0  0  0  0  0  0
    7.1312   12.1560   26.7065 C   0  0  0  0  0  0  0  0  0  0  0  0
    8.1964   11.2449   26.0809 C   0  0  0  0  0  0  0  0  0  0  0  0
   10.2824   10.5948   23.2519 C   0  0  0  0  0  0  0  0  0  0  0  0
    8.4665   12.2118   23.7159 C   0  0  0  0  0  0  0  0  0  0  0  0
    9.0653    9.7050   23.0463 C   0  0  0  0  0  0  0  0  0  0  0  0
    7.8443   11.0995   24.5771 C   0  0  2  0  0  0  0  0  0  0  0  0
    9.8980   11.9829   23.5240 N   0  0  0  0  0  0  0  0  0  0  0  0
   10.6263   14.0591   24.2807 O   0  0  0  0  0  0  0  0  0  0  0  0
    8.1890    9.7743   24.1666 O   0  0  0  0  0  0  0  0  0  0  0  0
    2.6117   11.9405   25.3396 H   0  0  0  0  0  0  0  0  0  0  0  0
    3.3046   10.8831   23.2099 H   0  0  0  0  0  0  0  0  0  0  0  0
    4.3089   12.5730   27.0425 H   0  0  0  0  0  0  0  0  0  0  0  0
    5.7042   10.4432   22.7439 H   0  0  0  0  0  0  0  0  0  0  0  0
   13.0841   13.8978   21.1776 H   0  0  0  0  0  0  0  0  0  0  0  0
   11.4944   14.7103   21.6851 H   0  0  0  0  0  0  0  0  0  0  0  0
   12.6897   12.1544   22.9138 H   0  0  0  0  0  0  0  0  0  0  0  0
    7.3998   13.2124   26.6050 H   0  0  0  0  0  0  0  0  0  0  0  0
    6.9653   11.9099   27.7589 H   0  0  0  0  0  0  0  0  0  0  0  0
    9.2074   11.6312   26.2523 H   0  0  0  0  0  0  0  0  0  0  0  0
    8.1568   10.2586   26.5668 H   0  0  0  0  0  0  0  0  0  0  0  0
   10.8984   10.1704   24.0521 H   0  0  0  0  0  0  0  0  0  0  0  0
   10.8931   10.6177   22.3366 H   0  0  0  0  0  0  0  0  0  0  0  0
    8.0268   12.2044   22.7113 H   0  0  0  0  0  0  0  0  0  0  0  0
    8.2777   13.2022   24.1410 H   0  0  0  0  0  0  0  0  0  0  0  0
    8.5063   10.0444   22.1701 H   0  0  0  0  0  0  0  0  0  0  0  0
    9.3589    8.6671   22.8629 H   0  0  0  0  0  0  0  0  0  0  0  0
  1  2  1  0  0  0  0
  1  3  2  0  0  0  0
  2  4  2  0  0  0  0
  3  5  1  0  0  0  0
  4  6  1  0  0  0  0
  5  6  2  0  0  0  0
  5 10  1  0  0  0  0
  6 15  1  0  0  0  0
  7  8  2  0  0  0  0
  8  9  1  0  0  0  0
  9 16  1  0  0  0  0
  9 17  2  0  0  0  0
 10 11  1  0  0  0  0
 11 15  1  0  0  0  0
 12 14  1  0  0  0  0
 12 16  1  0  0  0  0
 13 15  1  0  0  0  0
 13 16  1  0  0  0  0
 14 18  1  0  0  0  0
 15 18  1  0  0  0  0
  1 19  1  0  0  0  0
  2 20  1  0  0  0  0
  3 21  1  0  0  0  0
  4 22  1  0  0  0  0
  7 23  1  0  0  0  0
  7 24  1  0  0  0  0
  8 25  1  0  0  0  0
 10 26  1  0  0  0  0
 10 27  1  0  0  0  0
 11 28  1  0  0  0  0
 11 29  1  0  0  0  0
 12 30  1  0  0  0  0
 12 31  1  0  0  0  0
 13 32  1  0  0  0  0
 13 33  1  0  0  0  0
 14 34  1  0  0  0  0
 14 35  1  0  0  0  0
M  END
> <Catalog ID>
Z2737376721

> <MW>
243.301

> <MW (desalted)>
243.301

> <ClogP>
1.874

> <logS>
-3.23

> <HBD>
0

> <HBA>
2

> <TPSA>
29.54

> <RotBonds>
1

> <ROCS_ShapeQuery>
A71EV2A-x0451_0A_A71EV2A-x0310_0A_A71EV2A-x0416_0A_peptide

> <ROCS_TanimotoCombo>
0.428 

> <ROCS_ShapeTanimoto>
0.279 

> <ROCS_ColorTanimoto>
0.149 

> <ROCS_RefTversky>
0.254 

> <ROCS_RefColorTversky>
0.161 

> <ROCS_RefTverskyCombo>
0.414 

> <ROCS_FitTversky>
1.545 

> <ROCS_FitColorTversky>
0.669 

> <ROCS_FitTverskyCombo>
2.214 

> <ROCS_ColorScore>
-4.887

> <ROCS_Overlap>
1760.589

> <ROCS_Rank>
280                 

$$$$
untitled-dbase-803_154
  -OEChem-11112315393D

 22 22  0     0  0  0  0  0  0999 V2000
    8.3154    9.5132   24.0259 C   0  0  0  0  0  0  0  0  0  0  0  0
    7.4079   10.1948   24.8366 C   0  0  0  0  0  0  0  0  0  0  0  0
    8.4652   12.2891   24.2593 C   0  0  0  0  0  0  0  0  0  0  0  0
    9.2979   10.2195   23.3318 C   0  0  0  0  0  0  0  0  0  0  0  0
    9.3728   11.6074   23.4486 C   0  0  0  0  0  0  0  0  0  0  0  0
    7.4828   11.5828   24.9534 C   0  0  0  0  0  0  0  0  0  0  0  0
   10.2310    9.4771   22.4934 C   0  0  0  0  0  0  0  0  0  0  0  0
   10.9200   13.5303   23.1818 C   0  0  0  0  0  0  0  0  0  0  0  0
   11.9423   14.0385   22.1917 C   0  0  0  0  0  0  0  0  0  0  0  0
   10.3488   12.3358   22.7628 N   0  0  0  0  0  0  0  0  0  0  0  0
    9.9799    8.4185   21.9122 O   0  0  0  0  0  0  0  0  0  0  0  0
   10.6727   14.1730   24.1986 O   0  0  0  0  0  0  0  0  0  0  0  0
   11.4454   10.0836   22.4087 O   0  0  0  0  0  0  0  0  0  0  0  0
    6.6102   12.2374   25.7308 F   0  0  0  0  0  0  0  0  0  0  0  0
   11.1013   15.0831   21.0353 Cl  0  0  0  0  0  0  0  0  0  0  0  0
    8.2465    8.4315   23.9442 H   0  0  0  0  0  0  0  0  0  0  0  0
    6.6435    9.6459   25.3787 H   0  0  0  0  0  0  0  0  0  0  0  0
    8.5120   13.3705   24.3586 H   0  0  0  0  0  0  0  0  0  0  0  0
   12.4380   13.2331   21.6439 H   0  0  0  0  0  0  0  0  0  0  0  0
   12.6994   14.6257   22.7190 H   0  0  0  0  0  0  0  0  0  0  0  0
   10.6703   11.9561   21.8755 H   0  0  0  0  0  0  0  0  0  0  0  0
   11.4941   10.9168   22.9242 H   0  0  0  0  0  0  0  0  0  0  0  0
  1  2  2  0  0  0  0
  1  4  1  0  0  0  0
  2  6  1  0  0  0  0
  3  5  1  0  0  0  0
  3  6  2  0  0  0  0
  4  5  2  0  0  0  0
  4  7  1  0  0  0  0
  5 10  1  0  0  0  0
  6 14  1  0  0  0  0
  7 11  2  0  0  0  0
  7 13  1  0  0  0  0
  8  9  1  0  0  0  0
  8 10  1  0  0  0  0
  8 12  2  0  0  0  0
  9 15  1  0  0  0  0
  1 16  1  0  0  0  0
  2 17  1  0  0  0  0
  3 18  1  0  0  0  0
  9 19  1  0  0  0  0
  9 20  1  0  0  0  0
 10 21  1  0  0  0  0
 13 22  1  0  0  0  0
M  END
> <Catalog ID>
Z157039522

> <MW>
231.01

> <MW (desalted)>
231.608

> <ClogP>
2.704

> <logS>
-2.61

> <HBD>
2

> <HBA>
3

> <TPSA>
66.4

> <RotBonds>
3

> <ROCS_ShapeQuery>
A71EV2A-x0451_0A_A71EV2A-x0310_0A_A71EV2A-x0416_0A_peptide

> <ROCS_TanimotoCombo>
0.427 

> <ROCS_ShapeTanimoto>
0.300 

> <ROCS_ColorTanimoto>
0.127 

> <ROCS_RefTversky>
0.263 

> <ROCS_RefColorTversky>
0.140 

> <ROCS_RefTverskyCombo>
0.404 

> <ROCS_FitTversky>
1.854 

> <ROCS_FitColorTversky>
0.584 

> <ROCS_FitTverskyCombo>
2.438 

> <ROCS_ColorScore>
-4.262

> <ROCS_Overlap>
1825.339

> <ROCS_Rank>
281                 

$$$$
untitled-dbase-129_40
  -OEChem-11112315393D

 23 23  0     0  0  0  0  0  0999 V2000
    8.2504   12.2804   24.4083 C   0  0  0  0  0  0  0  0  0  0  0  0
    9.9287   10.8890   23.3670 C   0  0  0  0  0  0  0  0  0  0  0  0
    7.4554   11.1558   24.6297 C   0  0  0  0  0  0  0  0  0  0  0  0
    9.1337    9.7644   23.5884 C   0  0  0  0  0  0  0  0  0  0  0  0
    9.4870   12.1470   23.7769 C   0  0  0  0  0  0  0  0  0  0  0  0
    7.8971    9.8978   24.2198 C   0  0  0  0  0  0  0  0  0  0  0  0
   10.3344   13.3448   23.5413 C   0  0  0  0  0  0  0  0  0  0  0  0
   13.2473   14.4230   22.7652 C   0  0  0  0  0  0  0  0  0  0  0  0
   13.9957   15.6707   22.3736 C   0  0  0  0  0  0  0  0  0  0  0  0
   11.1986   13.2647   22.4660 N   0  0  0  0  0  0  0  0  0  0  0  0
   11.9990   14.3441   22.1804 N   0  0  0  0  0  0  0  0  0  0  0  0
   10.2180   14.3195   24.2798 O   0  0  0  0  0  0  0  0  0  0  0  0
   13.7243   13.5953   23.5397 O   0  0  0  0  0  0  0  0  0  0  0  0
    6.9170    8.5105   24.4942 Cl  0  0  0  0  0  0  0  0  0  0  0  0
   13.4460   16.1519   20.7610 Cl  0  0  0  0  0  0  0  0  0  0  0  0
    7.8963   13.2559   24.7313 H   0  0  0  0  0  0  0  0  0  0  0  0
   10.8907   10.7732   22.8744 H   0  0  0  0  0  0  0  0  0  0  0  0
    6.4943   11.2743   25.1234 H   0  0  0  0  0  0  0  0  0  0  0  0
    9.4909    8.7906   23.2633 H   0  0  0  0  0  0  0  0  0  0  0  0
   13.7679   16.4700   23.0841 H   0  0  0  0  0  0  0  0  0  0  0  0
   15.0774   15.5168   22.3431 H   0  0  0  0  0  0  0  0  0  0  0  0
   11.2411   12.4253   21.8986 H   0  0  0  0  0  0  0  0  0  0  0  0
   11.6782   15.0714   21.5499 H   0  0  0  0  0  0  0  0  0  0  0  0
  1  3  2  0  0  0  0
  1  5  1  0  0  0  0
  2  4  1  0  0  0  0
  2  5  2  0  0  0  0
  3  6  1  0  0  0  0
  4  6  2  0  0  0  0
  5  7  1  0  0  0  0
  6 14  1  0  0  0  0
  7 10  1  0  0  0  0
  7 12  2  0  0  0  0
  8  9  1  0  0  0  0
  8 11  1  0  0  0  0
  8 13  2  0  0  0  0
  9 15  1  0  0  0  0
 10 11  1  0  0  0  0
  1 16  1  0  0  0  0
  2 17  1  0  0  0  0
  3 18  1  0  0  0  0
  4 19  1  0  0  0  0
  9 20  1  0  0  0  0
  9 21  1  0  0  0  0
 10 22  1  0  0  0  0
 11 23  1  0  0  0  0
M  END
> <Catalog ID>
Z56899126

> <MW>
245.996

> <MW (desalted)>
247.078

> <ClogP>
1.839

> <logS>
-3.39

> <HBD>
2

> <HBA>
2

> <TPSA>
58.2

> <RotBonds>
3

> <ROCS_ShapeQuery>
A71EV2A-x0451_0A_A71EV2A-x0310_0A_A71EV2A-x0416_0A_peptide

> <ROCS_TanimotoCombo>
0.427 

> <ROCS_ShapeTanimoto>
0.269 

> <ROCS_ColorTanimoto>
0.158 

> <ROCS_RefTversky>
0.242 

> <ROCS_RefColorTversky>
0.166 

> <ROCS_RefTverskyCombo>
0.408 

> <ROCS_FitTversky>
1.733 

> <ROCS_FitColorTversky>
0.763 

> <ROCS_FitTverskyCombo>
2.496 

> <ROCS_ColorScore>
-5.056

> <ROCS_Overlap>
1673.184

> <ROCS_Rank>
282                 

$$$$
untitled-dbase-793_162
  -OEChem-11112315393D

 38 40  0     1  0  0  0  0  0999 V2000
    6.3495   11.6329   26.6608 C   0  0  0  0  0  0  0  0  0  0  0  0
    5.5610   11.6812   25.5149 C   0  0  0  0  0  0  0  0  0  0  0  0
    7.7238   11.4264   26.5513 C   0  0  0  0  0  0  0  0  0  0  0  0
    6.1458   11.5151   24.2598 C   0  0  0  0  0  0  0  0  0  0  0  0
    8.3225   11.2732   25.2924 C   0  0  0  0  0  0  0  0  0  0  0  0
    7.5268   11.2997   24.1374 C   0  0  0  0  0  0  0  0  0  0  0  0
   10.6892   12.8307   23.4917 C   0  0  0  0  0  0  0  0  0  0  0  0
   11.3689   14.4515   22.3398 C   0  0  0  0  0  0  0  0  0  0  0  0
    8.6782    8.3085   20.8007 C   0  0  0  0  0  0  0  0  0  0  0  0
    9.3010    9.4814   20.6666 C   0  0  0  0  0  0  0  0  0  0  0  0
   10.1537    9.9671   21.7715 C   0  0  0  0  0  0  0  0  0  0  0  0
    9.8085   11.0480   25.1958 C   0  0  0  0  0  0  0  0  0  0  0  0
    8.1185   11.1140   22.7637 C   0  0  0  0  0  0  0  0  0  0  0  0
   10.3920   11.3652   23.8060 C   0  0  1  0  0  0  0  0  0  0  0  0
   11.1699   14.8539   19.8730 C   0  0  0  0  0  0  0  0  0  0  0  0
   11.9506   15.1188   21.1684 C   0  0  0  0  0  0  0  0  0  0  0  0
   10.4916   13.9010   24.2253 N   0  0  0  0  0  0  0  0  0  0  0  0
   10.9387   14.9672   23.4674 N   0  0  0  0  0  0  0  0  0  0  0  0
    9.5474   10.7557   22.7548 N   0  0  0  0  0  0  0  0  0  0  0  0
   11.3463    9.6595   21.7510 O   0  0  0  0  0  0  0  0  0  0  0  0
   11.2441   13.0975   22.2778 O   0  0  0  0  0  0  0  0  0  0  0  0
    5.8944   11.7502   27.6397 H   0  0  0  0  0  0  0  0  0  0  0  0
    4.4901   11.8408   25.5977 H   0  0  0  0  0  0  0  0  0  0  0  0
    8.3293   11.3858   27.4549 H   0  0  0  0  0  0  0  0  0  0  0  0
    5.5172   11.5517   23.3723 H   0  0  0  0  0  0  0  0  0  0  0  0
    8.0395    7.8996   20.0249 H   0  0  0  0  0  0  0  0  0  0  0  0
    8.8014    7.7276   21.7086 H   0  0  0  0  0  0  0  0  0  0  0  0
    9.2032   10.0890   19.7765 H   0  0  0  0  0  0  0  0  0  0  0  0
   10.3287   11.6553   25.9586 H   0  0  0  0  0  0  0  0  0  0  0  0
   10.0121    9.9924   25.4500 H   0  0  0  0  0  0  0  0  0  0  0  0
    7.5741   10.3195   22.2552 H   0  0  0  0  0  0  0  0  0  0  0  0
    8.0135   12.0425   22.2040 H   0  0  0  0  0  0  0  0  0  0  0  0
   11.3923   10.8353   23.7509 H   0  0  0  0  0  0  0  0  0  0  0  0
   11.0846   13.7779   19.6873 H   0  0  0  0  0  0  0  0  0  0  0  0
   11.6612   15.3095   19.0076 H   0  0  0  0  0  0  0  0  0  0  0  0
   10.1567   15.2641   19.9428 H   0  0  0  0  0  0  0  0  0  0  0  0
   12.0108   16.2177   21.3138 H   0  0  0  0  0  0  0  0  0  0  0  0
   13.0036   14.8078   21.0038 H   0  0  0  0  0  0  0  0  0  0  0  0
  1  2  1  0  0  0  0
  1  3  2  0  0  0  0
  2  4  2  0  0  0  0
  3  5  1  0  0  0  0
  4  6  1  0  0  0  0
  5  6  2  0  0  0  0
  5 12  1  0  0  0  0
  6 13  1  0  0  0  0
  7 14  1  0  0  0  0
  7 17  2  0  0  0  0
  7 21  1  0  0  0  0
  8 16  1  0  0  0  0
  8 18  2  0  0  0  0
  8 21  1  0  0  0  0
  9 10  2  0  0  0  0
 10 11  1  0  0  0  0
 11 19  1  0  0  0  0
 11 20  2  0  0  0  0
 12 14  1  0  0  0  0
 13 19  1  0  0  0  0
 14 19  1  0  0  0  0
 15 16  1  0  0  0  0
 17 18  1  0  0  0  0
  1 22  1  0  0  0  0
  2 23  1  0  0  0  0
  3 24  1  0  0  0  0
  4 25  1  0  0  0  0
  9 26  1  0  0  0  0
  9 27  1  0  0  0  0
 10 28  1  0  0  0  0
 12 29  1  0  0  0  0
 12 30  1  0  0  0  0
 13 31  1  0  0  0  0
 13 32  1  0  0  0  0
 14 33  1  0  0  0  0
 15 34  1  0  0  0  0
 15 35  1  0  0  0  0
 15 36  1  0  0  0  0
 16 37  1  0  0  0  0
 16 38  1  0  0  0  0
M  END
> <Catalog ID>
Z2737383256

> <MW>
283.325

> <MW (desalted)>
283.325

> <ClogP>
0.794

> <logS>
-2.98

> <HBD>
0

> <HBA>
3

> <TPSA>
59.23

> <RotBonds>
3

> <ROCS_ShapeQuery>
A71EV2A-x0451_0A_A71EV2A-x0310_0A_A71EV2A-x0416_0A_peptide

> <ROCS_TanimotoCombo>
0.427 

> <ROCS_ShapeTanimoto>
0.280 

> <ROCS_ColorTanimoto>
0.147 

> <ROCS_RefTversky>
0.259 

> <ROCS_RefColorTversky>
0.168 

> <ROCS_RefTverskyCombo>
0.427 

> <ROCS_FitTversky>
1.416 

> <ROCS_FitColorTversky>
0.540 

> <ROCS_FitTverskyCombo>
1.957 

> <ROCS_ColorScore>
-5.117

> <ROCS_Overlap>
1799.039

> <ROCS_Rank>
283                 

$$$$
untitled-dbase-480_41
  -OEChem-11112315393D

 22 22  0     0  0  0  0  0  0999 V2000
    8.3891   12.3690   24.2772 C   0  0  0  0  0  0  0  0  0  0  0  0
    7.3786   11.7042   24.9629 C   0  0  0  0  0  0  0  0  0  0  0  0
    9.1597   10.2655   23.4785 C   0  0  0  0  0  0  0  0  0  0  0  0
    9.3007   11.6433   23.5186 C   0  0  0  0  0  0  0  0  0  0  0  0
    7.3234   10.3237   24.8579 C   0  0  0  0  0  0  0  0  0  0  0  0
   10.9462   13.4717   23.1836 C   0  0  0  0  0  0  0  0  0  0  0  0
    5.4271   10.4279   26.2894 C   0  0  0  0  0  0  0  0  0  0  0  0
   12.0143   13.8729   22.1928 C   0  0  0  0  0  0  0  0  0  0  0  0
    8.1911    9.5846   24.1309 N   0  0  0  0  0  0  0  0  0  0  0  0
   10.3231   12.2815   22.8205 N   0  0  0  0  0  0  0  0  0  0  0  0
   10.7078   14.1826   24.1561 O   0  0  0  0  0  0  0  0  0  0  0  0
    6.3370    9.6458   25.5250 O   0  0  0  0  0  0  0  0  0  0  0  0
   11.5313   13.2640   20.6017 Cl  0  0  0  0  0  0  0  0  0  0  0  0
    8.4569   13.4518   24.3407 H   0  0  0  0  0  0  0  0  0  0  0  0
    6.6594   12.2558   25.5585 H   0  0  0  0  0  0  0  0  0  0  0  0
    9.8406    9.6450   22.9036 H   0  0  0  0  0  0  0  0  0  0  0  0
    4.6953    9.7728   26.7682 H   0  0  0  0  0  0  0  0  0  0  0  0
    4.9201   11.1417   25.6352 H   0  0  0  0  0  0  0  0  0  0  0  0
    5.9833   10.9714   27.0568 H   0  0  0  0  0  0  0  0  0  0  0  0
   12.9976   13.4663   22.4425 H   0  0  0  0  0  0  0  0  0  0  0  0
   12.0826   14.9637   22.1527 H   0  0  0  0  0  0  0  0  0  0  0  0
   10.6452   11.8346   21.9628 H   0  0  0  0  0  0  0  0  0  0  0  0
  1  2  2  0  0  0  0
  1  4  1  0  0  0  0
  2  5  1  0  0  0  0
  3  4  2  0  0  0  0
  3  9  1  0  0  0  0
  4 10  1  0  0  0  0
  5  9  2  0  0  0  0
  5 12  1  0  0  0  0
  6  8  1  0  0  0  0
  6 10  1  0  0  0  0
  6 11  2  0  0  0  0
  7 12  1  0  0  0  0
  8 13  1  0  0  0  0
  1 14  1  0  0  0  0
  2 15  1  0  0  0  0
  3 16  1  0  0  0  0
  7 17  1  0  0  0  0
  7 18  1  0  0  0  0
  7 19  1  0  0  0  0
  8 20  1  0  0  0  0
  8 21  1  0  0  0  0
 10 22  1  0  0  0  0
M  END
> <Catalog ID>
Z57043501

> <MW>
200.035

> <MW (desalted)>
200.622

> <ClogP>
1.944

> <logS>
-1.62

> <HBD>
1

> <HBA>
3

> <TPSA>
51.22

> <RotBonds>
3

> <ROCS_ShapeQuery>
A71EV2A-x0451_0A_A71EV2A-x0310_0A_A71EV2A-x0416_0A_peptide

> <ROCS_TanimotoCombo>
0.427 

> <ROCS_ShapeTanimoto>
0.258 

> <ROCS_ColorTanimoto>
0.169 

> <ROCS_RefTversky>
0.231 

> <ROCS_RefColorTversky>
0.175 

> <ROCS_RefTverskyCombo>
0.406 

> <ROCS_FitTversky>
1.792 

> <ROCS_FitColorTversky>
0.838 

> <ROCS_FitTverskyCombo>
2.630 

> <ROCS_ColorScore>
-5.315

> <ROCS_Overlap>
1602.034

> <ROCS_Rank>
284                 

$$$$
untitled-dbase-529_1336
  -OEChem-11112315393D

 38 40  0     1  0  0  0  0  0999 V2000
    5.3670   10.4438   27.5026 C   0  0  0  0  0  0  0  0  0  0  0  0
    6.3518   10.2432   26.5354 C   0  0  0  0  0  0  0  0  0  0  0  0
    4.8666   11.7252   27.7332 C   0  0  0  0  0  0  0  0  0  0  0  0
    6.3359   12.6056   26.0294 C   0  0  0  0  0  0  0  0  0  0  0  0
    6.8363   11.3241   25.7988 C   0  0  0  0  0  0  0  0  0  0  0  0
    5.3511   12.8061   26.9966 C   0  0  0  0  0  0  0  0  0  0  0  0
    7.8491   11.1173   24.8041 C   0  0  0  0  0  0  0  0  0  0  0  0
    9.3884   11.5242   23.4833 C   0  0  0  0  0  0  0  0  0  0  0  0
   11.8431   15.6353   19.8220 C   0  0  0  0  0  0  0  0  0  0  0  0
   12.6148   15.8718   20.8850 C   0  0  0  0  0  0  0  0  0  0  0  0
   12.2247   15.3012   22.1914 C   0  0  0  0  0  0  0  0  0  0  0  0
   12.9411   11.5654   22.0689 C   0  0  0  0  0  0  0  0  0  0  0  0
   11.5310   10.9998   22.2414 C   0  0  0  0  0  0  0  0  0  0  0  0
   12.9319   12.9723   21.4824 C   0  0  0  0  0  0  0  0  0  0  0  0
   11.1617   13.3234   23.2125 C   0  0  0  0  0  0  0  0  0  0  0  0
   10.4930   12.0801   22.6056 C   0  0  2  0  0  0  0  0  0  0  0  0
    8.6291   12.1418   24.3526 N   0  0  0  0  0  0  0  0  0  0  0  0
    8.0911    9.9202   24.2615 N   0  0  0  0  0  0  0  0  0  0  0  0
   12.1262   13.9129   22.2758 N   0  0  0  0  0  0  0  0  0  0  0  0
   12.0034   16.0797   23.1196 O   0  0  0  0  0  0  0  0  0  0  0  0
    9.1332   10.1947   23.3669 O   0  0  0  0  0  0  0  0  0  0  0  0
    4.8706   14.0367   27.2183 F   0  0  0  0  0  0  0  0  0  0  0  0
    4.9895    9.6024   28.0763 H   0  0  0  0  0  0  0  0  0  0  0  0
    6.7323    9.2382   26.3689 H   0  0  0  0  0  0  0  0  0  0  0  0
    4.0987   11.8816   28.4851 H   0  0  0  0  0  0  0  0  0  0  0  0
    6.7028   13.4584   25.4633 H   0  0  0  0  0  0  0  0  0  0  0  0
   12.0771   16.0266   18.8376 H   0  0  0  0  0  0  0  0  0  0  0  0
   10.9464   15.0331   19.9236 H   0  0  0  0  0  0  0  0  0  0  0  0
   13.5165   16.4669   20.8235 H   0  0  0  0  0  0  0  0  0  0  0  0
   13.4532   11.5747   23.0424 H   0  0  0  0  0  0  0  0  0  0  0  0
   13.5265   10.8988   21.4161 H   0  0  0  0  0  0  0  0  0  0  0  0
   11.2278   10.4817   21.3135 H   0  0  0  0  0  0  0  0  0  0  0  0
   11.5502   10.2172   23.0236 H   0  0  0  0  0  0  0  0  0  0  0  0
   13.9580   13.3809   21.4346 H   0  0  0  0  0  0  0  0  0  0  0  0
   12.5678   12.9343   20.4408 H   0  0  0  0  0  0  0  0  0  0  0  0
   10.4070   14.0478   23.5416 H   0  0  0  0  0  0  0  0  0  0  0  0
   11.7240   13.0554   24.1228 H   0  0  0  0  0  0  0  0  0  0  0  0
    9.9865   12.3988   21.6487 H   0  0  0  0  0  0  0  0  0  0  0  0
  1  2  1  0  0  0  0
  1  3  2  0  0  0  0
  2  5  2  0  0  0  0
  3  6  1  0  0  0  0
  4  5  1  0  0  0  0
  4  6  2  0  0  0  0
  5  7  1  0  0  0  0
  6 22  1  0  0  0  0
  7 17  1  0  0  0  0
  7 18  2  0  0  0  0
  8 16  1  0  0  0  0
  8 17  2  0  0  0  0
  8 21  1  0  0  0  0
  9 10  2  0  0  0  0
 10 11  1  0  0  0  0
 11 19  1  0  0  0  0
 11 20  2  0  0  0  0
 12 13  1  0  0  0  0
 12 14  1  0  0  0  0
 13 16  1  0  0  0  0
 14 19  1  0  0  0  0
 15 16  1  0  0  0  0
 15 19  1  0  0  0  0
 18 21  1  0  0  0  0
  1 23  1  0  0  0  0
  2 24  1  0  0  0  0
  3 25  1  0  0  0  0
  4 26  1  0  0  0  0
  9 27  1  0  0  0  0
  9 28  1  0  0  0  0
 10 29  1  0  0  0  0
 12 30  1  0  0  0  0
 12 31  1  0  0  0  0
 13 32  1  0  0  0  0
 13 33  1  0  0  0  0
 14 34  1  0  0  0  0
 14 35  1  0  0  0  0
 15 36  1  0  0  0  0
 15 37  1  0  0  0  0
 16 38  1  0  0  0  0
M  END
> <Catalog ID>
Z2285377431

> <MW>
301.316

> <MW (desalted)>
301.316

> <ClogP>
1.951

> <logS>
-4.06

> <HBD>
0

> <HBA>
3

> <TPSA>
59.23

> <RotBonds>
3

> <ROCS_ShapeQuery>
A71EV2A-x0451_0A_A71EV2A-x0310_0A_A71EV2A-x0416_0A_peptide

> <ROCS_TanimotoCombo>
0.427 

> <ROCS_ShapeTanimoto>
0.322 

> <ROCS_ColorTanimoto>
0.105 

> <ROCS_RefTversky>
0.289 

> <ROCS_RefColorTversky>
0.121 

> <ROCS_RefTverskyCombo>
0.410 

> <ROCS_FitTversky>
1.533 

> <ROCS_FitColorTversky>
0.446 

> <ROCS_FitTverskyCombo>
1.979 

> <ROCS_ColorScore>
-3.681

> <ROCS_Overlap>
2010.594

> <ROCS_Rank>
285                 

$$$$
untitled-dbase-205_35
  -OEChem-11112315393D

 23 23  0     0  0  0  0  0  0999 V2000
    9.0900    9.3156   23.2607 C   0  0  0  0  0  0  0  0  0  0  0  0
    9.9176   10.3058   22.7315 C   0  0  0  0  0  0  0  0  0  0  0  0
    8.0796    9.6580   24.1595 C   0  0  0  0  0  0  0  0  0  0  0  0
    8.7246   11.9808   23.9997 C   0  0  0  0  0  0  0  0  0  0  0  0
    9.7350   11.6384   23.1010 C   0  0  0  0  0  0  0  0  0  0  0  0
    7.8970   10.9906   24.5290 C   0  0  0  0  0  0  0  0  0  0  0  0
   10.9255   13.8146   23.1993 C   0  0  0  0  0  0  0  0  0  0  0  0
    6.7802   12.7056   25.7403 C   0  0  0  0  0  0  0  0  0  0  0  0
   11.8353   14.6533   22.3319 C   0  0  0  0  0  0  0  0  0  0  0  0
   10.5629   12.6286   22.5711 N   0  0  0  0  0  0  0  0  0  0  0  0
   10.5812   14.2202   24.3061 O   0  0  0  0  0  0  0  0  0  0  0  0
    6.9112   11.3248   25.4061 O   0  0  0  0  0  0  0  0  0  0  0  0
   11.4264   14.3215   20.6413 Cl  0  0  0  0  0  0  0  0  0  0  0  0
    9.2319    8.2784   22.9721 H   0  0  0  0  0  0  0  0  0  0  0  0
   10.7020   10.0273   22.0324 H   0  0  0  0  0  0  0  0  0  0  0  0
    7.4380    8.8820   24.5674 H   0  0  0  0  0  0  0  0  0  0  0  0
    8.5780   13.0186   24.2905 H   0  0  0  0  0  0  0  0  0  0  0  0
    5.9574   12.8335   26.4479 H   0  0  0  0  0  0  0  0  0  0  0  0
    6.5883   13.2843   24.8333 H   0  0  0  0  0  0  0  0  0  0  0  0
    7.7098   13.0498   26.1999 H   0  0  0  0  0  0  0  0  0  0  0  0
   12.8937   14.4306   22.4892 H   0  0  0  0  0  0  0  0  0  0  0  0
   11.6621   15.7128   22.5404 H   0  0  0  0  0  0  0  0  0  0  0  0
   10.9363   12.4676   21.6375 H   0  0  0  0  0  0  0  0  0  0  0  0
  1  2  1  0  0  0  0
  1  3  2  0  0  0  0
  2  5  2  0  0  0  0
  3  6  1  0  0  0  0
  4  5  1  0  0  0  0
  4  6  2  0  0  0  0
  5 10  1  0  0  0  0
  6 12  1  0  0  0  0
  7  9  1  0  0  0  0
  7 10  1  0  0  0  0
  7 11  2  0  0  0  0
  8 12  1  0  0  0  0
  9 13  1  0  0  0  0
  1 14  1  0  0  0  0
  2 15  1  0  0  0  0
  3 16  1  0  0  0  0
  4 17  1  0  0  0  0
  8 18  1  0  0  0  0
  8 19  1  0  0  0  0
  8 20  1  0  0  0  0
  9 21  1  0  0  0  0
  9 22  1  0  0  0  0
 10 23  1  0  0  0  0
M  END
> <Catalog ID>
Z56896296

> <MW>
199.04

> <MW (desalted)>
199.634

> <ClogP>
1.849

> <logS>
-2.21

> <HBD>
1

> <HBA>
2

> <TPSA>
38.33

> <RotBonds>
3

> <ROCS_ShapeQuery>
A71EV2A-x0451_0A_A71EV2A-x0310_0A_A71EV2A-x0416_0A_peptide

> <ROCS_TanimotoCombo>
0.427 

> <ROCS_ShapeTanimoto>
0.280 

> <ROCS_ColorTanimoto>
0.147 

> <ROCS_RefTversky>
0.247 

> <ROCS_RefColorTversky>
0.151 

> <ROCS_RefTverskyCombo>
0.398 

> <ROCS_FitTversky>
1.924 

> <ROCS_FitColorTversky>
0.848 

> <ROCS_FitTverskyCombo>
2.772 

> <ROCS_ColorScore>
-4.567

> <ROCS_Overlap>
1710.035

> <ROCS_Rank>
286                 

$$$$
untitled-dbase-72_416
  -OEChem-11112315393D

 36 37  0     0  0  0  0  0  0999 V2000
    8.1510   12.1778   24.4744 C   0  0  0  0  0  0  0  0  0  0  0  0
    7.3322   11.2058   24.9852 C   0  0  0  0  0  0  0  0  0  0  0  0
    9.0772   11.4604   23.6977 C   0  0  0  0  0  0  0  0  0  0  0  0
   13.7699   15.6553   17.7353 C   0  0  0  0  0  0  0  0  0  0  0  0
   12.8935   16.5786   18.1361 C   0  0  0  0  0  0  0  0  0  0  0  0
   12.7421   16.8386   19.5830 C   0  0  0  0  0  0  0  0  0  0  0  0
   10.8257   13.2154   23.2652 C   0  0  0  0  0  0  0  0  0  0  0  0
   11.2206   13.5937   20.8617 C   0  0  0  0  0  0  0  0  0  0  0  0
   12.6592   14.7647   22.6187 C   0  0  0  0  0  0  0  0  0  0  0  0
   12.0518   14.4177   19.8838 C   0  0  0  0  0  0  0  0  0  0  0  0
   12.1921   15.9822   21.8265 C   0  0  0  0  0  0  0  0  0  0  0  0
   11.8826   13.4975   22.2394 C   0  0  0  0  0  0  0  0  0  0  0  0
    6.1608   11.2252   25.8703 C   0  0  0  0  0  0  0  0  0  0  0  0
    8.8501   10.1442   23.7246 N   0  0  0  0  0  0  0  0  0  0  0  0
   12.3408   15.7701   20.3837 N   0  0  0  0  0  0  0  0  0  0  0  0
   10.1355   12.0480   22.9647 N   0  0  0  0  0  0  0  0  0  0  0  0
   12.9857   17.9734   19.9953 O   0  0  0  0  0  0  0  0  0  0  0  0
   10.6596   13.9684   24.2193 O   0  0  0  0  0  0  0  0  0  0  0  0
    7.7392    9.9878   24.5449 O   0  0  0  0  0  0  0  0  0  0  0  0
    8.0850   13.2429   24.6405 H   0  0  0  0  0  0  0  0  0  0  0  0
   13.9255   15.4201   16.6877 H   0  0  0  0  0  0  0  0  0  0  0  0
   14.3576   15.1093   18.4658 H   0  0  0  0  0  0  0  0  0  0  0  0
   12.2899   17.1438   17.4380 H   0  0  0  0  0  0  0  0  0  0  0  0
   10.2214   14.0319   20.9463 H   0  0  0  0  0  0  0  0  0  0  0  0
   11.0966   12.5836   20.4565 H   0  0  0  0  0  0  0  0  0  0  0  0
   13.7234   14.6015   22.4204 H   0  0  0  0  0  0  0  0  0  0  0  0
   12.5558   14.9673   23.6886 H   0  0  0  0  0  0  0  0  0  0  0  0
   12.9906   13.8818   19.6579 H   0  0  0  0  0  0  0  0  0  0  0  0
   11.5271   14.5313   18.9174 H   0  0  0  0  0  0  0  0  0  0  0  0
   11.1253   16.1780   22.0135 H   0  0  0  0  0  0  0  0  0  0  0  0
   12.7190   16.8775   22.1732 H   0  0  0  0  0  0  0  0  0  0  0  0
   12.5514   12.6421   22.2583 H   0  0  0  0  0  0  0  0  0  0  0  0
    5.2211   11.3201   25.2965 H   0  0  0  0  0  0  0  0  0  0  0  0
    6.0803   10.3076   26.4831 H   0  0  0  0  0  0  0  0  0  0  0  0
    6.1914   12.0635   26.5917 H   0  0  0  0  0  0  0  0  0  0  0  0
   10.4136   11.5472   22.1233 H   0  0  0  0  0  0  0  0  0  0  0  0
  1  2  2  0  0  0  0
  1  3  1  0  0  0  0
  2 13  1  0  0  0  0
  2 19  1  0  0  0  0
  3 14  2  0  0  0  0
  3 16  1  0  0  0  0
  4  5  2  0  0  0  0
  5  6  1  0  0  0  0
  6 15  1  0  0  0  0
  6 17  2  0  0  0  0
  7 12  1  0  0  0  0
  7 16  1  0  0  0  0
  7 18  2  0  0  0  0
  8 10  1  0  0  0  0
  8 12  1  0  0  0  0
  9 11  1  0  0  0  0
  9 12  1  0  0  0  0
 10 15  1  0  0  0  0
 11 15  1  0  0  0  0
 14 19  1  0  0  0  0
  1 20  1  0  0  0  0
  4 21  1  0  0  0  0
  4 22  1  0  0  0  0
  5 23  1  0  0  0  0
  8 24  1  0  0  0  0
  8 25  1  0  0  0  0
  9 26  1  0  0  0  0
  9 27  1  0  0  0  0
 10 28  1  0  0  0  0
 10 29  1  0  0  0  0
 11 30  1  0  0  0  0
 11 31  1  0  0  0  0
 12 32  1  0  0  0  0
 13 33  1  0  0  0  0
 13 34  1  0  0  0  0
 13 35  1  0  0  0  0
 16 36  1  0  0  0  0
M  END
> <Catalog ID>
Z2737383162

> <MW>
263.292

> <MW (desalted)>
263.292

> <ClogP>
-0.083

> <logS>
-2.043

> <HBD>
1

> <HBA>
3

> <TPSA>
75.44

> <RotBonds>
3

> <ROCS_ShapeQuery>
A71EV2A-x0451_0A_A71EV2A-x0310_0A_A71EV2A-x0416_0A_peptide

> <ROCS_TanimotoCombo>
0.427 

> <ROCS_ShapeTanimoto>
0.294 

> <ROCS_ColorTanimoto>
0.133 

> <ROCS_RefTversky>
0.265 

> <ROCS_RefColorTversky>
0.149 

> <ROCS_RefTverskyCombo>
0.414 

> <ROCS_FitTversky>
1.580 

> <ROCS_FitColorTversky>
0.552 

> <ROCS_FitTverskyCombo>
2.132 

> <ROCS_ColorScore>
-4.547

> <ROCS_Overlap>
1839.445

> <ROCS_Rank>
287                 

$$$$
untitled-dbase-270_39
  -OEChem-11112315393D

 21 22  0     0  0  0  0  0  0999 V2000
    8.0558   10.8995   25.1095 C   0  0  0  0  0  0  0  0  0  0  0  0
    9.3366   11.3880   23.5167 C   0  0  0  0  0  0  0  0  0  0  0  0
   10.8007   13.3675   23.1994 C   0  0  0  0  0  0  0  0  0  0  0  0
    5.7715   10.8390   26.3939 C   0  0  0  0  0  0  0  0  0  0  0  0
    6.4127   12.1503   26.7250 C   0  0  0  0  0  0  0  0  0  0  0  0
    7.2780   10.9459   26.4355 C   0  0  0  0  0  0  0  0  0  0  0  0
   11.7512   13.9247   22.1652 C   0  0  0  0  0  0  0  0  0  0  0  0
    7.9481    9.9160   24.2469 N   0  0  0  0  0  0  0  0  0  0  0  0
    8.7908   10.2373   23.1992 N   0  0  0  0  0  0  0  0  0  0  0  0
   10.2431   12.1350   22.8151 N   0  0  0  0  0  0  0  0  0  0  0  0
   10.5751   13.9935   24.2315 O   0  0  0  0  0  0  0  0  0  0  0  0
    8.9203   11.8751   24.7176 O   0  0  0  0  0  0  0  0  0  0  0  0
   11.6977   15.6910   22.2787 Cl  0  0  0  0  0  0  0  0  0  0  0  0
    5.2846   10.2976   27.1959 H   0  0  0  0  0  0  0  0  0  0  0  0
    5.2809   10.7473   25.4323 H   0  0  0  0  0  0  0  0  0  0  0  0
    6.3552   12.9406   25.9861 H   0  0  0  0  0  0  0  0  0  0  0  0
    6.3595   12.4946   27.7507 H   0  0  0  0  0  0  0  0  0  0  0  0
    7.7840   10.4857   27.2761 H   0  0  0  0  0  0  0  0  0  0  0  0
   11.4892   13.6285   21.1463 H   0  0  0  0  0  0  0  0  0  0  0  0
   12.7671   13.5830   22.3826 H   0  0  0  0  0  0  0  0  0  0  0  0
   10.5498   11.7539   21.9083 H   0  0  0  0  0  0  0  0  0  0  0  0
  1  6  1  0  0  0  0
  1  8  2  0  0  0  0
  1 12  1  0  0  0  0
  2  9  2  0  0  0  0
  2 10  1  0  0  0  0
  2 12  1  0  0  0  0
  3  7  1  0  0  0  0
  3 10  1  0  0  0  0
  3 11  2  0  0  0  0
  4  5  1  0  0  0  0
  4  6  1  0  0  0  0
  5  6  1  0  0  0  0
  7 13  1  0  0  0  0
  8  9  1  0  0  0  0
  4 14  1  0  0  0  0
  4 15  1  0  0  0  0
  5 16  1  0  0  0  0
  5 17  1  0  0  0  0
  6 18  1  0  0  0  0
  7 19  1  0  0  0  0
  7 20  1  0  0  0  0
 10 21  1  0  0  0  0
M  END
> <Catalog ID>
Z362020356

> <MW>
201.031

> <MW (desalted)>
201.61

> <ClogP>
0.181

> <logS>
-1.79

> <HBD>
1

> <HBA>
3

> <TPSA>
68.02

> <RotBonds>
3

> <ROCS_ShapeQuery>
A71EV2A-x0451_0A_A71EV2A-x0310_0A_A71EV2A-x0416_0A_peptide

> <ROCS_TanimotoCombo>
0.427 

> <ROCS_ShapeTanimoto>
0.255 

> <ROCS_ColorTanimoto>
0.172 

> <ROCS_RefTversky>
0.230 

> <ROCS_RefColorTversky>
0.178 

> <ROCS_RefTverskyCombo>
0.408 

> <ROCS_FitTversky>
1.764 

> <ROCS_FitColorTversky>
0.819 

> <ROCS_FitTverskyCombo>
2.583 

> <ROCS_ColorScore>
-5.422

> <ROCS_Overlap>
1590.189

> <ROCS_Rank>
288                 

$$$$
untitled-dbase-942_130
  -OEChem-11112315393D

 26 26  0     0  0  0  0  0  0999 V2000
    5.9204   11.3512   25.2972 C   0  0  0  0  0  0  0  0  0  0  0  0
    6.5920   10.1321   25.3879 C   0  0  0  0  0  0  0  0  0  0  0  0
    6.5834   12.4782   24.8113 C   0  0  0  0  0  0  0  0  0  0  0  0
    7.9265   10.0398   24.9927 C   0  0  0  0  0  0  0  0  0  0  0  0
    7.9179   12.3860   24.4162 C   0  0  0  0  0  0  0  0  0  0  0  0
    8.5895   11.1668   24.5068 C   0  0  0  0  0  0  0  0  0  0  0  0
   11.4930   15.2982   21.9758 C   0  0  0  0  0  0  0  0  0  0  0  0
   10.8030   13.2988   23.2750 C   0  0  0  0  0  0  0  0  0  0  0  0
   10.0260   11.0684   24.0816 C   0  0  0  0  0  0  0  0  0  0  0  0
   11.6141   15.7696   20.5488 C   0  0  0  0  0  0  0  0  0  0  0  0
   11.0310   13.9870   22.0737 N   0  0  0  0  0  0  0  0  0  0  0  0
   10.3439   12.0061   23.0296 N   0  0  0  0  0  0  0  0  0  0  0  0
   11.7641   16.0313   22.9248 O   0  0  0  0  0  0  0  0  0  0  0  0
   10.9844   13.7722   24.3957 O   0  0  0  0  0  0  0  0  0  0  0  0
   13.2308   15.3383   19.9701 Cl  0  0  0  0  0  0  0  0  0  0  0  0
    4.8809   11.4225   25.6037 H   0  0  0  0  0  0  0  0  0  0  0  0
    6.0756    9.2542   25.7652 H   0  0  0  0  0  0  0  0  0  0  0  0
    6.0605   13.4273   24.7396 H   0  0  0  0  0  0  0  0  0  0  0  0
    8.4418    9.0858   25.0670 H   0  0  0  0  0  0  0  0  0  0  0  0
    8.4264   13.2694   24.0390 H   0  0  0  0  0  0  0  0  0  0  0  0
   10.6935   11.2703   24.9264 H   0  0  0  0  0  0  0  0  0  0  0  0
   10.2595   10.0630   23.7157 H   0  0  0  0  0  0  0  0  0  0  0  0
   10.8664   15.2614   19.9339 H   0  0  0  0  0  0  0  0  0  0  0  0
   11.4824   16.8500   20.4495 H   0  0  0  0  0  0  0  0  0  0  0  0
   10.8445   13.4904   21.2070 H   0  0  0  0  0  0  0  0  0  0  0  0
   10.1866   11.7180   22.0690 H   0  0  0  0  0  0  0  0  0  0  0  0
  1  2  1  0  0  0  0
  1  3  2  0  0  0  0
  2  4  2  0  0  0  0
  3  5  1  0  0  0  0
  4  6  1  0  0  0  0
  5  6  2  0  0  0  0
  6  9  1  0  0  0  0
  7 10  1  0  0  0  0
  7 11  1  0  0  0  0
  7 13  2  0  0  0  0
  8 11  1  0  0  0  0
  8 12  1  0  0  0  0
  8 14  2  0  0  0  0
  9 12  1  0  0  0  0
 10 15  1  0  0  0  0
  1 16  1  0  0  0  0
  2 17  1  0  0  0  0
  3 18  1  0  0  0  0
  4 19  1  0  0  0  0
  5 20  1  0  0  0  0
  9 21  1  0  0  0  0
  9 22  1  0  0  0  0
 10 23  1  0  0  0  0
 10 24  1  0  0  0  0
 11 25  1  0  0  0  0
 12 26  1  0  0  0  0
M  END
> <Catalog ID>
Z56876462

> <MW>
226.051

> <MW (desalted)>
226.66

> <ClogP>
2.163

> <logS>
-2.37

> <HBD>
2

> <HBA>
2

> <TPSA>
58.2

> <RotBonds>
3

> <ROCS_ShapeQuery>
A71EV2A-x0451_0A_A71EV2A-x0310_0A_A71EV2A-x0416_0A_peptide

> <ROCS_TanimotoCombo>
0.426 

> <ROCS_ShapeTanimoto>
0.264 

> <ROCS_ColorTanimoto>
0.162 

> <ROCS_RefTversky>
0.238 

> <ROCS_RefColorTversky>
0.169 

> <ROCS_RefTverskyCombo>
0.407 

> <ROCS_FitTversky>
1.706 

> <ROCS_FitColorTversky>
0.807 

> <ROCS_FitTverskyCombo>
2.514 

> <ROCS_ColorScore>
-5.123

> <ROCS_Overlap>
1649.903

> <ROCS_Rank>
289                 

$$$$
untitled-dbase-876_186
  -OEChem-11112315393D

 25 25  0     0  0  0  0  0  0999 V2000
    7.4904   11.5586   24.9509 C   0  0  0  0  0  0  0  0  0  0  0  0
    8.3262    9.5044   23.9924 C   0  0  0  0  0  0  0  0  0  0  0  0
    8.4689   12.2772   24.2641 C   0  0  0  0  0  0  0  0  0  0  0  0
    9.3760   11.6094   23.4414 C   0  0  0  0  0  0  0  0  0  0  0  0
    7.4191   10.1722   24.8151 C   0  0  0  0  0  0  0  0  0  0  0  0
    9.3047   10.2230   23.3056 C   0  0  0  0  0  0  0  0  0  0  0  0
    8.5128   13.7251   24.4308 C   0  0  0  0  0  0  0  0  0  0  0  0
   10.9311   13.5275   23.1857 C   0  0  0  0  0  0  0  0  0  0  0  0
    8.7770   15.4715   26.0302 C   0  0  0  0  0  0  0  0  0  0  0  0
   11.9522   14.0396   22.1965 C   0  0  0  0  0  0  0  0  0  0  0  0
   10.3552   12.3409   22.7570 N   0  0  0  0  0  0  0  0  0  0  0  0
    8.3817   14.5367   23.5078 O   0  0  0  0  0  0  0  0  0  0  0  0
   10.6903   14.1625   24.2089 O   0  0  0  0  0  0  0  0  0  0  0  0
    8.7159   14.0714   25.7373 O   0  0  0  0  0  0  0  0  0  0  0  0
    6.2133    9.2853   25.6645 Cl  0  0  0  0  0  0  0  0  0  0  0  0
   10.4064    9.3527   22.2975 Cl  0  0  0  0  0  0  0  0  0  0  0  0
   11.1121   15.0980   21.0521 Cl  0  0  0  0  0  0  0  0  0  0  0  0
    6.7851   12.0811   25.5940 H   0  0  0  0  0  0  0  0  0  0  0  0
    8.2680    8.4229   23.8890 H   0  0  0  0  0  0  0  0  0  0  0  0
    8.9418   15.6137   27.1010 H   0  0  0  0  0  0  0  0  0  0  0  0
    7.8415   15.9490   25.7281 H   0  0  0  0  0  0  0  0  0  0  0  0
    9.6063   15.9151   25.4741 H   0  0  0  0  0  0  0  0  0  0  0  0
   12.4423   13.2367   21.6401 H   0  0  0  0  0  0  0  0  0  0  0  0
   12.7139   14.6187   22.7262 H   0  0  0  0  0  0  0  0  0  0  0  0
   10.6720   11.9687   21.8664 H   0  0  0  0  0  0  0  0  0  0  0  0
  1  3  1  0  0  0  0
  1  5  2  0  0  0  0
  2  5  1  0  0  0  0
  2  6  2  0  0  0  0
  3  4  2  0  0  0  0
  3  7  1  0  0  0  0
  4  6  1  0  0  0  0
  4 11  1  0  0  0  0
  5 15  1  0  0  0  0
  6 16  1  0  0  0  0
  7 12  2  0  0  0  0
  7 14  1  0  0  0  0
  8 10  1  0  0  0  0
  8 11  1  0  0  0  0
  8 13  2  0  0  0  0
  9 14  1  0  0  0  0
 10 17  1  0  0  0  0
  1 18  1  0  0  0  0
  2 19  1  0  0  0  0
  9 20  1  0  0  0  0
  9 21  1  0  0  0  0
  9 22  1  0  0  0  0
 10 23  1  0  0  0  0
 10 24  1  0  0  0  0
 11 25  1  0  0  0  0
M  END
> <Catalog ID>
Z271137682

> <MW>
294.957

> <MW (desalted)>
296.534

> <ClogP>
2.91

> <logS>
-3.97

> <HBD>
1

> <HBA>
2

> <TPSA>
55.4

> <RotBonds>
4

> <ROCS_ShapeQuery>
A71EV2A-x0451_0A_A71EV2A-x0310_0A_A71EV2A-x0416_0A_peptide

> <ROCS_TanimotoCombo>
0.426 

> <ROCS_ShapeTanimoto>
0.290 

> <ROCS_ColorTanimoto>
0.136 

> <ROCS_RefTversky>
0.259 

> <ROCS_RefColorTversky>
0.141 

> <ROCS_RefTverskyCombo>
0.400 

> <ROCS_FitTversky>
1.713 

> <ROCS_FitColorTversky>
0.793 

> <ROCS_FitTverskyCombo>
2.506 

> <ROCS_ColorScore>
-4.269

> <ROCS_Overlap>
1795.800

> <ROCS_Rank>
290                 

$$$$
untitled-dbase-677_811
  -OEChem-11112315393D

 37 38  0     0  0  0  0  0  0999 V2000
   11.8889   15.3054   21.1712 C   0  0  0  0  0  0  0  0  0  0  0  0
   13.0614   14.5266   22.9962 C   0  0  0  0  0  0  0  0  0  0  0  0
    7.1579    6.8945   23.5181 C   0  0  0  0  0  0  0  0  0  0  0  0
    7.1925    7.6230   24.6359 C   0  0  0  0  0  0  0  0  0  0  0  0
    6.7193    9.0278   24.5903 C   0  0  0  0  0  0  0  0  0  0  0  0
   10.4894   13.1445   23.4873 C   0  0  0  0  0  0  0  0  0  0  0  0
   12.9370   16.3468   21.4388 C   0  0  0  0  0  0  0  0  0  0  0  0
   13.7120   15.8319   22.6402 C   0  0  0  0  0  0  0  0  0  0  0  0
    7.2951   11.3933   24.2422 C   0  0  0  0  0  0  0  0  0  0  0  0
    9.0872    9.6695   24.0242 C   0  0  0  0  0  0  0  0  0  0  0  0
    8.4578   12.3061   24.6087 C   0  0  0  0  0  0  0  0  0  0  0  0
    9.7715   10.7386   23.1776 C   0  0  0  0  0  0  0  0  0  0  0  0
   11.1938   13.1244   22.1531 C   0  0  0  0  0  0  0  0  0  0  0  0
   12.0287   14.2861   22.1015 N   0  0  0  0  0  0  0  0  0  0  0  0
    7.6795    9.9839   24.2885 N   0  0  0  0  0  0  0  0  0  0  0  0
    9.6168   12.0853   23.7414 N   0  0  0  0  0  0  0  0  0  0  0  0
   11.0632   15.3837   20.2721 O   0  0  0  0  0  0  0  0  0  0  0  0
   13.4116   13.8200   23.9314 O   0  0  0  0  0  0  0  0  0  0  0  0
    5.5332    9.2012   24.8369 O   0  0  0  0  0  0  0  0  0  0  0  0
   10.7077   14.0651   24.2785 O   0  0  0  0  0  0  0  0  0  0  0  0
    7.4902    5.8622   23.4887 H   0  0  0  0  0  0  0  0  0  0  0  0
    6.7882    7.3301   22.5959 H   0  0  0  0  0  0  0  0  0  0  0  0
    7.5539    7.2239   25.5747 H   0  0  0  0  0  0  0  0  0  0  0  0
   13.5836   16.4543   20.5629 H   0  0  0  0  0  0  0  0  0  0  0  0
   12.4576   17.3061   21.6550 H   0  0  0  0  0  0  0  0  0  0  0  0
   13.6424   16.5226   23.4856 H   0  0  0  0  0  0  0  0  0  0  0  0
   14.7648   15.6649   22.3943 H   0  0  0  0  0  0  0  0  0  0  0  0
    6.4627   11.6150   24.9202 H   0  0  0  0  0  0  0  0  0  0  0  0
    6.9439   11.6054   23.2199 H   0  0  0  0  0  0  0  0  0  0  0  0
    9.1091    8.6980   23.5041 H   0  0  0  0  0  0  0  0  0  0  0  0
    9.6407    9.5329   24.9654 H   0  0  0  0  0  0  0  0  0  0  0  0
    8.1339   13.3550   24.5624 H   0  0  0  0  0  0  0  0  0  0  0  0
    8.7839   12.1185   25.6430 H   0  0  0  0  0  0  0  0  0  0  0  0
   10.8555   10.5384   23.1118 H   0  0  0  0  0  0  0  0  0  0  0  0
    9.3873   10.6823   22.1486 H   0  0  0  0  0  0  0  0  0  0  0  0
   10.4402   13.1461   21.3715 H   0  0  0  0  0  0  0  0  0  0  0  0
   11.7822   12.2135   22.0938 H   0  0  0  0  0  0  0  0  0  0  0  0
  1  7  1  0  0  0  0
  1 14  1  0  0  0  0
  1 17  2  0  0  0  0
  2  8  1  0  0  0  0
  2 14  1  0  0  0  0
  2 18  2  0  0  0  0
  3  4  2  0  0  0  0
  4  5  1  0  0  0  0
  5 15  1  0  0  0  0
  5 19  2  0  0  0  0
  6 13  1  0  0  0  0
  6 16  1  0  0  0  0
  6 20  2  0  0  0  0
  7  8  1  0  0  0  0
  9 11  1  0  0  0  0
  9 15  1  0  0  0  0
 10 12  1  0  0  0  0
 10 15  1  0  0  0  0
 11 16  1  0  0  0  0
 12 16  1  0  0  0  0
 13 14  1  0  0  0  0
  3 21  1  0  0  0  0
  3 22  1  0  0  0  0
  4 23  1  0  0  0  0
  7 24  1  0  0  0  0
  7 25  1  0  0  0  0
  8 26  1  0  0  0  0
  8 27  1  0  0  0  0
  9 28  1  0  0  0  0
  9 29  1  0  0  0  0
 10 30  1  0  0  0  0
 10 31  1  0  0  0  0
 11 32  1  0  0  0  0
 11 33  1  0  0  0  0
 12 34  1  0  0  0  0
 12 35  1  0  0  0  0
 13 36  1  0  0  0  0
 13 37  1  0  0  0  0
M  END
> <Catalog ID>
Z2285377380

> <MW>
279.292

> <MW (desalted)>
279.292

> <ClogP>
-0.368

> <logS>
-1.618

> <HBD>
0

> <HBA>
4

> <TPSA>
78

> <RotBonds>
3

> <ROCS_ShapeQuery>
A71EV2A-x0451_0A_A71EV2A-x0310_0A_A71EV2A-x0416_0A_peptide

> <ROCS_TanimotoCombo>
0.426 

> <ROCS_ShapeTanimoto>
0.299 

> <ROCS_ColorTanimoto>
0.127 

> <ROCS_RefTversky>
0.271 

> <ROCS_RefColorTversky>
0.143 

> <ROCS_RefTverskyCombo>
0.413 

> <ROCS_FitTversky>
1.552 

> <ROCS_FitColorTversky>
0.529 

> <ROCS_FitTverskyCombo>
2.081 

> <ROCS_ColorScore>
-4.356

> <ROCS_Overlap>
1877.558

> <ROCS_Rank>
291                 

$$$$
untitled-dbase-688_61
  -OEChem-11112315393D

 26 26  0     0  0  0  0  0  0999 V2000
    7.4401   11.6297   24.9606 C   0  0  0  0  0  0  0  0  0  0  0  0
    7.3533   10.2406   24.8687 C   0  0  0  0  0  0  0  0  0  0  0  0
    8.4379   12.3137   24.2660 C   0  0  0  0  0  0  0  0  0  0  0  0
    8.2643    9.5355   24.0823 C   0  0  0  0  0  0  0  0  0  0  0  0
    9.3489   11.6085   23.4796 C   0  0  0  0  0  0  0  0  0  0  0  0
    9.2621   10.2194   23.3877 C   0  0  0  0  0  0  0  0  0  0  0  0
    8.1534    8.0853   24.0013 C   0  0  0  0  0  0  0  0  0  0  0  0
   10.9240   13.5054   23.1907 C   0  0  0  0  0  0  0  0  0  0  0  0
    9.1131    6.1311   23.0301 C   0  0  0  0  0  0  0  0  0  0  0  0
   11.9645   13.9792   22.2026 C   0  0  0  0  0  0  0  0  0  0  0  0
   10.3420   12.3092   22.7907 N   0  0  0  0  0  0  0  0  0  0  0  0
    7.2946    7.4171   24.5893 O   0  0  0  0  0  0  0  0  0  0  0  0
   10.6729   14.1729   24.1905 O   0  0  0  0  0  0  0  0  0  0  0  0
   10.1543    9.5279   22.6199 O   0  0  0  0  0  0  0  0  0  0  0  0
    9.1183    7.5536   23.1914 O   0  0  0  0  0  0  0  0  0  0  0  0
   11.1510   15.0093   21.0140 Cl  0  0  0  0  0  0  0  0  0  0  0  0
    6.7307   12.1795   25.5722 H   0  0  0  0  0  0  0  0  0  0  0  0
    6.5716    9.7194   25.4152 H   0  0  0  0  0  0  0  0  0  0  0  0
    8.4961   13.3962   24.3463 H   0  0  0  0  0  0  0  0  0  0  0  0
    9.9278    5.8362   22.3642 H   0  0  0  0  0  0  0  0  0  0  0  0
    8.1541    5.8144   22.6123 H   0  0  0  0  0  0  0  0  0  0  0  0
    9.2556    5.6620   24.0065 H   0  0  0  0  0  0  0  0  0  0  0  0
   12.4562   13.1559   21.6782 H   0  0  0  0  0  0  0  0  0  0  0  0
   12.7228   14.5678   22.7265 H   0  0  0  0  0  0  0  0  0  0  0  0
   10.6690   11.9063   21.9155 H   0  0  0  0  0  0  0  0  0  0  0  0
    9.9627    8.5789   22.6611 H   0  0  0  0  0  0  0  0  0  0  0  0
  1  2  2  0  0  0  0
  1  3  1  0  0  0  0
  2  4  1  0  0  0  0
  3  5  2  0  0  0  0
  4  6  2  0  0  0  0
  4  7  1  0  0  0  0
  5  6  1  0  0  0  0
  5 11  1  0  0  0  0
  6 14  1  0  0  0  0
  7 12  2  0  0  0  0
  7 15  1  0  0  0  0
  8 10  1  0  0  0  0
  8 11  1  0  0  0  0
  8 13  2  0  0  0  0
  9 15  1  0  0  0  0
 10 16  1  0  0  0  0
  1 17  1  0  0  0  0
  2 18  1  0  0  0  0
  3 19  1  0  0  0  0
  9 20  1  0  0  0  0
  9 21  1  0  0  0  0
  9 22  1  0  0  0  0
 10 23  1  0  0  0  0
 10 24  1  0  0  0  0
 11 25  1  0  0  0  0
 14 26  1  0  0  0  0
M  END
> <Catalog ID>
Z1065885454

> <MW>
243.03

> <MW (desalted)>
243.644

> <ClogP>
2.107

> <logS>
-2.093

> <HBD>
2

> <HBA>
3

> <TPSA>
75.63

> <RotBonds>
4

> <ROCS_ShapeQuery>
A71EV2A-x0451_0A_A71EV2A-x0310_0A_A71EV2A-x0416_0A_peptide

> <ROCS_TanimotoCombo>
0.426 

> <ROCS_ShapeTanimoto>
0.298 

> <ROCS_ColorTanimoto>
0.128 

> <ROCS_RefTversky>
0.264 

> <ROCS_RefColorTversky>
0.141 

> <ROCS_RefTverskyCombo>
0.404 

> <ROCS_FitTversky>
1.780 

> <ROCS_FitColorTversky>
0.588 

> <ROCS_FitTverskyCombo>
2.367 

> <ROCS_ColorScore>
-4.283

> <ROCS_Overlap>
1826.331

> <ROCS_Rank>
292                 

$$$$
untitled-dbase-383_41
  -OEChem-11112315393D

 23 23  0     0  0  0  0  0  0999 V2000
    8.2513   12.2799   24.4090 C   0  0  0  0  0  0  0  0  0  0  0  0
    9.9290   10.8873   23.3685 C   0  0  0  0  0  0  0  0  0  0  0  0
    7.4554   11.1560   24.6300 C   0  0  0  0  0  0  0  0  0  0  0  0
    9.1331    9.7633   23.5895 C   0  0  0  0  0  0  0  0  0  0  0  0
    9.4881   12.1456   23.7782 C   0  0  0  0  0  0  0  0  0  0  0  0
    7.8963    9.8977   24.2203 C   0  0  0  0  0  0  0  0  0  0  0  0
   10.3359   13.3432   23.5430 C   0  0  0  0  0  0  0  0  0  0  0  0
   13.2495   14.4207   22.7681 C   0  0  0  0  0  0  0  0  0  0  0  0
   13.9984   15.6681   22.3770 C   0  0  0  0  0  0  0  0  0  0  0  0
   11.2004   13.2630   22.4680 N   0  0  0  0  0  0  0  0  0  0  0  0
   12.0014   14.3422   22.1828 N   0  0  0  0  0  0  0  0  0  0  0  0
   10.2195   14.3179   24.2816 O   0  0  0  0  0  0  0  0  0  0  0  0
   13.7259   13.5927   23.5426 O   0  0  0  0  0  0  0  0  0  0  0  0
    7.1321    8.8183   24.4326 F   0  0  0  0  0  0  0  0  0  0  0  0
   12.8111   16.9520   22.1008 Cl  0  0  0  0  0  0  0  0  0  0  0  0
    7.8980   13.2556   24.7325 H   0  0  0  0  0  0  0  0  0  0  0  0
   10.8916   10.7709   22.8765 H   0  0  0  0  0  0  0  0  0  0  0  0
    6.4925   11.2603   25.1213 H   0  0  0  0  0  0  0  0  0  0  0  0
    9.4761    8.7834   23.2701 H   0  0  0  0  0  0  0  0  0  0  0  0
   14.6641   15.9639   23.1924 H   0  0  0  0  0  0  0  0  0  0  0  0
   14.5867   15.5338   21.4657 H   0  0  0  0  0  0  0  0  0  0  0  0
   11.2429   12.4237   21.9005 H   0  0  0  0  0  0  0  0  0  0  0  0
   11.6809   15.0696   21.5524 H   0  0  0  0  0  0  0  0  0  0  0  0
  1  3  2  0  0  0  0
  1  5  1  0  0  0  0
  2  4  1  0  0  0  0
  2  5  2  0  0  0  0
  3  6  1  0  0  0  0
  4  6  2  0  0  0  0
  5  7  1  0  0  0  0
  6 14  1  0  0  0  0
  7 10  1  0  0  0  0
  7 12  2  0  0  0  0
  8  9  1  0  0  0  0
  8 11  1  0  0  0  0
  8 13  2  0  0  0  0
  9 15  1  0  0  0  0
 10 11  1  0  0  0  0
  1 16  1  0  0  0  0
  2 17  1  0  0  0  0
  3 18  1  0  0  0  0
  4 19  1  0  0  0  0
  9 20  1  0  0  0  0
  9 21  1  0  0  0  0
 10 22  1  0  0  0  0
 11 23  1  0  0  0  0
M  END
> <Catalog ID>
Z56968585

> <MW>
230.026

> <MW (desalted)>
230.623

> <ClogP>
1.269

> <logS>
-2.92

> <HBD>
2

> <HBA>
2

> <TPSA>
58.2

> <RotBonds>
3

> <ROCS_ShapeQuery>
A71EV2A-x0451_0A_A71EV2A-x0310_0A_A71EV2A-x0416_0A_peptide

> <ROCS_TanimotoCombo>
0.426 

> <ROCS_ShapeTanimoto>
0.268 

> <ROCS_ColorTanimoto>
0.158 

> <ROCS_RefTversky>
0.241 

> <ROCS_RefColorTversky>
0.166 

> <ROCS_RefTverskyCombo>
0.407 

> <ROCS_FitTversky>
1.710 

> <ROCS_FitColorTversky>
0.763 

> <ROCS_FitTverskyCombo>
2.473 

> <ROCS_ColorScore>
-5.056

> <ROCS_Overlap>
1669.587

> <ROCS_Rank>
293                 

$$$$
untitled-dbase-54_5
  -OEChem-11112315393D

 22 22  0     0  0  0  0  0  0999 V2000
    7.1338   10.6403   24.8915 C   0  0  0  0  0  0  0  0  0  0  0  0
    8.0633    9.7914   24.2907 C   0  0  0  0  0  0  0  0  0  0  0  0
    8.3990   12.5568   24.1411 C   0  0  0  0  0  0  0  0  0  0  0  0
    7.3016   12.0230   24.8167 C   0  0  0  0  0  0  0  0  0  0  0  0
    9.3285   11.7079   23.5402 C   0  0  0  0  0  0  0  0  0  0  0  0
    9.1606   10.3252   23.6150 C   0  0  0  0  0  0  0  0  0  0  0  0
   12.2446   14.7399   21.3775 C   0  0  0  0  0  0  0  0  0  0  0  0
   12.2232   13.6662   22.1734 C   0  0  0  0  0  0  0  0  0  0  0  0
   11.0943   13.4485   23.1241 C   0  0  0  0  0  0  0  0  0  0  0  0
    6.3614   12.8812   25.4237 N   0  0  0  0  0  0  0  0  0  0  0  0
   10.4254   12.2443   22.8650 N   0  0  0  0  0  0  0  0  0  0  0  0
   10.8367   14.2638   24.0018 O   0  0  0  0  0  0  0  0  0  0  0  0
   10.0478    9.4996   23.0415 F   0  0  0  0  0  0  0  0  0  0  0  0
    6.2818   10.2133   25.4143 H   0  0  0  0  0  0  0  0  0  0  0  0
    7.9316    8.7150   24.3478 H   0  0  0  0  0  0  0  0  0  0  0  0
    8.5300   13.6354   24.0831 H   0  0  0  0  0  0  0  0  0  0  0  0
   13.0477   14.9312   20.6747 H   0  0  0  0  0  0  0  0  0  0  0  0
   11.4363   15.4625   21.4199 H   0  0  0  0  0  0  0  0  0  0  0  0
   13.0306   12.9432   22.1315 H   0  0  0  0  0  0  0  0  0  0  0  0
    6.5179   13.8687   25.4036 H   0  0  0  0  0  0  0  0  0  0  0  0
    5.6050   12.4856   25.9446 H   0  0  0  0  0  0  0  0  0  0  0  0
   10.7875   11.6879   22.0811 H   0  0  0  0  0  0  0  0  0  0  0  0
  1  2  2  0  0  0  0
  1  4  1  0  0  0  0
  2  6  1  0  0  0  0
  3  4  2  0  0  0  0
  3  5  1  0  0  0  0
  4 10  1  0  0  0  0
  5  6  2  0  0  0  0
  5 11  1  0  0  0  0
  6 13  1  0  0  0  0
  7  8  2  0  0  0  0
  8  9  1  0  0  0  0
  9 11  1  0  0  0  0
  9 12  2  0  0  0  0
  1 14  1  0  0  0  0
  2 15  1  0  0  0  0
  3 16  1  0  0  0  0
  7 17  1  0  0  0  0
  7 18  1  0  0  0  0
  8 19  1  0  0  0  0
 10 20  1  0  0  0  0
 10 21  1  0  0  0  0
 11 22  1  0  0  0  0
M  END
> <Catalog ID>
Z439343390

> <MW>
180.07

> <MW (desalted)>
180.179

> <ClogP>
0.089

> <logS>
-2.35

> <HBD>
2

> <HBA>
2

> <TPSA>
55.12

> <RotBonds>
2

> <ROCS_ShapeQuery>
A71EV2A-x0451_0A_A71EV2A-x0310_0A_A71EV2A-x0416_0A_peptide

> <ROCS_TanimotoCombo>
0.426 

> <ROCS_ShapeTanimoto>
0.282 

> <ROCS_ColorTanimoto>
0.143 

> <ROCS_RefTversky>
0.249 

> <ROCS_RefColorTversky>
0.156 

> <ROCS_RefTverskyCombo>
0.404 

> <ROCS_FitTversky>
1.911 

> <ROCS_FitColorTversky>
0.649 

> <ROCS_FitTverskyCombo>
2.560 

> <ROCS_ColorScore>
-4.731

> <ROCS_Overlap>
1723.890

> <ROCS_Rank>
294                 

$$$$
untitled-dbase-944_919
  -OEChem-11112315393D

 31 31  0     1  0  0  0  0  0999 V2000
    5.9190   12.1131   27.7511 C   0  0  0  0  0  0  0  0  0  0  0  0
    5.8496   11.6952   26.4854 C   0  0  0  0  0  0  0  0  0  0  0  0
    6.6380   12.4036   25.4558 C   0  0  0  0  0  0  0  0  0  0  0  0
    8.4772    9.5574   23.7471 C   0  0  0  0  0  0  0  0  0  0  0  0
    9.7580   10.2521   23.2847 C   0  0  0  0  0  0  0  0  0  0  0  0
    7.8366   10.2243   24.9584 C   0  0  0  0  0  0  0  0  0  0  0  0
    8.3989   12.3374   23.7359 C   0  0  0  0  0  0  0  0  0  0  0  0
    9.8022   11.7378   23.6605 C   0  0  2  0  0  0  0  0  0  0  0  0
   11.7261   14.7098   21.7199 C   0  0  0  0  0  0  0  0  0  0  0  0
    7.5845   11.6590   24.7520 N   0  0  0  0  0  0  0  0  0  0  0  0
   10.6281   12.4720   22.7043 N   0  0  0  0  0  0  0  0  0  0  0  0
    6.4227   13.6046   25.2872 O   0  0  0  0  0  0  0  0  0  0  0  0
   12.8207   13.4068   23.7084 O   0  0  0  0  0  0  0  0  0  0  0  0
   10.6449   14.6212   24.0924 O   0  0  0  0  0  0  0  0  0  0  0  0
   11.5112   13.8231   23.2462 S   0  0  0  0  0  0  0  0  0  0  0  0
    5.3641   11.6339   28.5507 H   0  0  0  0  0  0  0  0  0  0  0  0
    6.5463   12.9592   28.0113 H   0  0  0  0  0  0  0  0  0  0  0  0
    5.2360   10.8553   26.1871 H   0  0  0  0  0  0  0  0  0  0  0  0
    7.7558    9.5330   22.9149 H   0  0  0  0  0  0  0  0  0  0  0  0
    8.7029    8.5050   23.9875 H   0  0  0  0  0  0  0  0  0  0  0  0
   10.6356    9.7295   23.7107 H   0  0  0  0  0  0  0  0  0  0  0  0
    9.8576   10.1378   22.1873 H   0  0  0  0  0  0  0  0  0  0  0  0
    6.8635    9.7585   25.1820 H   0  0  0  0  0  0  0  0  0  0  0  0
    8.4822   10.0458   25.8266 H   0  0  0  0  0  0  0  0  0  0  0  0
    8.4582   13.4119   23.9373 H   0  0  0  0  0  0  0  0  0  0  0  0
    7.8740   12.2252   22.7792 H   0  0  0  0  0  0  0  0  0  0  0  0
   10.2866   11.8346   24.6653 H   0  0  0  0  0  0  0  0  0  0  0  0
   12.2905   15.6203   21.9272 H   0  0  0  0  0  0  0  0  0  0  0  0
   12.2726   14.0710   21.0245 H   0  0  0  0  0  0  0  0  0  0  0  0
   10.7400   14.9535   21.3215 H   0  0  0  0  0  0  0  0  0  0  0  0
   11.0668   11.8719   21.9993 H   0  0  0  0  0  0  0  0  0  0  0  0
  1  2  2  0  0  0  0
  2  3  1  0  0  0  0
  3 10  1  0  0  0  0
  3 12  2  0  0  0  0
  4  5  1  0  0  0  0
  4  6  1  0  0  0  0
  5  8  1  0  0  0  0
  6 10  1  0  0  0  0
  7  8  1  0  0  0  0
  7 10  1  0  0  0  0
  8 11  1  0  0  0  0
  9 15  1  0  0  0  0
 11 15  1  0  0  0  0
 13 15  2  0  0  0  0
 14 15  2  0  0  0  0
  1 16  1  0  0  0  0
  1 17  1  0  0  0  0
  2 18  1  0  0  0  0
  4 19  1  0  0  0  0
  4 20  1  0  0  0  0
  5 21  1  0  0  0  0
  5 22  1  0  0  0  0
  6 23  1  0  0  0  0
  6 24  1  0  0  0  0
  7 25  1  0  0  0  0
  7 26  1  0  0  0  0
  8 27  1  0  0  0  0
  9 28  1  0  0  0  0
  9 29  1  0  0  0  0
  9 30  1  0  0  0  0
 11 31  1  0  0  0  0
M  END
> <Catalog ID>
Z608671000

> <MW>
232.088

> <MW (desalted)>
232.3

> <ClogP>
0.008

> <logS>
-1.097

> <HBD>
1

> <HBA>
3

> <TPSA>
66.48

> <RotBonds>
2

> <ROCS_ShapeQuery>
A71EV2A-x0451_0A_A71EV2A-x0310_0A_A71EV2A-x0416_0A_peptide

> <ROCS_TanimotoCombo>
0.426 

> <ROCS_ShapeTanimoto>
0.289 

> <ROCS_ColorTanimoto>
0.137 

> <ROCS_RefTversky>
0.255 

> <ROCS_RefColorTversky>
0.149 

> <ROCS_RefTverskyCombo>
0.404 

> <ROCS_FitTversky>
1.866 

> <ROCS_FitColorTversky>
0.622 

> <ROCS_FitTverskyCombo>
2.489 

> <ROCS_ColorScore>
-4.536

> <ROCS_Overlap>
1765.171

> <ROCS_Rank>
295                 

$$$$
untitled-dbase-138_2404
  -OEChem-11112315393D

 41 42  0     0  0  0  0  0  0999 V2000
    9.6099   10.4522   22.9978 C   0  0  0  0  0  0  0  0  0  0  0  0
    8.7546    9.4908   23.4964 C   0  0  0  0  0  0  0  0  0  0  0  0
    9.4359   11.7251   23.5015 C   0  0  0  0  0  0  0  0  0  0  0  0
    7.7301   11.0213   24.8288 C   0  0  0  0  0  0  0  0  0  0  0  0
   12.3126   16.1892   22.0613 C   0  0  0  0  0  0  0  0  0  0  0  0
   11.1364   13.4284   23.9964 C   0  0  0  0  0  0  0  0  0  0  0  0
    9.8927   13.5046   21.8360 C   0  0  0  0  0  0  0  0  0  0  0  0
   12.3460   14.0452   23.2977 C   0  0  0  0  0  0  0  0  0  0  0  0
   11.1233   14.1240   21.1739 C   0  0  0  0  0  0  0  0  0  0  0  0
    8.8661    8.0844   23.0113 C   0  0  0  0  0  0  0  0  0  0  0  0
    7.0728   12.5351   26.7340 C   0  0  0  0  0  0  0  0  0  0  0  0
    6.3372   10.1239   26.7284 C   0  0  0  0  0  0  0  0  0  0  0  0
   12.4753   16.7463   20.6698 C   0  0  0  0  0  0  0  0  0  0  0  0
    6.6864   11.3372   25.8457 C   0  0  0  0  0  0  0  0  0  0  0  0
    7.7996    9.7413   24.4160 N   0  0  0  0  0  0  0  0  0  0  0  0
    8.5024   12.0464   24.4211 N   0  0  0  0  0  0  0  0  0  0  0  0
   10.2840   12.7294   23.0213 N   0  0  0  0  0  0  0  0  0  0  0  0
   11.9268   14.8543   22.1561 N   0  0  0  0  0  0  0  0  0  0  0  0
   12.5207   16.9202   23.0329 O   0  0  0  0  0  0  0  0  0  0  0  0
   13.7423   15.8020   19.8955 Cl  0  0  0  0  0  0  0  0  0  0  0  0
   10.3673   10.2185   22.2590 H   0  0  0  0  0  0  0  0  0  0  0  0
   11.4675   12.7255   24.7680 H   0  0  0  0  0  0  0  0  0  0  0  0
   10.5626   14.2203   24.4873 H   0  0  0  0  0  0  0  0  0  0  0  0
    9.1894   14.2874   22.1383 H   0  0  0  0  0  0  0  0  0  0  0  0
    9.3794   12.8690   21.1062 H   0  0  0  0  0  0  0  0  0  0  0  0
   12.8880   14.6981   23.9800 H   0  0  0  0  0  0  0  0  0  0  0  0
   13.0160   13.2561   22.9692 H   0  0  0  0  0  0  0  0  0  0  0  0
   11.7597   13.3515   20.7393 H   0  0  0  0  0  0  0  0  0  0  0  0
   10.8163   14.7950   20.3724 H   0  0  0  0  0  0  0  0  0  0  0  0
    9.5648    7.5186   23.6393 H   0  0  0  0  0  0  0  0  0  0  0  0
    7.8924    7.5784   23.0305 H   0  0  0  0  0  0  0  0  0  0  0  0
    9.2227    8.0484   21.9738 H   0  0  0  0  0  0  0  0  0  0  0  0
    8.0022   12.3468   27.2826 H   0  0  0  0  0  0  0  0  0  0  0  0
    6.2920   12.7571   27.4696 H   0  0  0  0  0  0  0  0  0  0  0  0
    7.2221   13.4320   26.1225 H   0  0  0  0  0  0  0  0  0  0  0  0
    7.2252    9.7751   27.2674 H   0  0  0  0  0  0  0  0  0  0  0  0
    5.9588    9.2883   26.1296 H   0  0  0  0  0  0  0  0  0  0  0  0
    5.5719   10.3730   27.4716 H   0  0  0  0  0  0  0  0  0  0  0  0
   12.7753   17.7851   20.7413 H   0  0  0  0  0  0  0  0  0  0  0  0
   11.5411   16.6276   20.1337 H   0  0  0  0  0  0  0  0  0  0  0  0
    5.7448   11.6255   25.3403 H   0  0  0  0  0  0  0  0  0  0  0  0
  1  2  1  0  0  0  0
  1  3  2  0  0  0  0
  2 10  1  0  0  0  0
  2 15  2  0  0  0  0
  3 16  1  0  0  0  0
  3 17  1  0  0  0  0
  4 14  1  0  0  0  0
  4 15  1  0  0  0  0
  4 16  2  0  0  0  0
  5 13  1  0  0  0  0
  5 18  1  0  0  0  0
  5 19  2  0  0  0  0
  6  8  1  0  0  0  0
  6 17  1  0  0  0  0
  7  9  1  0  0  0  0
  7 17  1  0  0  0  0
  8 18  1  0  0  0  0
  9 18  1  0  0  0  0
 11 14  1  0  0  0  0
 12 14  1  0  0  0  0
 13 20  1  0  0  0  0
  1 21  1  0  0  0  0
  6 22  1  0  0  0  0
  6 23  1  0  0  0  0
  7 24  1  0  0  0  0
  7 25  1  0  0  0  0
  8 26  1  0  0  0  0
  8 27  1  0  0  0  0
  9 28  1  0  0  0  0
  9 29  1  0  0  0  0
 10 30  1  0  0  0  0
 10 31  1  0  0  0  0
 10 32  1  0  0  0  0
 11 33  1  0  0  0  0
 11 34  1  0  0  0  0
 11 35  1  0  0  0  0
 12 36  1  0  0  0  0
 12 37  1  0  0  0  0
 12 38  1  0  0  0  0
 13 39  1  0  0  0  0
 13 40  1  0  0  0  0
 14 41  1  0  0  0  0
M  END
> <Catalog ID>
Z3378197768

> <MW>
332.117

> <MW (desalted)>
296.796

> <ClogP>
2.005

> <logS>
-3.288

> <HBD>
0

> <HBA>
4

> <TPSA>
49.33

> <RotBonds>
3

> <ROCS_ShapeQuery>
A71EV2A-x0451_0A_A71EV2A-x0310_0A_A71EV2A-x0416_0A_peptide

> <ROCS_TanimotoCombo>
0.426 

> <ROCS_ShapeTanimoto>
0.339 

> <ROCS_ColorTanimoto>
0.087 

> <ROCS_RefTversky>
0.297 

> <ROCS_RefColorTversky>
0.099 

> <ROCS_RefTverskyCombo>
0.395 

> <ROCS_FitTversky>
1.727 

> <ROCS_FitColorTversky>
0.413 

> <ROCS_FitTverskyCombo>
2.140 

> <ROCS_ColorScore>
-3.010

> <ROCS_Overlap>
2057.819

> <ROCS_Rank>
296                 

$$$$
untitled-dbase-899_62
  -OEChem-11112315393D

 36 37  0     1  0  0  0  0  0999 V2000
    7.7355   10.9739   24.9001 C   0  0  0  0  0  0  0  0  0  0  0  0
    8.5509   11.9602   24.3172 C   0  0  0  0  0  0  0  0  0  0  0  0
    9.3127   11.2735   23.4011 C   0  0  0  0  0  0  0  0  0  0  0  0
   13.7566   15.0702   20.4830 C   0  0  0  0  0  0  0  0  0  0  0  0
   12.6874   15.7288   20.9403 C   0  0  0  0  0  0  0  0  0  0  0  0
   11.9568   15.2378   22.1392 C   0  0  0  0  0  0  0  0  0  0  0  0
    8.6862   13.4184   24.5499 C   0  0  0  0  0  0  0  0  0  0  0  0
   10.3310   11.8460   22.4872 C   0  0  0  0  0  0  0  0  0  0  0  0
    9.4624   14.0882   23.3940 C   0  0  0  0  0  0  0  0  0  0  0  0
   10.7052   13.2672   22.9706 C   0  0  2  0  0  0  0  0  0  0  0  0
    8.3393    7.8210   22.4228 C   0  0  0  0  0  0  0  0  0  0  0  0
   10.6658    8.2324   23.3306 C   0  0  0  0  0  0  0  0  0  0  0  0
    9.4247    8.8638   22.6971 C   0  0  0  0  0  0  0  0  0  0  0  0
    7.9579    9.7568   24.3895 N   0  0  0  0  0  0  0  0  0  0  0  0
    8.9249    9.9715   23.4761 N   0  0  0  0  0  0  0  0  0  0  0  0
   11.4554   13.9604   21.9518 N   0  0  0  0  0  0  0  0  0  0  0  0
   11.8295   15.9117   23.1565 O   0  0  0  0  0  0  0  0  0  0  0  0
    6.9902   11.0852   25.6746 H   0  0  0  0  0  0  0  0  0  0  0  0
   14.2837   15.4339   19.6071 H   0  0  0  0  0  0  0  0  0  0  0  0
   14.1339   14.1694   20.9544 H   0  0  0  0  0  0  0  0  0  0  0  0
   12.3427   16.6269   20.4393 H   0  0  0  0  0  0  0  0  0  0  0  0
    7.7016   13.8872   24.6534 H   0  0  0  0  0  0  0  0  0  0  0  0
    9.2286   13.5791   25.4894 H   0  0  0  0  0  0  0  0  0  0  0  0
   11.2271   11.2159   22.4535 H   0  0  0  0  0  0  0  0  0  0  0  0
    9.9103   11.8891   21.4746 H   0  0  0  0  0  0  0  0  0  0  0  0
    8.7929   14.1994   22.5302 H   0  0  0  0  0  0  0  0  0  0  0  0
    9.7568   15.0977   23.7050 H   0  0  0  0  0  0  0  0  0  0  0  0
   11.3754   13.1847   23.8354 H   0  0  0  0  0  0  0  0  0  0  0  0
    7.9760    7.3568   23.3458 H   0  0  0  0  0  0  0  0  0  0  0  0
    8.7259    7.0238   21.7790 H   0  0  0  0  0  0  0  0  0  0  0  0
    7.4800    8.2757   21.9173 H   0  0  0  0  0  0  0  0  0  0  0  0
   10.4276    7.7991   24.3083 H   0  0  0  0  0  0  0  0  0  0  0  0
   11.4479    8.9850   23.4770 H   0  0  0  0  0  0  0  0  0  0  0  0
   11.0833    7.4357   22.7057 H   0  0  0  0  0  0  0  0  0  0  0  0
    9.7303    9.2763   21.7269 H   0  0  0  0  0  0  0  0  0  0  0  0
   11.5843   13.4899   21.0600 H   0  0  0  0  0  0  0  0  0  0  0  0
  1  2  1  0  0  0  0
  1 14  2  0  0  0  0
  2  3  2  0  0  0  0
  2  7  1  0  0  0  0
  3  8  1  0  0  0  0
  3 15  1  0  0  0  0
  4  5  2  0  0  0  0
  5  6  1  0  0  0  0
  6 16  1  0  0  0  0
  6 17  2  0  0  0  0
  7  9  1  0  0  0  0
  8 10  1  0  0  0  0
  9 10  1  0  0  0  0
 10 16  1  0  0  0  0
 11 13  1  0  0  0  0
 12 13  1  0  0  0  0
 13 15  1  0  0  0  0
 14 15  1  0  0  0  0
  1 18  1  0  0  0  0
  4 19  1  0  0  0  0
  4 20  1  0  0  0  0
  5 21  1  0  0  0  0
  7 22  1  0  0  0  0
  7 23  1  0  0  0  0
  8 24  1  0  0  0  0
  8 25  1  0  0  0  0
  9 26  1  0  0  0  0
  9 27  1  0  0  0  0
 10 28  1  0  0  0  0
 11 29  1  0  0  0  0
 11 30  1  0  0  0  0
 11 31  1  0  0  0  0
 12 32  1  0  0  0  0
 12 33  1  0  0  0  0
 12 34  1  0  0  0  0
 13 35  1  0  0  0  0
 16 36  1  0  0  0  0
M  END
> <Catalog ID>
Z2737383259

> <MW>
233.309

> <MW (desalted)>
233.309

> <ClogP>
0.451

> <logS>
-1.53

> <HBD>
1

> <HBA>
2

> <TPSA>
46.92

> <RotBonds>
3

> <ROCS_ShapeQuery>
A71EV2A-x0451_0A_A71EV2A-x0310_0A_A71EV2A-x0416_0A_peptide

> <ROCS_TanimotoCombo>
0.426 

> <ROCS_ShapeTanimoto>
0.303 

> <ROCS_ColorTanimoto>
0.122 

> <ROCS_RefTversky>
0.269 

> <ROCS_RefColorTversky>
0.138 

> <ROCS_RefTverskyCombo>
0.407 

> <ROCS_FitTversky>
1.735 

> <ROCS_FitColorTversky>
0.511 

> <ROCS_FitTverskyCombo>
2.247 

> <ROCS_ColorScore>
-4.219

> <ROCS_Overlap>
1863.408

> <ROCS_Rank>
297                 

$$$$
untitled-dbase-329_57
  -OEChem-11112315393D

 24 24  0     0  0  0  0  0  0999 V2000
    8.3075    9.5084   24.0141 C   0  0  0  0  0  0  0  0  0  0  0  0
    7.3873   10.1814   24.8178 C   0  0  0  0  0  0  0  0  0  0  0  0
    9.2932   10.2232   23.3336 C   0  0  0  0  0  0  0  0  0  0  0  0
    8.4384   12.2842   24.2603 C   0  0  0  0  0  0  0  0  0  0  0  0
    7.4528   11.5693   24.9409 C   0  0  0  0  0  0  0  0  0  0  0  0
    9.3586   11.6111   23.4566 C   0  0  0  0  0  0  0  0  0  0  0  0
    6.4928   12.2696   25.7791 C   0  0  0  0  0  0  0  0  0  0  0  0
   10.9231   13.5202   23.1908 C   0  0  0  0  0  0  0  0  0  0  0  0
    6.6132   13.7631   25.8725 C   0  0  0  0  0  0  0  0  0  0  0  0
   11.9583   14.0136   22.2068 C   0  0  0  0  0  0  0  0  0  0  0  0
   10.3449   12.3259   22.7761 N   0  0  0  0  0  0  0  0  0  0  0  0
    5.5905   11.7297   26.4227 O   0  0  0  0  0  0  0  0  0  0  0  0
   10.6715   14.1718   24.2008 O   0  0  0  0  0  0  0  0  0  0  0  0
   11.1361   15.0565   21.0354 Cl  0  0  0  0  0  0  0  0  0  0  0  0
    8.2569    8.4277   23.9184 H   0  0  0  0  0  0  0  0  0  0  0  0
    6.6231    9.6139   25.3423 H   0  0  0  0  0  0  0  0  0  0  0  0
   10.0050    9.6884   22.7094 H   0  0  0  0  0  0  0  0  0  0  0  0
    8.4889   13.3669   24.3555 H   0  0  0  0  0  0  0  0  0  0  0  0
    6.0320   14.3066   25.1108 H   0  0  0  0  0  0  0  0  0  0  0  0
    7.6535   14.1184   25.8097 H   0  0  0  0  0  0  0  0  0  0  0  0
    6.2396   14.1714   26.8284 H   0  0  0  0  0  0  0  0  0  0  0  0
   12.4528   13.2005   21.6692 H   0  0  0  0  0  0  0  0  0  0  0  0
   12.7151   14.5985   22.7370 H   0  0  0  0  0  0  0  0  0  0  0  0
   10.6714   11.9367   21.8936 H   0  0  0  0  0  0  0  0  0  0  0  0
  1  2  2  0  0  0  0
  1  3  1  0  0  0  0
  2  5  1  0  0  0  0
  3  6  2  0  0  0  0
  4  5  2  0  0  0  0
  4  6  1  0  0  0  0
  5  7  1  0  0  0  0
  6 11  1  0  0  0  0
  7  9  1  0  0  0  0
  7 12  2  0  0  0  0
  8 10  1  0  0  0  0
  8 11  1  0  0  0  0
  8 13  2  0  0  0  0
 10 14  1  0  0  0  0
  1 15  1  0  0  0  0
  2 16  1  0  0  0  0
  3 17  1  0  0  0  0
  4 18  1  0  0  0  0
  9 19  1  0  0  0  0
  9 20  1  0  0  0  0
  9 21  1  0  0  0  0
 10 22  1  0  0  0  0
 10 23  1  0  0  0  0
 11 24  1  0  0  0  0
M  END
> <Catalog ID>
Z56896318

> <MW>
211.04

> <MW (desalted)>
211.645

> <ClogP>
1.682

> <logS>
-2.56

> <HBD>
1

> <HBA>
2

> <TPSA>
46.17

> <RotBonds>
3

> <ROCS_ShapeQuery>
A71EV2A-x0451_0A_A71EV2A-x0310_0A_A71EV2A-x0416_0A_peptide

> <ROCS_TanimotoCombo>
0.425 

> <ROCS_ShapeTanimoto>
0.289 

> <ROCS_ColorTanimoto>
0.137 

> <ROCS_RefTversky>
0.254 

> <ROCS_RefColorTversky>
0.142 

> <ROCS_RefTverskyCombo>
0.396 

> <ROCS_FitTversky>
1.892 

> <ROCS_FitColorTversky>
0.797 

> <ROCS_FitTverskyCombo>
2.689 

> <ROCS_ColorScore>
-4.291

> <ROCS_Overlap>
1760.973

> <ROCS_Rank>
298                 

$$$$
untitled-dbase-651_4
  -OEChem-11112315393D

 21 21  0     0  0  0  0  0  0999 V2000
    8.5758   12.1344   24.6022 C   0  0  0  0  0  0  0  0  0  0  0  0
    9.9145   11.1000   22.8774 C   0  0  0  0  0  0  0  0  0  0  0  0
    7.8311   10.9616   24.7275 C   0  0  0  0  0  0  0  0  0  0  0  0
    9.1698    9.9272   23.0027 C   0  0  0  0  0  0  0  0  0  0  0  0
    9.6174   12.2036   23.6771 C   0  0  0  0  0  0  0  0  0  0  0  0
    8.1281    9.8581   23.9278 C   0  0  0  0  0  0  0  0  0  0  0  0
   10.3942   13.4260   23.5465 C   0  0  0  0  0  0  0  0  0  0  0  0
   11.7927   14.7619   21.9762 C   0  0  0  0  0  0  0  0  0  0  0  0
   12.2520   14.7514   20.5402 C   0  0  0  0  0  0  0  0  0  0  0  0
   10.9889   13.6679   22.2939 N   0  0  0  0  0  0  0  0  0  0  0  0
   10.5338   14.1886   24.5184 O   0  0  0  0  0  0  0  0  0  0  0  0
   12.0972   15.6720   22.7447 O   0  0  0  0  0  0  0  0  0  0  0  0
    7.2103    8.4110   24.0835 Cl  0  0  0  0  0  0  0  0  0  0  0  0
   13.8462   15.5187   20.4767 Cl  0  0  0  0  0  0  0  0  0  0  0  0
    8.3354   12.9885   25.2300 H   0  0  0  0  0  0  0  0  0  0  0  0
   10.7242   11.1426   22.1535 H   0  0  0  0  0  0  0  0  0  0  0  0
    7.0225   10.9214   25.4529 H   0  0  0  0  0  0  0  0  0  0  0  0
    9.4126    9.0754   22.3726 H   0  0  0  0  0  0  0  0  0  0  0  0
   12.3375   13.7179   20.1933 H   0  0  0  0  0  0  0  0  0  0  0  0
   11.5733   15.2938   19.8771 H   0  0  0  0  0  0  0  0  0  0  0  0
   10.8248   12.9825   21.5620 H   0  0  0  0  0  0  0  0  0  0  0  0
  1  3  2  0  0  0  0
  1  5  1  0  0  0  0
  2  4  1  0  0  0  0
  2  5  2  0  0  0  0
  3  6  1  0  0  0  0
  4  6  2  0  0  0  0
  5  7  1  0  0  0  0
  6 13  1  0  0  0  0
  7 10  1  0  0  0  0
  7 11  2  0  0  0  0
  8  9  1  0  0  0  0
  8 10  1  0  0  0  0
  8 12  2  0  0  0  0
  9 14  1  0  0  0  0
  1 15  1  0  0  0  0
  2 16  1  0  0  0  0
  3 17  1  0  0  0  0
  4 18  1  0  0  0  0
  9 19  1  0  0  0  0
  9 20  1  0  0  0  0
 10 21  1  0  0  0  0
M  END
> <Catalog ID>
Z56896918

> <MW>
230.985

> <MW (desalted)>
232.063

> <ClogP>
2.199

> <logS>
-3.31

> <HBD>
1

> <HBA>
2

> <TPSA>
46.17

> <RotBonds>
2

> <ROCS_ShapeQuery>
A71EV2A-x0451_0A_A71EV2A-x0310_0A_A71EV2A-x0416_0A_peptide

> <ROCS_TanimotoCombo>
0.425 

> <ROCS_ShapeTanimoto>
0.266 

> <ROCS_ColorTanimoto>
0.159 

> <ROCS_RefTversky>
0.238 

> <ROCS_RefColorTversky>
0.161 

> <ROCS_RefTverskyCombo>
0.400 

> <ROCS_FitTversky>
1.786 

> <ROCS_FitColorTversky>
0.909 

> <ROCS_FitTverskyCombo>
2.695 

> <ROCS_ColorScore>
-4.896

> <ROCS_Overlap>
1651.530

> <ROCS_Rank>
299                 

$$$$
untitled-dbase-251_41
  -OEChem-11112315393D

 21 21  0     0  0  0  0  0  0999 V2000
    9.2897   10.2298   23.3547 C   0  0  0  0  0  0  0  0  0  0  0  0
    8.2976    9.5211   24.0322 C   0  0  0  0  0  0  0  0  0  0  0  0
    8.4242   12.2993   24.2521 C   0  0  0  0  0  0  0  0  0  0  0  0
    9.3530   11.6189   23.4647 C   0  0  0  0  0  0  0  0  0  0  0  0
    7.4321   11.5906   24.9296 C   0  0  0  0  0  0  0  0  0  0  0  0
    7.3688   10.2014   24.8197 C   0  0  0  0  0  0  0  0  0  0  0  0
   10.9196   13.5258   23.1958 C   0  0  0  0  0  0  0  0  0  0  0  0
   11.9648   14.0097   22.2176 C   0  0  0  0  0  0  0  0  0  0  0  0
   10.3460   12.3272   22.7872 N   0  0  0  0  0  0  0  0  0  0  0  0
    6.5018   12.3201   25.7228 N   0  3  0  0  0  0  0  0  0  0  0  0
    6.6075   13.5671   25.7848 O   0  5  0  0  0  0  0  0  0  0  0  0
   10.6573   14.1875   24.1965 O   0  0  0  0  0  0  0  0  0  0  0  0
    5.6065   11.6923   26.3348 O   0  0  0  0  0  0  0  0  0  0  0  0
    6.1587    9.2784   25.6394 Cl  0  0  0  0  0  0  0  0  0  0  0  0
   11.4987   13.4442   20.6056 Cl  0  0  0  0  0  0  0  0  0  0  0  0
   10.0087    9.6884   22.7450 H   0  0  0  0  0  0  0  0  0  0  0  0
    8.2628    8.4388   23.9354 H   0  0  0  0  0  0  0  0  0  0  0  0
    8.4781   13.3833   24.3346 H   0  0  0  0  0  0  0  0  0  0  0  0
   12.9654   13.6348   22.4474 H   0  0  0  0  0  0  0  0  0  0  0  0
   11.9877   15.1031   22.2203 H   0  0  0  0  0  0  0  0  0  0  0  0
   10.6818   11.9291   21.9122 H   0  0  0  0  0  0  0  0  0  0  0  0
  1  2  2  0  0  0  0
  1  4  1  0  0  0  0
  2  6  1  0  0  0  0
  3  4  2  0  0  0  0
  3  5  1  0  0  0  0
  4  9  1  0  0  0  0
  5  6  2  0  0  0  0
  5 10  1  0  0  0  0
  6 14  1  0  0  0  0
  7  8  1  0  0  0  0
  7  9  1  0  0  0  0
  7 12  2  0  0  0  0
  8 15  1  0  0  0  0
 10 11  1  0  0  0  0
 10 13  2  0  0  0  0
  1 16  1  0  0  0  0
  2 17  1  0  0  0  0
  3 18  1  0  0  0  0
  8 19  1  0  0  0  0
  8 20  1  0  0  0  0
  9 21  1  0  0  0  0
M  CHG  2  10   1  11  -1
M  END
> <Catalog ID>
Z56862625

> <MW>
247.976

> <MW (desalted)>
249.051

> <ClogP>
2.722

> <logS>
-3.66

> <HBD>
1

> <HBA>
3

> <TPSA>
72.24

> <RotBonds>
3

> <ROCS_ShapeQuery>
A71EV2A-x0451_0A_A71EV2A-x0310_0A_A71EV2A-x0416_0A_peptide

> <ROCS_TanimotoCombo>
0.425 

> <ROCS_ShapeTanimoto>
0.292 

> <ROCS_ColorTanimoto>
0.133 

> <ROCS_RefTversky>
0.258 

> <ROCS_RefColorTversky>
0.142 

> <ROCS_RefTverskyCombo>
0.400 

> <ROCS_FitTversky>
1.832 

> <ROCS_FitColorTversky>
0.680 

> <ROCS_FitTverskyCombo>
2.512 

> <ROCS_ColorScore>
-4.319

> <ROCS_Overlap>
1785.197

> <ROCS_Rank>
300                 

$$$$
untitled-dbase-209_156
  -OEChem-11112315393D

 22 22  0     0  0  0  0  0  0999 V2000
    8.3136    9.5117   24.0238 C   0  0  0  0  0  0  0  0  0  0  0  0
    7.4061   10.1935   24.8344 C   0  0  0  0  0  0  0  0  0  0  0  0
    8.4655   12.2873   24.2593 C   0  0  0  0  0  0  0  0  0  0  0  0
    9.2972   10.2176   23.3309 C   0  0  0  0  0  0  0  0  0  0  0  0
    9.3731   11.6054   23.4487 C   0  0  0  0  0  0  0  0  0  0  0  0
    7.4820   11.5813   24.9521 C   0  0  0  0  0  0  0  0  0  0  0  0
   10.2297    9.4747   22.4925 C   0  0  0  0  0  0  0  0  0  0  0  0
   10.9211   13.5277   23.1815 C   0  0  0  0  0  0  0  0  0  0  0  0
   11.9436   14.0352   22.1914 C   0  0  0  0  0  0  0  0  0  0  0  0
   10.3495   12.3333   22.7628 N   0  0  0  0  0  0  0  0  0  0  0  0
    9.9777    8.4167   21.9106 O   0  0  0  0  0  0  0  0  0  0  0  0
   10.6740   14.1707   24.1981 O   0  0  0  0  0  0  0  0  0  0  0  0
   11.4449   10.0796   22.4089 O   0  0  0  0  0  0  0  0  0  0  0  0
    6.3612   12.4217   25.9519 Cl  0  0  0  0  0  0  0  0  0  0  0  0
   11.1032   15.0798   21.0346 Cl  0  0  0  0  0  0  0  0  0  0  0  0
    8.2438    8.4301   23.9397 H   0  0  0  0  0  0  0  0  0  0  0  0
    6.6458    9.6302   25.3693 H   0  0  0  0  0  0  0  0  0  0  0  0
    8.5258   13.3701   24.3498 H   0  0  0  0  0  0  0  0  0  0  0  0
   12.4391   13.2294   21.6439 H   0  0  0  0  0  0  0  0  0  0  0  0
   12.7010   14.6222   22.7187 H   0  0  0  0  0  0  0  0  0  0  0  0
   10.6710   11.9533   21.8757 H   0  0  0  0  0  0  0  0  0  0  0  0
   11.4946   10.9125   22.9249 H   0  0  0  0  0  0  0  0  0  0  0  0
  1  2  2  0  0  0  0
  1  4  1  0  0  0  0
  2  6  1  0  0  0  0
  3  5  1  0  0  0  0
  3  6  2  0  0  0  0
  4  5  2  0  0  0  0
  4  7  1  0  0  0  0
  5 10  1  0  0  0  0
  6 14  1  0  0  0  0
  7 11  2  0  0  0  0
  7 13  1  0  0  0  0
  8  9  1  0  0  0  0
  8 10  1  0  0  0  0
  8 12  2  0  0  0  0
  9 15  1  0  0  0  0
  1 16  1  0  0  0  0
  2 17  1  0  0  0  0
  3 18  1  0  0  0  0
  9 19  1  0  0  0  0
  9 20  1  0  0  0  0
 10 21  1  0  0  0  0
 13 22  1  0  0  0  0
M  END
> <Catalog ID>
Z56910423

> <MW>
246.98

> <MW (desalted)>
248.063

> <ClogP>
3.274

> <logS>
-3.07

> <HBD>
2

> <HBA>
3

> <TPSA>
66.4

> <RotBonds>
3

> <ROCS_ShapeQuery>
A71EV2A-x0451_0A_A71EV2A-x0310_0A_A71EV2A-x0416_0A_peptide

> <ROCS_TanimotoCombo>
0.425 

> <ROCS_ShapeTanimoto>
0.298 

> <ROCS_ColorTanimoto>
0.127 

> <ROCS_RefTversky>
0.262 

> <ROCS_RefColorTversky>
0.140 

> <ROCS_RefTverskyCombo>
0.402 

> <ROCS_FitTversky>
1.861 

> <ROCS_FitColorTversky>
0.584 

> <ROCS_FitTverskyCombo>
2.446 

> <ROCS_ColorScore>
-4.262

> <ROCS_Overlap>
1812.785

> <ROCS_Rank>
301                 

$$$$
untitled-dbase-819_108
  -OEChem-11112315393D

 26 27  0     0  0  0  0  0  0999 V2000
   11.2731   14.4055   22.2708 C   0  0  0  0  0  0  0  0  0  0  0  0
    9.9688   13.2700   23.5818 C   0  0  0  0  0  0  0  0  0  0  0  0
    4.7391   12.3051   26.6637 C   0  0  0  0  0  0  0  0  0  0  0  0
    5.8796   12.8286   26.2039 C   0  0  0  0  0  0  0  0  0  0  0  0
    6.7972   12.0135   25.3638 C   0  0  0  0  0  0  0  0  0  0  0  0
    9.5439   10.1714   23.4882 C   0  0  0  0  0  0  0  0  0  0  0  0
    9.6161   10.8888   24.8469 C   0  0  0  0  0  0  0  0  0  0  0  0
    8.3793   11.1101   23.1292 C   0  0  0  0  0  0  0  0  0  0  0  0
    8.9728   12.1478   24.1539 C   0  0  0  0  0  0  0  0  0  0  0  0
   11.2383   15.0270   23.4279 N   0  0  0  0  0  0  0  0  0  0  0  0
   10.4085   14.3047   24.2620 N   0  0  0  0  0  0  0  0  0  0  0  0
   10.4880   13.2939   22.3230 N   0  0  0  0  0  0  0  0  0  0  0  0
    7.9118   12.7329   24.9934 N   0  0  0  0  0  0  0  0  0  0  0  0
    6.5544   10.8503   25.0584 O   0  0  0  0  0  0  0  0  0  0  0  0
   11.8277   14.7010   21.3926 H   0  0  0  0  0  0  0  0  0  0  0  0
    4.0753   12.9056   27.2769 H   0  0  0  0  0  0  0  0  0  0  0  0
    4.4355   11.2863   26.4493 H   0  0  0  0  0  0  0  0  0  0  0  0
    6.1460   13.8528   26.4413 H   0  0  0  0  0  0  0  0  0  0  0  0
   10.4329   10.2544   22.8588 H   0  0  0  0  0  0  0  0  0  0  0  0
    9.2549    9.1171   23.5602 H   0  0  0  0  0  0  0  0  0  0  0  0
    9.0314   10.4293   25.6466 H   0  0  0  0  0  0  0  0  0  0  0  0
   10.6395   11.0423   25.2053 H   0  0  0  0  0  0  0  0  0  0  0  0
    8.3958   11.4443   22.0864 H   0  0  0  0  0  0  0  0  0  0  0  0
    7.3838   10.7229   23.3558 H   0  0  0  0  0  0  0  0  0  0  0  0
   10.3255   12.6258   21.5807 H   0  0  0  0  0  0  0  0  0  0  0  0
    8.0232   13.7003   25.2611 H   0  0  0  0  0  0  0  0  0  0  0  0
  1 10  2  0  0  0  0
  1 12  1  0  0  0  0
  2  9  1  0  0  0  0
  2 11  2  0  0  0  0
  2 12  1  0  0  0  0
  3  4  2  0  0  0  0
  4  5  1  0  0  0  0
  5 13  1  0  0  0  0
  5 14  2  0  0  0  0
  6  7  1  0  0  0  0
  6  8  1  0  0  0  0
  7  9  1  0  0  0  0
  8  9  1  0  0  0  0
  9 13  1  0  0  0  0
 10 11  1  0  0  0  0
  1 15  1  0  0  0  0
  3 16  1  0  0  0  0
  3 17  1  0  0  0  0
  4 18  1  0  0  0  0
  6 19  1  0  0  0  0
  6 20  1  0  0  0  0
  7 21  1  0  0  0  0
  7 22  1  0  0  0  0
  8 23  1  0  0  0  0
  8 24  1  0  0  0  0
 12 25  1  0  0  0  0
 13 26  1  0  0  0  0
M  END
> <Catalog ID>
Z2285377993

> <MW>
192.218

> <MW (desalted)>
192.218

> <ClogP>
-0.95

> <logS>
-2.187

> <HBD>
2

> <HBA>
3

> <TPSA>
70.67

> <RotBonds>
3

> <ROCS_ShapeQuery>
A71EV2A-x0451_0A_A71EV2A-x0310_0A_A71EV2A-x0416_0A_peptide

> <ROCS_TanimotoCombo>
0.425 

> <ROCS_ShapeTanimoto>
0.260 

> <ROCS_ColorTanimoto>
0.165 

> <ROCS_RefTversky>
0.234 

> <ROCS_RefColorTversky>
0.186 

> <ROCS_RefTverskyCombo>
0.420 

> <ROCS_FitTversky>
1.703 

> <ROCS_FitColorTversky>
0.600 

> <ROCS_FitTverskyCombo>
2.303 

> <ROCS_ColorScore>
-5.679

> <ROCS_Overlap>
1624.222

> <ROCS_Rank>
302                 

$$$$
untitled-dbase-698_325
  -OEChem-11112315393D

 36 37  0     0  0  0  0  0  0999 V2000
   12.8784   15.7238   19.9157 C   0  0  0  0  0  0  0  0  0  0  0  0
   13.1821   16.0121   21.2462 C   0  0  0  0  0  0  0  0  0  0  0  0
   11.9093   14.7673   19.6129 C   0  0  0  0  0  0  0  0  0  0  0  0
   12.5167   15.3438   22.2740 C   0  0  0  0  0  0  0  0  0  0  0  0
   11.2440   14.0990   20.6407 C   0  0  0  0  0  0  0  0  0  0  0  0
   11.5477   14.3873   21.9712 C   0  0  0  0  0  0  0  0  0  0  0  0
   10.8391   13.6755   23.0660 C   0  0  0  0  0  0  0  0  0  0  0  0
    5.9375    9.7299   24.4487 C   0  0  0  0  0  0  0  0  0  0  0  0
    8.3791   12.3399   24.1834 C   0  0  0  0  0  0  0  0  0  0  0  0
    9.2698   10.2468   23.0987 C   0  0  0  0  0  0  0  0  0  0  0  0
    7.5604   11.4680   25.1317 C   0  0  0  0  0  0  0  0  0  0  0  0
    8.4328    9.4160   24.0691 C   0  0  0  0  0  0  0  0  0  0  0  0
    9.6356   11.6066   23.7034 C   0  0  0  0  0  0  0  0  0  0  0  0
    4.8746   10.7939   24.3398 C   0  0  0  0  0  0  0  0  0  0  0  0
    7.2583   10.1713   24.5223 N   0  0  0  0  0  0  0  0  0  0  0  0
   10.3648   12.4120   22.7551 N   0  0  0  0  0  0  0  0  0  0  0  0
   10.6961   14.2337   24.1506 O   0  0  0  0  0  0  0  0  0  0  0  0
    5.6020    8.5429   24.4699 O   0  0  0  0  0  0  0  0  0  0  0  0
    4.3805   11.1823   25.9838 Cl  0  0  0  0  0  0  0  0  0  0  0  0
   13.3965   16.2442   19.1155 H   0  0  0  0  0  0  0  0  0  0  0  0
   13.9368   16.7568   21.4817 H   0  0  0  0  0  0  0  0  0  0  0  0
   11.6727   14.5431   18.5769 H   0  0  0  0  0  0  0  0  0  0  0  0
   12.7612   15.5763   23.3073 H   0  0  0  0  0  0  0  0  0  0  0  0
   10.4908   13.3555   20.3930 H   0  0  0  0  0  0  0  0  0  0  0  0
    7.7657   12.6479   23.3337 H   0  0  0  0  0  0  0  0  0  0  0  0
    8.6776   13.2521   24.7076 H   0  0  0  0  0  0  0  0  0  0  0  0
   10.1895    9.7023   22.8689 H   0  0  0  0  0  0  0  0  0  0  0  0
    8.7335   10.3753   22.1565 H   0  0  0  0  0  0  0  0  0  0  0  0
    8.0997   11.3609   26.0769 H   0  0  0  0  0  0  0  0  0  0  0  0
    6.6011   11.9474   25.3677 H   0  0  0  0  0  0  0  0  0  0  0  0
    8.0667    8.5041   23.5860 H   0  0  0  0  0  0  0  0  0  0  0  0
    9.0493    9.1110   24.9188 H   0  0  0  0  0  0  0  0  0  0  0  0
   10.3121   11.4560   24.5513 H   0  0  0  0  0  0  0  0  0  0  0  0
    4.0343   10.3953   23.7829 H   0  0  0  0  0  0  0  0  0  0  0  0
    5.3009   11.6687   23.8625 H   0  0  0  0  0  0  0  0  0  0  0  0
   10.4655   12.0400   21.8172 H   0  0  0  0  0  0  0  0  0  0  0  0
  1  2  1  0  0  0  0
  1  3  2  0  0  0  0
  2  4  2  0  0  0  0
  3  5  1  0  0  0  0
  4  6  1  0  0  0  0
  5  6  2  0  0  0  0
  6  7  1  0  0  0  0
  7 16  1  0  0  0  0
  7 17  2  0  0  0  0
  8 14  1  0  0  0  0
  8 15  1  0  0  0  0
  8 18  2  0  0  0  0
  9 11  1  0  0  0  0
  9 13  1  0  0  0  0
 10 12  1  0  0  0  0
 10 13  1  0  0  0  0
 11 15  1  0  0  0  0
 12 15  1  0  0  0  0
 13 16  1  0  0  0  0
 14 19  1  0  0  0  0
  1 20  1  0  0  0  0
  2 21  1  0  0  0  0
  3 22  1  0  0  0  0
  4 23  1  0  0  0  0
  5 24  1  0  0  0  0
  9 25  1  0  0  0  0
  9 26  1  0  0  0  0
 10 27  1  0  0  0  0
 10 28  1  0  0  0  0
 11 29  1  0  0  0  0
 11 30  1  0  0  0  0
 12 31  1  0  0  0  0
 12 32  1  0  0  0  0
 13 33  1  0  0  0  0
 14 34  1  0  0  0  0
 14 35  1  0  0  0  0
 16 36  1  0  0  0  0
M  END
> <Catalog ID>
Z291278940

> <MW>
280.098

> <MW (desalted)>
280.75

> <ClogP>
0.132

> <logS>
-3.34

> <HBD>
1

> <HBA>
2

> <TPSA>
49.41

> <RotBonds>
3

> <ROCS_ShapeQuery>
A71EV2A-x0451_0A_A71EV2A-x0310_0A_A71EV2A-x0416_0A_peptide

> <ROCS_TanimotoCombo>
0.425 

> <ROCS_ShapeTanimoto>
0.295 

> <ROCS_ColorTanimoto>
0.130 

> <ROCS_RefTversky>
0.265 

> <ROCS_RefColorTversky>
0.139 

> <ROCS_RefTverskyCombo>
0.405 

> <ROCS_FitTversky>
1.605 

> <ROCS_FitColorTversky>
0.668 

> <ROCS_FitTverskyCombo>
2.274 

> <ROCS_ColorScore>
-4.234

> <ROCS_Overlap>
1839.351

> <ROCS_Rank>
303                 

$$$$
untitled-dbase-953_21
  -OEChem-11112315393D

 24 25  0     0  0  0  0  0  0999 V2000
    9.9096    9.2385   22.7453 C   0  0  0  0  0  0  0  0  0  0  0  0
    9.1545   10.2096   23.4700 C   0  0  0  0  0  0  0  0  0  0  0  0
    8.0611    9.9334   24.3151 C   0  0  0  0  0  0  0  0  0  0  0  0
    7.5382   11.0665   24.8747 C   0  0  0  0  0  0  0  0  0  0  0  0
    9.4084   11.5718   23.4329 C   0  0  0  0  0  0  0  0  0  0  0  0
   10.9333   13.5128   23.1687 C   0  0  0  0  0  0  0  0  0  0  0  0
    7.3262    8.7255   24.7614 C   0  0  0  0  0  0  0  0  0  0  0  0
    6.3864   10.8198   25.7722 C   0  0  0  0  0  0  0  0  0  0  0  0
    6.0462    9.3398   25.4127 C   0  0  0  0  0  0  0  0  0  0  0  0
   11.9467   14.0361   22.1774 C   0  0  0  0  0  0  0  0  0  0  0  0
   10.5234    8.4491   22.1564 N   0  0  0  0  0  0  0  0  0  0  0  0
   10.3547   12.2987   22.7607 N   0  0  0  0  0  0  0  0  0  0  0  0
   10.6821   14.1488   24.1887 O   0  0  0  0  0  0  0  0  0  0  0  0
    8.3156   12.4768   24.4247 S   0  0  0  0  0  0  0  0  0  0  0  0
   11.4539   13.4953   20.5648 Cl  0  0  0  0  0  0  0  0  0  0  0  0
    7.0655    8.0558   23.9372 H   0  0  0  0  0  0  0  0  0  0  0  0
    7.9084    8.1759   25.5084 H   0  0  0  0  0  0  0  0  0  0  0  0
    6.6859   10.9008   26.8220 H   0  0  0  0  0  0  0  0  0  0  0  0
    5.5362   11.4800   25.5805 H   0  0  0  0  0  0  0  0  0  0  0  0
    5.2330    9.3306   24.6751 H   0  0  0  0  0  0  0  0  0  0  0  0
    5.7070    8.7680   26.2821 H   0  0  0  0  0  0  0  0  0  0  0  0
   12.9590   13.6754   22.3765 H   0  0  0  0  0  0  0  0  0  0  0  0
   11.9497   15.1295   22.2025 H   0  0  0  0  0  0  0  0  0  0  0  0
   10.6764   11.9150   21.8610 H   0  0  0  0  0  0  0  0  0  0  0  0
  1  2  1  0  0  0  0
  1 11  3  0  0  0  0
  2  3  1  0  0  0  0
  2  5  2  0  0  0  0
  3  4  2  0  0  0  0
  3  7  1  0  0  0  0
  4  8  1  0  0  0  0
  4 14  1  0  0  0  0
  5 12  1  0  0  0  0
  5 14  1  0  0  0  0
  6 10  1  0  0  0  0
  6 12  1  0  0  0  0
  6 13  2  0  0  0  0
  7  9  1  0  0  0  0
  8  9  1  0  0  0  0
 10 15  1  0  0  0  0
  7 16  1  0  0  0  0
  7 17  1  0  0  0  0
  8 18  1  0  0  0  0
  8 19  1  0  0  0  0
  9 20  1  0  0  0  0
  9 21  1  0  0  0  0
 10 22  1  0  0  0  0
 10 23  1  0  0  0  0
 12 24  1  0  0  0  0
M  END
> <Catalog ID>
Z56887708

> <MW>
240.012

> <MW (desalted)>
240.709

> <ClogP>
1.858

> <logS>
-3.58

> <HBD>
1

> <HBA>
2

> <TPSA>
52.89

> <RotBonds>
2

> <ROCS_ShapeQuery>
A71EV2A-x0451_0A_A71EV2A-x0310_0A_A71EV2A-x0416_0A_peptide

> <ROCS_TanimotoCombo>
0.425 

> <ROCS_ShapeTanimoto>
0.286 

> <ROCS_ColorTanimoto>
0.139 

> <ROCS_RefTversky>
0.254 

> <ROCS_RefColorTversky>
0.147 

> <ROCS_RefTverskyCombo>
0.401 

> <ROCS_FitTversky>
1.808 

> <ROCS_FitColorTversky>
0.703 

> <ROCS_FitTverskyCombo>
2.511 

> <ROCS_ColorScore>
-4.477

> <ROCS_Overlap>
1757.959

> <ROCS_Rank>
304                 

$$$$
untitled-dbase-431_62
  -OEChem-11112315393D

 31 32  0     0  0  0  0  0  0999 V2000
   11.1719   14.3118   23.1227 C   0  0  0  0  0  0  0  0  0  0  0  0
    8.7875   12.5077   22.5695 C   0  0  0  0  0  0  0  0  0  0  0  0
   10.6212   11.4334   23.9452 C   0  0  0  0  0  0  0  0  0  0  0  0
    7.8528   11.3481   22.9149 C   0  0  0  0  0  0  0  0  0  0  0  0
    9.6840   10.2744   24.2847 C   0  0  0  0  0  0  0  0  0  0  0  0
    6.4496    9.8965   25.4406 C   0  0  0  0  0  0  0  0  0  0  0  0
    7.2033   10.8919   26.2776 C   0  0  0  0  0  0  0  0  0  0  0  0
   10.2539   12.0706   22.6024 C   0  0  0  0  0  0  0  0  0  0  0  0
    8.2113   10.6937   24.2525 C   0  0  0  0  0  0  0  0  0  0  0  0
   12.1620   15.3404   22.6389 C   0  0  0  0  0  0  0  0  0  0  0  0
   11.1200   13.1883   22.3151 N   0  0  0  0  0  0  0  0  0  0  0  0
   10.5079   14.4807   24.1440 O   0  0  0  0  0  0  0  0  0  0  0  0
    7.3972    9.5237   24.4416 O   0  0  0  0  0  0  0  0  0  0  0  0
    7.9523   11.6306   25.3141 O   0  0  0  0  0  0  0  0  0  0  0  0
   12.2636   15.2112   20.8760 Cl  0  0  0  0  0  0  0  0  0  0  0  0
    8.5304   12.8890   21.5738 H   0  0  0  0  0  0  0  0  0  0  0  0
    8.6238   13.3294   23.2783 H   0  0  0  0  0  0  0  0  0  0  0  0
   10.5745   12.1846   24.7439 H   0  0  0  0  0  0  0  0  0  0  0  0
   11.6526   11.0618   23.9159 H   0  0  0  0  0  0  0  0  0  0  0  0
    6.8213   11.7206   22.9452 H   0  0  0  0  0  0  0  0  0  0  0  0
    7.8838   10.5967   22.1155 H   0  0  0  0  0  0  0  0  0  0  0  0
    9.8489    9.4470   23.5828 H   0  0  0  0  0  0  0  0  0  0  0  0
    9.9418    9.8880   25.2786 H   0  0  0  0  0  0  0  0  0  0  0  0
    6.1148    9.0213   26.0028 H   0  0  0  0  0  0  0  0  0  0  0  0
    5.5905   10.3573   24.9411 H   0  0  0  0  0  0  0  0  0  0  0  0
    6.5538   11.5546   26.8548 H   0  0  0  0  0  0  0  0  0  0  0  0
    7.9100   10.3980   26.9532 H   0  0  0  0  0  0  0  0  0  0  0  0
   10.4268   11.3414   21.8014 H   0  0  0  0  0  0  0  0  0  0  0  0
   11.8686   16.3604   22.8990 H   0  0  0  0  0  0  0  0  0  0  0  0
   13.1444   15.1302   23.0706 H   0  0  0  0  0  0  0  0  0  0  0  0
   11.7125   13.1496   21.4913 H   0  0  0  0  0  0  0  0  0  0  0  0
  1 10  1  0  0  0  0
  1 11  1  0  0  0  0
  1 12  2  0  0  0  0
  2  4  1  0  0  0  0
  2  8  1  0  0  0  0
  3  5  1  0  0  0  0
  3  8  1  0  0  0  0
  4  9  1  0  0  0  0
  5  9  1  0  0  0  0
  6  7  1  0  0  0  0
  6 13  1  0  0  0  0
  7 14  1  0  0  0  0
  8 11  1  0  0  0  0
  9 13  1  0  0  0  0
  9 14  1  0  0  0  0
 10 15  1  0  0  0  0
  2 16  1  0  0  0  0
  2 17  1  0  0  0  0
  3 18  1  0  0  0  0
  3 19  1  0  0  0  0
  4 20  1  0  0  0  0
  4 21  1  0  0  0  0
  5 22  1  0  0  0  0
  5 23  1  0  0  0  0
  6 24  1  0  0  0  0
  6 25  1  0  0  0  0
  7 26  1  0  0  0  0
  7 27  1  0  0  0  0
  8 28  1  0  0  0  0
 10 29  1  0  0  0  0
 10 30  1  0  0  0  0
 11 31  1  0  0  0  0
M  END
> <Catalog ID>
Z291278632

> <MW>
233.082

> <MW (desalted)>
233.692

> <ClogP>
0.105

> <logS>
-1.708

> <HBD>
1

> <HBA>
3

> <TPSA>
47.56

> <RotBonds>
2

> <ROCS_ShapeQuery>
A71EV2A-x0451_0A_A71EV2A-x0310_0A_A71EV2A-x0416_0A_peptide

> <ROCS_TanimotoCombo>
0.425 

> <ROCS_ShapeTanimoto>
0.267 

> <ROCS_ColorTanimoto>
0.158 

> <ROCS_RefTversky>
0.240 

> <ROCS_RefColorTversky>
0.169 

> <ROCS_RefTverskyCombo>
0.409 

> <ROCS_FitTversky>
1.705 

> <ROCS_FitColorTversky>
0.706 

> <ROCS_FitTverskyCombo>
2.411 

> <ROCS_ColorScore>
-5.153

> <ROCS_Overlap>
1663.330

> <ROCS_Rank>
305                 

$$$$
untitled-dbase-927_254
  -OEChem-11112315393D

 41 42  0     1  0  0  0  0  0999 V2000
    9.0110   10.0538   23.3143 C   0  0  0  0  0  0  0  0  0  0  0  0
    9.8868   11.0671   22.8525 C   0  0  0  0  0  0  0  0  0  0  0  0
    8.1255   10.6429   24.1896 C   0  0  0  0  0  0  0  0  0  0  0  0
    9.5100   12.2446   23.4599 C   0  0  0  0  0  0  0  0  0  0  0  0
   13.2639   11.5625   25.4679 C   0  0  0  0  0  0  0  0  0  0  0  0
   12.2675   12.3164   24.9987 C   0  0  0  0  0  0  0  0  0  0  0  0
    7.0582   10.0131   24.9053 C   0  0  0  0  0  0  0  0  0  0  0  0
   12.5653   13.3316   23.9677 C   0  0  0  0  0  0  0  0  0  0  0  0
   10.0301   15.7426   21.9296 C   0  0  0  0  0  0  0  0  0  0  0  0
   11.4408   15.4834   21.3978 C   0  0  0  0  0  0  0  0  0  0  0  0
    9.3040   14.4488   22.2827 C   0  0  0  0  0  0  0  0  0  0  0  0
   11.9512   14.0778   21.7050 C   0  0  0  0  0  0  0  0  0  0  0  0
   10.1000   13.6408   23.3296 C   0  0  2  0  0  0  0  0  0  0  0  0
    7.7431   12.9468   25.0877 C   0  0  0  0  0  0  0  0  0  0  0  0
    5.8183    7.8568   25.3461 C   0  0  0  0  0  0  0  0  0  0  0  0
    8.4386   11.9747   24.2707 N   0  0  0  0  0  0  0  0  0  0  0  0
   11.5605   13.6496   23.0508 N   0  0  0  0  0  0  0  0  0  0  0  0
    6.8636    8.6293   24.7142 N   0  0  0  0  0  0  0  0  0  0  0  0
    6.3026   10.6687   25.6643 O   0  0  0  0  0  0  0  0  0  0  0  0
   13.6891   13.8377   23.9792 O   0  0  0  0  0  0  0  0  0  0  0  0
    9.0280    9.0090   23.0355 H   0  0  0  0  0  0  0  0  0  0  0  0
   10.7028   10.9486   22.1530 H   0  0  0  0  0  0  0  0  0  0  0  0
   13.1076   10.8011   26.2248 H   0  0  0  0  0  0  0  0  0  0  0  0
   14.2727   11.6990   25.0929 H   0  0  0  0  0  0  0  0  0  0  0  0
   11.2486   12.2097   25.3474 H   0  0  0  0  0  0  0  0  0  0  0  0
   10.0873   16.3913   22.8207 H   0  0  0  0  0  0  0  0  0  0  0  0
    9.4512   16.3089   21.1787 H   0  0  0  0  0  0  0  0  0  0  0  0
   11.4537   15.6469   20.3108 H   0  0  0  0  0  0  0  0  0  0  0  0
   12.1320   16.2232   21.8291 H   0  0  0  0  0  0  0  0  0  0  0  0
    8.3402   14.7023   22.7107 H   0  0  0  0  0  0  0  0  0  0  0  0
    9.1372   13.8659   21.3866 H   0  0  0  0  0  0  0  0  0  0  0  0
   11.5224   13.3670   21.0065 H   0  0  0  0  0  0  0  0  0  0  0  0
   13.0268   14.0825   21.5943 H   0  0  0  0  0  0  0  0  0  0  0  0
    9.9229   14.1456   24.3095 H   0  0  0  0  0  0  0  0  0  0  0  0
    8.2281   12.9731   26.0670 H   0  0  0  0  0  0  0  0  0  0  0  0
    7.7948   13.9286   24.6089 H   0  0  0  0  0  0  0  0  0  0  0  0
    6.6948   12.6515   25.1868 H   0  0  0  0  0  0  0  0  0  0  0  0
    6.2054    7.4014   26.2696 H   0  0  0  0  0  0  0  0  0  0  0  0
    4.9716    8.5156   25.5893 H   0  0  0  0  0  0  0  0  0  0  0  0
    5.4818    7.0653   24.6603 H   0  0  0  0  0  0  0  0  0  0  0  0
    7.4541    8.1463   24.0450 H   0  0  0  0  0  0  0  0  0  0  0  0
  1  2  1  0  0  0  0
  1  3  2  0  0  0  0
  2  4  2  0  0  0  0
  3  7  1  0  0  0  0
  3 16  1  0  0  0  0
  4 13  1  0  0  0  0
  4 16  1  0  0  0  0
  5  6  2  0  0  0  0
  6  8  1  0  0  0  0
  7 18  1  0  0  0  0
  7 19  2  0  0  0  0
  8 17  1  0  0  0  0
  8 20  2  0  0  0  0
  9 10  1  0  0  0  0
  9 11  1  0  0  0  0
 10 12  1  0  0  0  0
 11 13  1  0  0  0  0
 12 17  1  0  0  0  0
 13 17  1  0  0  0  0
 14 16  1  0  0  0  0
 15 18  1  0  0  0  0
  1 21  1  0  0  0  0
  2 22  1  0  0  0  0
  5 23  1  0  0  0  0
  5 24  1  0  0  0  0
  6 25  1  0  0  0  0
  9 26  1  0  0  0  0
  9 27  1  0  0  0  0
 10 28  1  0  0  0  0
 10 29  1  0  0  0  0
 11 30  1  0  0  0  0
 11 31  1  0  0  0  0
 12 32  1  0  0  0  0
 12 33  1  0  0  0  0
 13 34  1  0  0  0  0
 14 35  1  0  0  0  0
 14 36  1  0  0  0  0
 14 37  1  0  0  0  0
 15 38  1  0  0  0  0
 15 39  1  0  0  0  0
 15 40  1  0  0  0  0
 18 41  1  0  0  0  0
M  END
> <Catalog ID>
Z2737383447

> <MW>
275.346

> <MW (desalted)>
275.346

> <ClogP>
0.695

> <logS>
-2.17

> <HBD>
1

> <HBA>
2

> <TPSA>
54.34

> <RotBonds>
3

> <ROCS_ShapeQuery>
A71EV2A-x0451_0A_A71EV2A-x0310_0A_A71EV2A-x0416_0A_peptide

> <ROCS_TanimotoCombo>
0.424 

> <ROCS_ShapeTanimoto>
0.314 

> <ROCS_ColorTanimoto>
0.110 

> <ROCS_RefTversky>
0.280 

> <ROCS_RefColorTversky>
0.123 

> <ROCS_RefTverskyCombo>
0.404 

> <ROCS_FitTversky>
1.621 

> <ROCS_FitColorTversky>
0.514 

> <ROCS_FitTverskyCombo>
2.135 

> <ROCS_ColorScore>
-3.746

> <ROCS_Overlap>
1946.112

> <ROCS_Rank>
306                 

$$$$
untitled-dbase-633_159
  -OEChem-11112315393D

 30 31  0     1  0  0  0  0  0999 V2000
    9.0786   10.9562   22.4588 C   0  0  0  0  0  0  0  0  0  0  0  0
    7.8337   10.5370   22.9317 C   0  0  0  0  0  0  0  0  0  0  0  0
    9.6894   11.8139   24.6612 C   0  0  0  0  0  0  0  0  0  0  0  0
    8.4554   11.3961   25.1203 C   0  0  0  0  0  0  0  0  0  0  0  0
    9.9985   11.5893   23.3158 C   0  0  0  0  0  0  0  0  0  0  0  0
    7.5540   10.7709   24.2626 C   0  0  0  0  0  0  0  0  0  0  0  0
    6.4815   10.8480   26.2964 C   0  0  0  0  0  0  0  0  0  0  0  0
   10.8908   14.4647   22.8977 C   0  0  0  0  0  0  0  0  0  0  0  0
    7.8556   11.5004   26.4863 C   0  0  0  0  0  0  0  0  0  0  0  0
   12.4411   11.9926   23.8290 C   0  0  0  0  0  0  0  0  0  0  0  0
   10.9120   15.7246   22.0704 C   0  0  0  0  0  0  0  0  0  0  0  0
   11.3214   12.0269   22.7792 C   0  0  2  0  0  0  0  0  0  0  0  0
    6.3937   10.4495   24.9579 N   0  0  0  0  0  0  0  0  0  0  0  0
   11.2550   13.3463   22.1754 N   0  0  0  0  0  0  0  0  0  0  0  0
    5.6374   10.7123   27.1686 O   0  0  0  0  0  0  0  0  0  0  0  0
   10.5913   14.4767   24.0904 O   0  0  0  0  0  0  0  0  0  0  0  0
   12.1503   15.5337   20.8194 Cl  0  0  0  0  0  0  0  0  0  0  0  0
    9.3339   10.7898   21.4148 H   0  0  0  0  0  0  0  0  0  0  0  0
    7.1230   10.0505   22.2738 H   0  0  0  0  0  0  0  0  0  0  0  0
   10.3944   12.3016   25.3261 H   0  0  0  0  0  0  0  0  0  0  0  0
    8.4317   10.9324   27.2212 H   0  0  0  0  0  0  0  0  0  0  0  0
    7.7268   12.5427   26.7887 H   0  0  0  0  0  0  0  0  0  0  0  0
   12.1933   12.6351   24.6810 H   0  0  0  0  0  0  0  0  0  0  0  0
   12.6003   10.9759   24.2057 H   0  0  0  0  0  0  0  0  0  0  0  0
   13.3957   12.3350   23.4139 H   0  0  0  0  0  0  0  0  0  0  0  0
    9.9531   15.9252   21.5863 H   0  0  0  0  0  0  0  0  0  0  0  0
   11.1748   16.5733   22.7078 H   0  0  0  0  0  0  0  0  0  0  0  0
   11.6361   11.3624   21.9559 H   0  0  0  0  0  0  0  0  0  0  0  0
    5.5953    9.9883   24.5384 H   0  0  0  0  0  0  0  0  0  0  0  0
   11.4827   13.4487   21.1951 H   0  0  0  0  0  0  0  0  0  0  0  0
  1  2  2  0  0  0  0
  1  5  1  0  0  0  0
  2  6  1  0  0  0  0
  3  4  1  0  0  0  0
  3  5  2  0  0  0  0
  4  6  2  0  0  0  0
  4  9  1  0  0  0  0
  5 12  1  0  0  0  0
  6 13  1  0  0  0  0
  7  9  1  0  0  0  0
  7 13  1  0  0  0  0
  7 15  2  0  0  0  0
  8 11  1  0  0  0  0
  8 14  1  0  0  0  0
  8 16  2  0  0  0  0
 10 12  1  0  0  0  0
 11 17  1  0  0  0  0
 12 14  1  0  0  0  0
  1 18  1  0  0  0  0
  2 19  1  0  0  0  0
  3 20  1  0  0  0  0
  9 21  1  0  0  0  0
  9 22  1  0  0  0  0
 10 23  1  0  0  0  0
 10 24  1  0  0  0  0
 10 25  1  0  0  0  0
 11 26  1  0  0  0  0
 11 27  1  0  0  0  0
 12 28  1  0  0  0  0
 13 29  1  0  0  0  0
 14 30  1  0  0  0  0
M  END
> <Catalog ID>
Z567154970

> <MW>
252.067

> <MW (desalted)>
252.697

> <ClogP>
0.437

> <logS>
-2.129

> <HBD>
2

> <HBA>
2

> <TPSA>
58.2

> <RotBonds>
3

> <ROCS_ShapeQuery>
A71EV2A-x0451_0A_A71EV2A-x0310_0A_A71EV2A-x0416_0A_peptide

> <ROCS_TanimotoCombo>
0.424 

> <ROCS_ShapeTanimoto>
0.271 

> <ROCS_ColorTanimoto>
0.153 

> <ROCS_RefTversky>
0.246 

> <ROCS_RefColorTversky>
0.165 

> <ROCS_RefTverskyCombo>
0.411 

> <ROCS_FitTversky>
1.593 

> <ROCS_FitColorTversky>
0.686 

> <ROCS_FitTverskyCombo>
2.279 

> <ROCS_ColorScore>
-5.007

> <ROCS_Overlap>
1709.014

> <ROCS_Rank>
307                 

$$$$
untitled-dbase-443_13
  -OEChem-11112315393D

 29 30  0     1  0  0  0  0  0999 V2000
    6.3182   11.5087   26.2016 C   0  0  0  0  0  0  0  0  0  0  0  0
    7.0337   12.6947   26.2342 C   0  0  0  0  0  0  0  0  0  0  0  0
    6.7132   10.5031   25.3303 C   0  0  0  0  0  0  0  0  0  0  0  0
    8.1262   12.8860   25.3791 C   0  0  0  0  0  0  0  0  0  0  0  0
    7.8218   10.6775   24.4786 C   0  0  0  0  0  0  0  0  0  0  0  0
    8.5295   11.9038   24.4552 C   0  0  0  0  0  0  0  0  0  0  0  0
   10.3223   13.3372   23.4169 C   0  0  0  0  0  0  0  0  0  0  0  0
    8.2001    9.5102   23.6080 C   0  0  0  0  0  0  0  0  0  0  0  0
    9.6530    9.6147   23.1945 C   0  0  0  0  0  0  0  0  0  0  0  0
    9.9469   10.9876   22.5948 C   0  0  1  0  0  0  0  0  0  0  0  0
    9.2177   11.2046   21.2602 C   0  0  0  0  0  0  0  0  0  0  0  0
   10.7658   13.7242   22.0218 C   0  0  0  0  0  0  0  0  0  0  0  0
    9.6456   12.1005   23.5369 N   0  0  0  0  0  0  0  0  0  0  0  0
   10.5870   14.1206   24.3307 O   0  0  0  0  0  0  0  0  0  0  0  0
   12.1958   14.7301   22.2136 Cl  0  0  0  0  0  0  0  0  0  0  0  0
    5.4518   11.3724   26.8395 H   0  0  0  0  0  0  0  0  0  0  0  0
    6.7391   13.4888   26.9159 H   0  0  0  0  0  0  0  0  0  0  0  0
    6.1525    9.5710   25.3104 H   0  0  0  0  0  0  0  0  0  0  0  0
    8.6149   13.8555   25.4400 H   0  0  0  0  0  0  0  0  0  0  0  0
    8.0520    8.5742   24.1476 H   0  0  0  0  0  0  0  0  0  0  0  0
    7.5552    9.5037   22.7288 H   0  0  0  0  0  0  0  0  0  0  0  0
   10.2989    9.4605   24.0673 H   0  0  0  0  0  0  0  0  0  0  0  0
    9.8945    8.8206   22.4808 H   0  0  0  0  0  0  0  0  0  0  0  0
   11.0175   10.9908   22.3647 H   0  0  0  0  0  0  0  0  0  0  0  0
    8.1442   11.2103   21.4295 H   0  0  0  0  0  0  0  0  0  0  0  0
    9.4708   10.4013   20.5733 H   0  0  0  0  0  0  0  0  0  0  0  0
    9.5210   12.1560   20.8312 H   0  0  0  0  0  0  0  0  0  0  0  0
    9.9717   14.2882   21.5492 H   0  0  0  0  0  0  0  0  0  0  0  0
   11.0117   12.8237   21.4736 H   0  0  0  0  0  0  0  0  0  0  0  0
  1  2  1  0  0  0  0
  1  3  2  0  0  0  0
  2  4  2  0  0  0  0
  3  5  1  0  0  0  0
  4  6  1  0  0  0  0
  5  6  2  0  0  0  0
  5  8  1  0  0  0  0
  6 13  1  0  0  0  0
  7 12  1  0  0  0  0
  7 13  1  0  0  0  0
  7 14  2  0  0  0  0
  8  9  1  0  0  0  0
  9 10  1  0  0  0  0
 10 11  1  0  0  0  0
 10 13  1  0  0  0  0
 12 15  1  0  0  0  0
  1 16  1  0  0  0  0
  2 17  1  0  0  0  0
  3 18  1  0  0  0  0
  4 19  1  0  0  0  0
  8 20  1  0  0  0  0
  8 21  1  0  0  0  0
  9 22  1  0  0  0  0
  9 23  1  0  0  0  0
 10 24  1  0  0  0  0
 11 25  1  0  0  0  0
 11 26  1  0  0  0  0
 11 27  1  0  0  0  0
 12 28  1  0  0  0  0
 12 29  1  0  0  0  0
M  END
> <Catalog ID>
Z199424092

> <MW>
223.076

> <MW (desalted)>
223.699

> <ClogP>
2.903

> <logS>
-3.03

> <HBD>
0

> <HBA>
1

> <TPSA>
20.31

> <RotBonds>
1

> <ROCS_ShapeQuery>
A71EV2A-x0451_0A_A71EV2A-x0310_0A_A71EV2A-x0416_0A_peptide

> <ROCS_TanimotoCombo>
0.424 

> <ROCS_ShapeTanimoto>
0.293 

> <ROCS_ColorTanimoto>
0.131 

> <ROCS_RefTversky>
0.259 

> <ROCS_RefColorTversky>
0.133 

> <ROCS_RefTverskyCombo>
0.392 

> <ROCS_FitTversky>
1.825 

> <ROCS_FitColorTversky>
0.906 

> <ROCS_FitTverskyCombo>
2.732 

> <ROCS_ColorScore>
-4.024

> <ROCS_Overlap>
1793.930

> <ROCS_Rank>
308                 

$$$$
untitled-dbase-546_24
  -OEChem-11112315393D

 30 32  0     0  0  0  0  0  0999 V2000
    6.2392   11.8323   25.8753 C   0  0  0  0  0  0  0  0  0  0  0  0
    6.2611   10.4397   25.8469 C   0  0  0  0  0  0  0  0  0  0  0  0
    7.2160   12.5778   25.2056 C   0  0  0  0  0  0  0  0  0  0  0  0
    7.2567    9.7486   25.1507 C   0  0  0  0  0  0  0  0  0  0  0  0
    8.2315   11.9049   24.4963 C   0  0  0  0  0  0  0  0  0  0  0  0
    9.3524   12.3256   23.7248 C   0  0  0  0  0  0  0  0  0  0  0  0
    8.2278   10.5051   24.4848 C   0  0  0  0  0  0  0  0  0  0  0  0
    9.9826   11.1870   23.2715 C   0  0  0  0  0  0  0  0  0  0  0  0
   12.1406   14.6193   22.8632 C   0  0  0  0  0  0  0  0  0  0  0  0
    9.8297   13.6996   23.3997 C   0  0  0  0  0  0  0  0  0  0  0  0
   11.2055   11.1593   22.4336 C   0  0  0  0  0  0  0  0  0  0  0  0
   11.3636   12.5345   21.7660 C   0  0  0  0  0  0  0  0  0  0  0  0
   13.5705   14.1539   22.7427 C   0  0  0  0  0  0  0  0  0  0  0  0
    9.3079   10.0953   23.7319 N   0  0  0  0  0  0  0  0  0  0  0  0
   11.1535   13.6390   22.7285 N   0  0  0  0  0  0  0  0  0  0  0  0
   11.9093   15.8138   23.0663 O   0  0  0  0  0  0  0  0  0  0  0  0
   13.8332   12.9947   24.0405 Cl  0  0  0  0  0  0  0  0  0  0  0  0
    5.4551   12.3474   26.4240 H   0  0  0  0  0  0  0  0  0  0  0  0
    5.4920    9.8804   26.3736 H   0  0  0  0  0  0  0  0  0  0  0  0
    7.1854   13.6633   25.2369 H   0  0  0  0  0  0  0  0  0  0  0  0
    7.2720    8.6640   25.1298 H   0  0  0  0  0  0  0  0  0  0  0  0
    9.1387   14.1866   22.7029 H   0  0  0  0  0  0  0  0  0  0  0  0
    9.8826   14.2985   24.3116 H   0  0  0  0  0  0  0  0  0  0  0  0
   12.0780   10.9460   23.0618 H   0  0  0  0  0  0  0  0  0  0  0  0
   11.1397   10.3796   21.6673 H   0  0  0  0  0  0  0  0  0  0  0  0
   12.3498   12.6045   21.2960 H   0  0  0  0  0  0  0  0  0  0  0  0
   10.6164   12.6640   20.9726 H   0  0  0  0  0  0  0  0  0  0  0  0
   14.2283   15.0064   22.8659 H   0  0  0  0  0  0  0  0  0  0  0  0
   13.7027   13.6729   21.7807 H   0  0  0  0  0  0  0  0  0  0  0  0
    9.5568    9.1321   23.5518 H   0  0  0  0  0  0  0  0  0  0  0  0
  1  2  1  0  0  0  0
  1  3  2  0  0  0  0
  2  4  2  0  0  0  0
  3  5  1  0  0  0  0
  4  7  1  0  0  0  0
  5  6  1  0  0  0  0
  5  7  2  0  0  0  0
  6  8  2  0  0  0  0
  6 10  1  0  0  0  0
  7 14  1  0  0  0  0
  8 11  1  0  0  0  0
  8 14  1  0  0  0  0
  9 13  1  0  0  0  0
  9 15  1  0  0  0  0
  9 16  2  0  0  0  0
 10 15  1  0  0  0  0
 11 12  1  0  0  0  0
 12 15  1  0  0  0  0
 13 17  1  0  0  0  0
  1 18  1  0  0  0  0
  2 19  1  0  0  0  0
  3 20  1  0  0  0  0
  4 21  1  0  0  0  0
 10 22  1  0  0  0  0
 10 23  1  0  0  0  0
 11 24  1  0  0  0  0
 11 25  1  0  0  0  0
 12 26  1  0  0  0  0
 12 27  1  0  0  0  0
 13 28  1  0  0  0  0
 13 29  1  0  0  0  0
 14 30  1  0  0  0  0
M  END
> <Catalog ID>
Z258606508

> <MW>
248.072

> <MW (desalted)>
248.708

> <ClogP>
1.244

> <logS>
-3.54

> <HBD>
1

> <HBA>
1

> <TPSA>
36.1

> <RotBonds>
1

> <ROCS_ShapeQuery>
A71EV2A-x0451_0A_A71EV2A-x0310_0A_A71EV2A-x0416_0A_peptide

> <ROCS_TanimotoCombo>
0.424 

> <ROCS_ShapeTanimoto>
0.312 

> <ROCS_ColorTanimoto>
0.112 

> <ROCS_RefTversky>
0.276 

> <ROCS_RefColorTversky>
0.122 

> <ROCS_RefTverskyCombo>
0.397 

> <ROCS_FitTversky>
1.745 

> <ROCS_FitColorTversky>
0.581 

> <ROCS_FitTverskyCombo>
2.326 

> <ROCS_ColorScore>
-3.698

> <ROCS_Overlap>
1911.605

> <ROCS_Rank>
309                 

$$$$
untitled-dbase-535_29
  -OEChem-11112315393D

 26 26  0     0  0  0  0  0  0999 V2000
    7.4179   10.1799   24.8235 C   0  0  0  0  0  0  0  0  0  0  0  0
    8.3286    9.5083   24.0080 C   0  0  0  0  0  0  0  0  0  0  0  0
    8.4645   12.2833   24.2602 C   0  0  0  0  0  0  0  0  0  0  0  0
    7.4857   11.5675   24.9495 C   0  0  0  0  0  0  0  0  0  0  0  0
    9.3753   11.6117   23.4447 C   0  0  0  0  0  0  0  0  0  0  0  0
    9.3074   10.2242   23.3186 C   0  0  0  0  0  0  0  0  0  0  0  0
   10.9217   13.5360   23.1828 C   0  0  0  0  0  0  0  0  0  0  0  0
    6.5116   12.2846   25.8217 C   0  0  0  0  0  0  0  0  0  0  0  0
   10.0427    8.1322   22.4591 C   0  0  0  0  0  0  0  0  0  0  0  0
   11.9430   14.0477   22.1936 C   0  0  0  0  0  0  0  0  0  0  0  0
   10.3501   12.3422   22.7609 N   0  0  0  0  0  0  0  0  0  0  0  0
   10.6749   14.1754   24.2017 O   0  0  0  0  0  0  0  0  0  0  0  0
   10.1881    9.5490   22.5271 O   0  0  0  0  0  0  0  0  0  0  0  0
   11.4484   13.5110   20.5802 Cl  0  0  0  0  0  0  0  0  0  0  0  0
    6.6589    9.6137   25.3568 H   0  0  0  0  0  0  0  0  0  0  0  0
    8.2699    8.4273   23.9140 H   0  0  0  0  0  0  0  0  0  0  0  0
    8.5143   13.3655   24.3592 H   0  0  0  0  0  0  0  0  0  0  0  0
    6.9009   12.3645   26.8441 H   0  0  0  0  0  0  0  0  0  0  0  0
    6.3100   13.2963   25.4462 H   0  0  0  0  0  0  0  0  0  0  0  0
    5.5472   11.7610   25.8566 H   0  0  0  0  0  0  0  0  0  0  0  0
   10.8058    7.7183   21.7955 H   0  0  0  0  0  0  0  0  0  0  0  0
    9.0461    7.8849   22.0849 H   0  0  0  0  0  0  0  0  0  0  0  0
   10.1679    7.7136   23.4605 H   0  0  0  0  0  0  0  0  0  0  0  0
   12.9509   13.6762   22.3954 H   0  0  0  0  0  0  0  0  0  0  0  0
   11.9577   15.1409   22.2179 H   0  0  0  0  0  0  0  0  0  0  0  0
   10.6710   11.9651   21.8720 H   0  0  0  0  0  0  0  0  0  0  0  0
  1  2  2  0  0  0  0
  1  4  1  0  0  0  0
  2  6  1  0  0  0  0
  3  4  2  0  0  0  0
  3  5  1  0  0  0  0
  4  8  1  0  0  0  0
  5  6  2  0  0  0  0
  5 11  1  0  0  0  0
  6 13  1  0  0  0  0
  7 10  1  0  0  0  0
  7 11  1  0  0  0  0
  7 12  2  0  0  0  0
  9 13  1  0  0  0  0
 10 14  1  0  0  0  0
  1 15  1  0  0  0  0
  2 16  1  0  0  0  0
  3 17  1  0  0  0  0
  8 18  1  0  0  0  0
  8 19  1  0  0  0  0
  8 20  1  0  0  0  0
  9 21  1  0  0  0  0
  9 22  1  0  0  0  0
  9 23  1  0  0  0  0
 10 24  1  0  0  0  0
 10 25  1  0  0  0  0
 11 26  1  0  0  0  0
M  END
> <Catalog ID>
Z56896326

> <MW>
213.056

> <MW (desalted)>
213.661

> <ClogP>
1.758

> <logS>
-2.72

> <HBD>
1

> <HBA>
2

> <TPSA>
38.33

> <RotBonds>
3

> <ROCS_ShapeQuery>
A71EV2A-x0451_0A_A71EV2A-x0310_0A_A71EV2A-x0416_0A_peptide

> <ROCS_TanimotoCombo>
0.424 

> <ROCS_ShapeTanimoto>
0.289 

> <ROCS_ColorTanimoto>
0.136 

> <ROCS_RefTversky>
0.254 

> <ROCS_RefColorTversky>
0.141 

> <ROCS_RefTverskyCombo>
0.395 

> <ROCS_FitTversky>
1.893 

> <ROCS_FitColorTversky>
0.791 

> <ROCS_FitTverskyCombo>
2.684 

> <ROCS_ColorScore>
-4.262

> <ROCS_Overlap>
1759.968

> <ROCS_Rank>
310                 

$$$$
untitled-dbase-675_516
  -OEChem-11112315393D

 37 39  0     0  0  0  0  0  0999 V2000
   10.5669   11.7720   23.0334 C   0  0  0  0  0  0  0  0  0  0  0  0
   10.0183   10.5056   23.2491 C   0  0  0  0  0  0  0  0  0  0  0  0
    8.6970   12.8251   24.1834 C   0  0  0  0  0  0  0  0  0  0  0  0
    9.9102   12.9251   23.4980 C   0  0  0  0  0  0  0  0  0  0  0  0
    8.8195   10.4343   23.9286 C   0  0  0  0  0  0  0  0  0  0  0  0
    8.1767   11.5630   24.3833 C   0  0  0  0  0  0  0  0  0  0  0  0
   14.7709   13.1154   26.6106 C   0  0  0  0  0  0  0  0  0  0  0  0
   12.5428   14.3244   26.4370 C   0  0  0  0  0  0  0  0  0  0  0  0
   14.0717   14.2151   24.5096 C   0  0  0  0  0  0  0  0  0  0  0  0
   11.3749   14.0317   25.4933 C   0  0  0  0  0  0  0  0  0  0  0  0
   12.8764   13.9187   23.6046 C   0  0  0  0  0  0  0  0  0  0  0  0
    6.9955    9.8329   24.9251 C   0  0  0  0  0  0  0  0  0  0  0  0
   10.5187   14.2757   23.2533 C   0  0  0  0  0  0  0  0  0  0  0  0
   14.2771   12.2730   27.7597 C   0  0  0  0  0  0  0  0  0  0  0  0
   13.8040   13.8153   25.8902 N   0  0  0  0  0  0  0  0  0  0  0  0
   11.6529   14.5335   24.1396 N   0  0  0  0  0  0  0  0  0  0  0  0
   15.9783   13.1463   26.3595 O   0  0  0  0  0  0  0  0  0  0  0  0
    8.1392    9.2951   24.2302 O   0  0  0  0  0  0  0  0  0  0  0  0
    7.0132   11.2716   25.0263 O   0  0  0  0  0  0  0  0  0  0  0  0
   14.7187   10.6096   27.3911 Cl  0  0  0  0  0  0  0  0  0  0  0  0
   11.5115   11.8593   22.5020 H   0  0  0  0  0  0  0  0  0  0  0  0
   10.5219    9.6141   22.8935 H   0  0  0  0  0  0  0  0  0  0  0  0
    8.1806   13.7066   24.5482 H   0  0  0  0  0  0  0  0  0  0  0  0
   12.6658   15.4064   26.5703 H   0  0  0  0  0  0  0  0  0  0  0  0
   12.3258   13.9003   27.4193 H   0  0  0  0  0  0  0  0  0  0  0  0
   14.9618   13.7069   24.1246 H   0  0  0  0  0  0  0  0  0  0  0  0
   14.2892   15.2903   24.5207 H   0  0  0  0  0  0  0  0  0  0  0  0
   11.1753   12.9519   25.4795 H   0  0  0  0  0  0  0  0  0  0  0  0
   10.4801   14.5240   25.8931 H   0  0  0  0  0  0  0  0  0  0  0  0
   13.0908   14.3271   22.6096 H   0  0  0  0  0  0  0  0  0  0  0  0
   12.7568   12.8327   23.4937 H   0  0  0  0  0  0  0  0  0  0  0  0
    6.0871    9.5305   24.3913 H   0  0  0  0  0  0  0  0  0  0  0  0
    6.9682    9.4103   25.9358 H   0  0  0  0  0  0  0  0  0  0  0  0
   10.8726   14.3582   22.2199 H   0  0  0  0  0  0  0  0  0  0  0  0
    9.7836   15.0721   23.4099 H   0  0  0  0  0  0  0  0  0  0  0  0
   13.1991   12.3660   27.8258 H   0  0  0  0  0  0  0  0  0  0  0  0
   14.7699   12.5964   28.6694 H   0  0  0  0  0  0  0  0  0  0  0  0
  1  2  2  0  0  0  0
  1  4  1  0  0  0  0
  2  5  1  0  0  0  0
  3  4  2  0  0  0  0
  3  6  1  0  0  0  0
  4 13  1  0  0  0  0
  5  6  2  0  0  0  0
  5 18  1  0  0  0  0
  6 19  1  0  0  0  0
  7 14  1  0  0  0  0
  7 15  1  0  0  0  0
  7 17  2  0  0  0  0
  8 10  1  0  0  0  0
  8 15  1  0  0  0  0
  9 11  1  0  0  0  0
  9 15  1  0  0  0  0
 10 16  1  0  0  0  0
 11 16  1  0  0  0  0
 12 18  1  0  0  0  0
 12 19  1  0  0  0  0
 13 16  1  0  0  0  0
 14 20  1  0  0  0  0
  1 21  1  0  0  0  0
  2 22  1  0  0  0  0
  3 23  1  0  0  0  0
  8 24  1  0  0  0  0
  8 25  1  0  0  0  0
  9 26  1  0  0  0  0
  9 27  1  0  0  0  0
 10 28  1  0  0  0  0
 10 29  1  0  0  0  0
 11 30  1  0  0  0  0
 11 31  1  0  0  0  0
 12 32  1  0  0  0  0
 12 33  1  0  0  0  0
 13 34  1  0  0  0  0
 13 35  1  0  0  0  0
 14 36  1  0  0  0  0
 14 37  1  0  0  0  0
M  END
> <Catalog ID>
Z57252662

> <MW>
332.069

> <MW (desalted)>
296.749

> <ClogP>
2.048

> <logS>
-3.24

> <HBD>
0

> <HBA>
4

> <TPSA>
42.01

> <RotBonds>
3

> <ROCS_ShapeQuery>
A71EV2A-x0451_0A_A71EV2A-x0310_0A_A71EV2A-x0416_0A_peptide

> <ROCS_TanimotoCombo>
0.424 

> <ROCS_ShapeTanimoto>
0.289 

> <ROCS_ColorTanimoto>
0.136 

> <ROCS_RefTversky>
0.263 

> <ROCS_RefColorTversky>
0.152 

> <ROCS_RefTverskyCombo>
0.415 

> <ROCS_FitTversky>
1.504 

> <ROCS_FitColorTversky>
0.560 

> <ROCS_FitTverskyCombo>
2.063 

> <ROCS_ColorScore>
-4.627

> <ROCS_Overlap>
1826.038

> <ROCS_Rank>
311                 

$$$$
untitled-dbase-397_3
  -OEChem-11112315393D

 22 22  0     0  0  0  0  0  0999 V2000
    7.3962   10.2009   24.8410 C   0  0  0  0  0  0  0  0  0  0  0  0
    7.4738   11.5888   24.9559 C   0  0  0  0  0  0  0  0  0  0  0  0
    8.3037    9.5162   24.0326 C   0  0  0  0  0  0  0  0  0  0  0  0
    8.4588   12.2921   24.2625 C   0  0  0  0  0  0  0  0  0  0  0  0
    9.2887   10.2195   23.3392 C   0  0  0  0  0  0  0  0  0  0  0  0
    9.3662   11.6075   23.4541 C   0  0  0  0  0  0  0  0  0  0  0  0
   10.9210   13.5237   23.1831 C   0  0  0  0  0  0  0  0  0  0  0  0
   11.9463   14.0250   22.1926 C   0  0  0  0  0  0  0  0  0  0  0  0
   10.2473    9.4599   22.4806 C   0  0  0  0  0  0  0  0  0  0  0  0
   10.3455   12.3298   22.7675 N   0  0  0  0  0  0  0  0  0  0  0  0
   10.6749   14.1705   24.1976 O   0  0  0  0  0  0  0  0  0  0  0  0
   10.0298    8.1125   22.4821 F   0  0  0  0  0  0  0  0  0  0  0  0
   10.2099    9.8277   21.1669 F   0  0  0  0  0  0  0  0  0  0  0  0
   11.5430    9.6245   22.8729 F   0  0  0  0  0  0  0  0  0  0  0  0
   11.4213   15.6208   21.6328 Cl  0  0  0  0  0  0  0  0  0  0  0  0
    6.6292    9.6532   25.3802 H   0  0  0  0  0  0  0  0  0  0  0  0
    6.7666   12.1221   25.5848 H   0  0  0  0  0  0  0  0  0  0  0  0
    8.2346    8.4349   23.9495 H   0  0  0  0  0  0  0  0  0  0  0  0
    8.5089   13.3735   24.3607 H   0  0  0  0  0  0  0  0  0  0  0  0
   12.0565   13.3663   21.3275 H   0  0  0  0  0  0  0  0  0  0  0  0
   12.9158   14.1214   22.6894 H   0  0  0  0  0  0  0  0  0  0  0  0
   10.6665   11.9459   21.8816 H   0  0  0  0  0  0  0  0  0  0  0  0
  1  2  1  0  0  0  0
  1  3  2  0  0  0  0
  2  4  2  0  0  0  0
  3  5  1  0  0  0  0
  4  6  1  0  0  0  0
  5  6  2  0  0  0  0
  5  9  1  0  0  0  0
  6 10  1  0  0  0  0
  7  8  1  0  0  0  0
  7 10  1  0  0  0  0
  7 11  2  0  0  0  0
  8 15  1  0  0  0  0
  9 12  1  0  0  0  0
  9 13  1  0  0  0  0
  9 14  1  0  0  0  0
  1 16  1  0  0  0  0
  2 17  1  0  0  0  0
  3 18  1  0  0  0  0
  4 19  1  0  0  0  0
  8 20  1  0  0  0  0
  8 21  1  0  0  0  0
 10 22  1  0  0  0  0
M  END
> <Catalog ID>
Z56896251

> <MW>
237.017

> <MW (desalted)>
237.606

> <ClogP>
1.658

> <logS>
-3.25

> <HBD>
1

> <HBA>
1

> <TPSA>
29.1

> <RotBonds>
3

> <ROCS_ShapeQuery>
A71EV2A-x0451_0A_A71EV2A-x0310_0A_A71EV2A-x0416_0A_peptide

> <ROCS_TanimotoCombo>
0.424 

> <ROCS_ShapeTanimoto>
0.284 

> <ROCS_ColorTanimoto>
0.140 

> <ROCS_RefTversky>
0.253 

> <ROCS_RefColorTversky>
0.141 

> <ROCS_RefTverskyCombo>
0.394 

> <ROCS_FitTversky>
1.773 

> <ROCS_FitColorTversky>
0.961 

> <ROCS_FitTverskyCombo>
2.733 

> <ROCS_ColorScore>
-4.261

> <ROCS_Overlap>
1751.988

> <ROCS_Rank>
312                 

$$$$
untitled-dbase-146_49
  -OEChem-11112315393D

 21 21  0     0  0  0  0  0  0999 V2000
    9.1092   10.1094   23.5489 C   0  0  0  0  0  0  0  0  0  0  0  0
    9.6656   11.3391   23.8392 C   0  0  0  0  0  0  0  0  0  0  0  0
   11.3888   15.1987   20.5742 C   0  0  0  0  0  0  0  0  0  0  0  0
   10.4240   15.1457   21.4976 C   0  0  0  0  0  0  0  0  0  0  0  0
   10.5954   14.3140   22.7186 C   0  0  0  0  0  0  0  0  0  0  0  0
    9.7105    9.0561   22.7071 C   0  0  0  0  0  0  0  0  0  0  0  0
   10.9654   11.9673   23.4268 C   0  0  0  0  0  0  0  0  0  0  0  0
    7.8697    9.8655   24.1190 N   0  0  0  0  0  0  0  0  0  0  0  0
    7.4599   10.8918   24.8473 N   0  0  0  0  0  0  0  0  0  0  0  0
   10.7795   12.9770   22.4101 N   0  0  0  0  0  0  0  0  0  0  0  0
   10.5685   14.7884   23.8497 O   0  0  0  0  0  0  0  0  0  0  0  0
    8.5544   12.1599   24.8571 S   0  0  0  0  0  0  0  0  0  0  0  0
   11.2560   15.8069   19.6856 H   0  0  0  0  0  0  0  0  0  0  0  0
   12.3205   14.6522   20.6705 H   0  0  0  0  0  0  0  0  0  0  0  0
    9.5067   15.7086   21.3629 H   0  0  0  0  0  0  0  0  0  0  0  0
   10.3285    8.3708   23.3099 H   0  0  0  0  0  0  0  0  0  0  0  0
    8.9450    8.4517   22.1914 H   0  0  0  0  0  0  0  0  0  0  0  0
   10.3522    9.4767   21.9141 H   0  0  0  0  0  0  0  0  0  0  0  0
   11.4556   12.4393   24.2852 H   0  0  0  0  0  0  0  0  0  0  0  0
   11.6565   11.2161   23.0301 H   0  0  0  0  0  0  0  0  0  0  0  0
   10.7558   12.6697   21.4421 H   0  0  0  0  0  0  0  0  0  0  0  0
  1  2  2  0  0  0  0
  1  6  1  0  0  0  0
  1  8  1  0  0  0  0
  2  7  1  0  0  0  0
  2 12  1  0  0  0  0
  3  4  2  0  0  0  0
  4  5  1  0  0  0  0
  5 10  1  0  0  0  0
  5 11  2  0  0  0  0
  7 10  1  0  0  0  0
  8  9  2  0  0  0  0
  9 12  1  0  0  0  0
  3 13  1  0  0  0  0
  3 14  1  0  0  0  0
  4 15  1  0  0  0  0
  6 16  1  0  0  0  0
  6 17  1  0  0  0  0
  6 18  1  0  0  0  0
  7 19  1  0  0  0  0
  7 20  1  0  0  0  0
 10 21  1  0  0  0  0
M  END
> <Catalog ID>
Z1509301980

> <MW>
183.047

> <MW (desalted)>
183.231

> <ClogP>
-0.684

> <logS>
-1.24

> <HBD>
1

> <HBA>
3

> <TPSA>
54.88

> <RotBonds>
3

> <ROCS_ShapeQuery>
A71EV2A-x0451_0A_A71EV2A-x0310_0A_A71EV2A-x0416_0A_peptide

> <ROCS_TanimotoCombo>
0.423 

> <ROCS_ShapeTanimoto>
0.247 

> <ROCS_ColorTanimoto>
0.177 

> <ROCS_RefTversky>
0.222 

> <ROCS_RefColorTversky>
0.188 

> <ROCS_RefTverskyCombo>
0.410 

> <ROCS_FitTversky>
1.838 

> <ROCS_FitColorTversky>
0.751 

> <ROCS_FitTverskyCombo>
2.589 

> <ROCS_ColorScore>
-5.717

> <ROCS_Overlap>
1534.337

> <ROCS_Rank>
313                 

$$$$
untitled-dbase-742_26
  -OEChem-11112315393D

 26 26  0     0  0  0  0  0  0999 V2000
    7.6495    9.9366   24.6732 C   0  0  0  0  0  0  0  0  0  0  0  0
    6.8236   10.9029   25.2474 C   0  0  0  0  0  0  0  0  0  0  0  0
    8.7687   10.3243   23.9365 C   0  0  0  0  0  0  0  0  0  0  0  0
    8.2359   12.6446   24.3481 C   0  0  0  0  0  0  0  0  0  0  0  0
    7.1167   12.2568   25.0848 C   0  0  0  0  0  0  0  0  0  0  0  0
    9.0619   11.6783   23.7739 C   0  0  0  0  0  0  0  0  0  0  0  0
    5.1341   13.0267   26.4268 C   0  0  0  0  0  0  0  0  0  0  0  0
   10.9355   13.2160   23.2377 C   0  0  0  0  0  0  0  0  0  0  0  0
    4.5253   14.3350   26.8650 C   0  0  0  0  0  0  0  0  0  0  0  0
   12.0786   13.3163   22.2544 C   0  0  0  0  0  0  0  0  0  0  0  0
    6.2904   13.2228   25.6599 N   0  0  0  0  0  0  0  0  0  0  0  0
   10.1816   12.0654   23.0369 N   0  0  0  0  0  0  0  0  0  0  0  0
    4.6230   11.9581   26.7456 O   0  0  0  0  0  0  0  0  0  0  0  0
   10.7563   14.1024   24.0685 O   0  0  0  0  0  0  0  0  0  0  0  0
   13.1094   11.8939   22.4775 Cl  0  0  0  0  0  0  0  0  0  0  0  0
    7.4219    8.8824   24.8007 H   0  0  0  0  0  0  0  0  0  0  0  0
    5.9537   10.5887   25.8188 H   0  0  0  0  0  0  0  0  0  0  0  0
    9.4044    9.5620   23.4930 H   0  0  0  0  0  0  0  0  0  0  0  0
    8.4644   13.7009   24.2210 H   0  0  0  0  0  0  0  0  0  0  0  0
    3.8047   14.6771   26.1168 H   0  0  0  0  0  0  0  0  0  0  0  0
    5.3091   15.0902   26.9733 H   0  0  0  0  0  0  0  0  0  0  0  0
    4.0214   14.2084   27.8278 H   0  0  0  0  0  0  0  0  0  0  0  0
   12.6826   14.2158   22.3977 H   0  0  0  0  0  0  0  0  0  0  0  0
   11.6830   13.3149   21.2348 H   0  0  0  0  0  0  0  0  0  0  0  0
    6.5582   14.2018   25.5061 H   0  0  0  0  0  0  0  0  0  0  0  0
   10.4736   11.4478   22.2818 H   0  0  0  0  0  0  0  0  0  0  0  0
  1  2  2  0  0  0  0
  1  3  1  0  0  0  0
  2  5  1  0  0  0  0
  3  6  2  0  0  0  0
  4  5  2  0  0  0  0
  4  6  1  0  0  0  0
  5 11  1  0  0  0  0
  6 12  1  0  0  0  0
  7  9  1  0  0  0  0
  7 11  1  0  0  0  0
  7 13  2  0  0  0  0
  8 10  1  0  0  0  0
  8 12  1  0  0  0  0
  8 14  2  0  0  0  0
 10 15  1  0  0  0  0
  1 16  1  0  0  0  0
  2 17  1  0  0  0  0
  3 18  1  0  0  0  0
  4 19  1  0  0  0  0
  9 20  1  0  0  0  0
  9 21  1  0  0  0  0
  9 22  1  0  0  0  0
 10 23  1  0  0  0  0
 10 24  1  0  0  0  0
 11 25  1  0  0  0  0
 12 26  1  0  0  0  0
M  END
> <Catalog ID>
Z55992883

> <MW>
226.051

> <MW (desalted)>
226.66

> <ClogP>
0.793

> <logS>
-2.33

> <HBD>
2

> <HBA>
2

> <TPSA>
58.2

> <RotBonds>
3

> <ROCS_ShapeQuery>
A71EV2A-x0451_0A_A71EV2A-x0310_0A_A71EV2A-x0416_0A_peptide

> <ROCS_TanimotoCombo>
0.423 

> <ROCS_ShapeTanimoto>
0.264 

> <ROCS_ColorTanimoto>
0.159 

> <ROCS_RefTversky>
0.238 

> <ROCS_RefColorTversky>
0.166 

> <ROCS_RefTverskyCombo>
0.404 

> <ROCS_FitTversky>
1.698 

> <ROCS_FitColorTversky>
0.795 

> <ROCS_FitTverskyCombo>
2.493 

> <ROCS_ColorScore>
-5.038

> <ROCS_Overlap>
1651.389

> <ROCS_Rank>
314                 

$$$$
untitled-dbase-225_34
  -OEChem-11112315393D

 21 22  0     0  0  0  0  0  0999 V2000
    8.0034   10.7492   25.0101 C   0  0  0  0  0  0  0  0  0  0  0  0
    9.3392   11.5032   23.6221 C   0  0  0  0  0  0  0  0  0  0  0  0
   10.8146   13.4497   23.1781 C   0  0  0  0  0  0  0  0  0  0  0  0
    5.6512   10.4227   26.1203 C   0  0  0  0  0  0  0  0  0  0  0  0
    6.1661   11.7464   26.5925 C   0  0  0  0  0  0  0  0  0  0  0  0
    7.1390   10.6342   26.2771 C   0  0  0  0  0  0  0  0  0  0  0  0
   11.7567   13.9407   22.1034 C   0  0  0  0  0  0  0  0  0  0  0  0
    8.8101   11.8245   24.7755 N   0  0  0  0  0  0  0  0  0  0  0  0
    8.0135    9.7993   24.0702 N   0  0  0  0  0  0  0  0  0  0  0  0
   10.2433   12.2028   22.8691 N   0  0  0  0  0  0  0  0  0  0  0  0
   10.6063   14.1340   24.1762 O   0  0  0  0  0  0  0  0  0  0  0  0
    8.9176   10.3089   23.1298 O   0  0  0  0  0  0  0  0  0  0  0  0
   11.7182   15.7109   22.1190 Cl  0  0  0  0  0  0  0  0  0  0  0  0
    5.1561    9.7858   26.8431 H   0  0  0  0  0  0  0  0  0  0  0  0
    5.2333   10.3724   25.1220 H   0  0  0  0  0  0  0  0  0  0  0  0
    6.0963   12.5865   25.9120 H   0  0  0  0  0  0  0  0  0  0  0  0
    6.0192   12.0036   27.6346 H   0  0  0  0  0  0  0  0  0  0  0  0
    7.6228   10.1465   27.1152 H   0  0  0  0  0  0  0  0  0  0  0  0
   11.4801   13.5905   21.1057 H   0  0  0  0  0  0  0  0  0  0  0  0
   12.7725   13.6031   22.3276 H   0  0  0  0  0  0  0  0  0  0  0  0
   10.5361   11.7697   21.9817 H   0  0  0  0  0  0  0  0  0  0  0  0
  1  6  1  0  0  0  0
  1  8  1  0  0  0  0
  1  9  2  0  0  0  0
  2  8  2  0  0  0  0
  2 10  1  0  0  0  0
  2 12  1  0  0  0  0
  3  7  1  0  0  0  0
  3 10  1  0  0  0  0
  3 11  2  0  0  0  0
  4  5  1  0  0  0  0
  4  6  1  0  0  0  0
  5  6  1  0  0  0  0
  7 13  1  0  0  0  0
  9 12  1  0  0  0  0
  4 14  1  0  0  0  0
  4 15  1  0  0  0  0
  5 16  1  0  0  0  0
  5 17  1  0  0  0  0
  6 18  1  0  0  0  0
  7 19  1  0  0  0  0
  7 20  1  0  0  0  0
 10 21  1  0  0  0  0
M  END
> <Catalog ID>
Z1262253759

> <MW>
201.031

> <MW (desalted)>
201.61

> <ClogP>
0.949

> <logS>
-1.792

> <HBD>
1

> <HBA>
3

> <TPSA>
68.02

> <RotBonds>
3

> <ROCS_ShapeQuery>
A71EV2A-x0451_0A_A71EV2A-x0310_0A_A71EV2A-x0416_0A_peptide

> <ROCS_TanimotoCombo>
0.423 

> <ROCS_ShapeTanimoto>
0.255 

> <ROCS_ColorTanimoto>
0.168 

> <ROCS_RefTversky>
0.230 

> <ROCS_RefColorTversky>
0.174 

> <ROCS_RefTverskyCombo>
0.404 

> <ROCS_FitTversky>
1.763 

> <ROCS_FitColorTversky>
0.833 

> <ROCS_FitTverskyCombo>
2.597 

> <ROCS_ColorScore>
-5.288

> <ROCS_Overlap>
1590.735

> <ROCS_Rank>
315                 

$$$$
untitled-dbase-794_58
  -OEChem-11112315393D

 33 33  0     1  0  0  0  0  0999 V2000
   11.9942   15.8059   20.7715 C   0  0  0  0  0  0  0  0  0  0  0  0
   10.8769   15.6316   21.4839 C   0  0  0  0  0  0  0  0  0  0  0  0
   10.8520   14.6759   22.6232 C   0  0  0  0  0  0  0  0  0  0  0  0
    8.5292    9.5540   23.9691 C   0  0  0  0  0  0  0  0  0  0  0  0
    7.6188   10.4097   24.8450 C   0  0  0  0  0  0  0  0  0  0  0  0
    9.9003   10.2026   23.7800 C   0  0  0  0  0  0  0  0  0  0  0  0
    8.8582   12.4867   24.1050 C   0  0  0  0  0  0  0  0  0  0  0  0
    7.4779   11.8340   24.2938 C   0  0  2  0  0  0  0  0  0  0  0  0
    9.7949   11.6346   23.2331 C   0  0  1  0  0  0  0  0  0  0  0  0
   11.1816   12.2747   23.1440 C   0  0  0  0  0  0  0  0  0  0  0  0
    6.6031   12.6831   25.2156 C   0  0  0  0  0  0  0  0  0  0  0  0
   11.1472   13.3682   22.2336 N   0  0  0  0  0  0  0  0  0  0  0  0
   10.5940   15.0236   23.7711 O   0  0  0  0  0  0  0  0  0  0  0  0
    9.2625   11.5628   21.9072 O   0  0  0  0  0  0  0  0  0  0  0  0
    5.3930   12.1196   25.3468 F   0  0  0  0  0  0  0  0  0  0  0  0
    7.1719   12.7803   26.4263 F   0  0  0  0  0  0  0  0  0  0  0  0
    6.4568   13.9140   24.7031 F   0  0  0  0  0  0  0  0  0  0  0  0
   12.0043   16.5042   19.9411 H   0  0  0  0  0  0  0  0  0  0  0  0
   12.9137   15.2728   20.9868 H   0  0  0  0  0  0  0  0  0  0  0  0
    9.9781   16.1855   21.2356 H   0  0  0  0  0  0  0  0  0  0  0  0
    8.6523    8.5650   24.4253 H   0  0  0  0  0  0  0  0  0  0  0  0
    8.0552    9.3949   22.9927 H   0  0  0  0  0  0  0  0  0  0  0  0
    6.6323    9.9356   24.9120 H   0  0  0  0  0  0  0  0  0  0  0  0
    8.0251   10.4420   25.8643 H   0  0  0  0  0  0  0  0  0  0  0  0
   10.4280   10.2080   24.7420 H   0  0  0  0  0  0  0  0  0  0  0  0
   10.4835    9.5785   23.0915 H   0  0  0  0  0  0  0  0  0  0  0  0
    8.7172   13.4725   23.6430 H   0  0  0  0  0  0  0  0  0  0  0  0
    9.3203   12.6537   25.0869 H   0  0  0  0  0  0  0  0  0  0  0  0
    6.9789   11.7796   23.3174 H   0  0  0  0  0  0  0  0  0  0  0  0
   11.4423   12.6140   24.1442 H   0  0  0  0  0  0  0  0  0  0  0  0
   11.8675   11.5052   22.7964 H   0  0  0  0  0  0  0  0  0  0  0  0
   11.3175   13.1843   21.2386 H   0  0  0  0  0  0  0  0  0  0  0  0
    9.2069   12.4752   21.5880 H   0  0  0  0  0  0  0  0  0  0  0  0
  1  2  2  0  0  0  0
  2  3  1  0  0  0  0
  3 12  1  0  0  0  0
  3 13  2  0  0  0  0
  4  5  1  0  0  0  0
  4  6  1  0  0  0  0
  5  8  1  0  0  0  0
  6  9  1  0  0  0  0
  7  8  1  0  0  0  0
  7  9  1  0  0  0  0
  8 11  1  0  0  0  0
  9 10  1  0  0  0  0
  9 14  1  0  0  0  0
 10 12  1  0  0  0  0
 11 15  1  0  0  0  0
 11 16  1  0  0  0  0
 11 17  1  0  0  0  0
  1 18  1  0  0  0  0
  1 19  1  0  0  0  0
  2 20  1  0  0  0  0
  4 21  1  0  0  0  0
  4 22  1  0  0  0  0
  5 23  1  0  0  0  0
  5 24  1  0  0  0  0
  6 25  1  0  0  0  0
  6 26  1  0  0  0  0
  7 27  1  0  0  0  0
  7 28  1  0  0  0  0
  8 29  1  0  0  0  0
 10 30  1  0  0  0  0
 10 31  1  0  0  0  0
 12 32  1  0  0  0  0
 14 33  1  0  0  0  0
M  END
> <Catalog ID>
Z2737383430

> <MW>
251.245

> <MW (desalted)>
251.245

> <ClogP>
0.937

> <logS>
-2.729

> <HBD>
2

> <HBA>
2

> <TPSA>
49.33

> <RotBonds>
4

> <ROCS_ShapeQuery>
A71EV2A-x0451_0A_A71EV2A-x0310_0A_A71EV2A-x0416_0A_peptide

> <ROCS_TanimotoCombo>
0.423 

> <ROCS_ShapeTanimoto>
0.299 

> <ROCS_ColorTanimoto>
0.124 

> <ROCS_RefTversky>
0.265 

> <ROCS_RefColorTversky>
0.137 

> <ROCS_RefTverskyCombo>
0.402 

> <ROCS_FitTversky>
1.737 

> <ROCS_FitColorTversky>
0.573 

> <ROCS_FitTverskyCombo>
2.310 

> <ROCS_ColorScore>
-4.173

> <ROCS_Overlap>
1838.942

> <ROCS_Rank>
316                 

$$$$
untitled-dbase-602_235
  -OEChem-11112315393D

 35 36  0     1  0  0  0  0  0999 V2000
    8.1600   10.8396   24.4208 C   0  0  0  0  0  0  0  0  0  0  0  0
    8.6644   12.1153   24.2516 C   0  0  0  0  0  0  0  0  0  0  0  0
    6.8314   11.9180   25.7871 C   0  0  0  0  0  0  0  0  0  0  0  0
   11.3831   14.6978   21.5744 C   0  0  0  0  0  0  0  0  0  0  0  0
   11.4290   14.8185   22.9052 C   0  0  0  0  0  0  0  0  0  0  0  0
   11.9196   13.6863   23.7416 C   0  0  0  0  0  0  0  0  0  0  0  0
    8.6730    9.6566   23.6756 C   0  0  0  0  0  0  0  0  0  0  0  0
   10.0403    9.9445   23.0321 C   0  0  0  0  0  0  0  0  0  0  0  0
   10.0858   11.3332   22.3663 C   0  0  0  0  0  0  0  0  0  0  0  0
    9.8028   12.4829   23.3575 C   0  0  2  0  0  0  0  0  0  0  0  0
    4.3659   12.2087   26.1380 C   0  0  0  0  0  0  0  0  0  0  0  0
   11.0603   11.9934   25.4248 C   0  0  0  0  0  0  0  0  0  0  0  0
    5.7607   12.1955   26.7694 C   0  0  0  0  0  0  0  0  0  0  0  0
    7.1072   10.7252   25.3046 N   0  0  0  0  0  0  0  0  0  0  0  0
   10.9584   12.7593   24.1771 N   0  0  0  0  0  0  0  0  0  0  0  0
   13.1139   13.6173   24.0363 O   0  0  0  0  0  0  0  0  0  0  0  0
    7.7935   13.2216   25.2127 S   0  0  0  0  0  0  0  0  0  0  0  0
   11.0339   15.4944   20.9268 H   0  0  0  0  0  0  0  0  0  0  0  0
   11.7090   13.7770   21.1019 H   0  0  0  0  0  0  0  0  0  0  0  0
   11.1447   15.7550   23.3688 H   0  0  0  0  0  0  0  0  0  0  0  0
    8.7539    8.7916   24.3429 H   0  0  0  0  0  0  0  0  0  0  0  0
    7.9505    9.3995   22.8917 H   0  0  0  0  0  0  0  0  0  0  0  0
   10.8239    9.8833   23.7976 H   0  0  0  0  0  0  0  0  0  0  0  0
   10.2632    9.1692   22.2901 H   0  0  0  0  0  0  0  0  0  0  0  0
   11.0565   11.4837   21.8784 H   0  0  0  0  0  0  0  0  0  0  0  0
    9.3315   11.3587   21.5682 H   0  0  0  0  0  0  0  0  0  0  0  0
    9.5847   13.3982   22.7962 H   0  0  0  0  0  0  0  0  0  0  0  0
    4.3152   12.9372   25.3216 H   0  0  0  0  0  0  0  0  0  0  0  0
    3.6011   12.4720   26.8753 H   0  0  0  0  0  0  0  0  0  0  0  0
    4.1159   11.2249   25.7264 H   0  0  0  0  0  0  0  0  0  0  0  0
   10.5859   12.5572   26.2415 H   0  0  0  0  0  0  0  0  0  0  0  0
   10.5514   11.0258   25.3035 H   0  0  0  0  0  0  0  0  0  0  0  0
   12.1202   11.8228   25.6646 H   0  0  0  0  0  0  0  0  0  0  0  0
    5.7693   11.4496   27.5861 H   0  0  0  0  0  0  0  0  0  0  0  0
    5.9272   13.1662   27.2731 H   0  0  0  0  0  0  0  0  0  0  0  0
  1  2  2  0  0  0  0
  1  7  1  0  0  0  0
  1 14  1  0  0  0  0
  2 10  1  0  0  0  0
  2 17  1  0  0  0  0
  3 13  1  0  0  0  0
  3 14  2  0  0  0  0
  3 17  1  0  0  0  0
  4  5  2  0  0  0  0
  5  6  1  0  0  0  0
  6 15  1  0  0  0  0
  6 16  2  0  0  0  0
  7  8  1  0  0  0  0
  8  9  1  0  0  0  0
  9 10  1  0  0  0  0
 10 15  1  0  0  0  0
 11 13  1  0  0  0  0
 12 15  1  0  0  0  0
  4 18  1  0  0  0  0
  4 19  1  0  0  0  0
  5 20  1  0  0  0  0
  7 21  1  0  0  0  0
  7 22  1  0  0  0  0
  8 23  1  0  0  0  0
  8 24  1  0  0  0  0
  9 25  1  0  0  0  0
  9 26  1  0  0  0  0
 10 27  1  0  0  0  0
 11 28  1  0  0  0  0
 11 29  1  0  0  0  0
 11 30  1  0  0  0  0
 12 31  1  0  0  0  0
 12 32  1  0  0  0  0
 12 33  1  0  0  0  0
 13 34  1  0  0  0  0
 13 35  1  0  0  0  0
M  END
> <Catalog ID>
Z1938380391

> <MW>
250.36

> <MW (desalted)>
250.36

> <ClogP>
1.446

> <logS>
-2.4

> <HBD>
0

> <HBA>
2

> <TPSA>
33.2

> <RotBonds>
3

> <ROCS_ShapeQuery>
A71EV2A-x0451_0A_A71EV2A-x0310_0A_A71EV2A-x0416_0A_peptide

> <ROCS_TanimotoCombo>
0.423 

> <ROCS_ShapeTanimoto>
0.306 

> <ROCS_ColorTanimoto>
0.117 

> <ROCS_RefTversky>
0.270 

> <ROCS_RefColorTversky>
0.130 

> <ROCS_RefTverskyCombo>
0.400 

> <ROCS_FitTversky>
1.775 

> <ROCS_FitColorTversky>
0.543 

> <ROCS_FitTverskyCombo>
2.317 

> <ROCS_ColorScore>
-3.961

> <ROCS_Overlap>
1871.015

> <ROCS_Rank>
317                 

$$$$
untitled-dbase-767_45
  -OEChem-11112315393D

 26 26  0     0  0  0  0  0  0999 V2000
    8.3722    9.7289   23.5314 C   0  0  0  0  0  0  0  0  0  0  0  0
    9.5751   10.3366   23.1718 C   0  0  0  0  0  0  0  0  0  0  0  0
    7.4661   10.4050   24.3484 C   0  0  0  0  0  0  0  0  0  0  0  0
    8.9658   12.2966   24.4463 C   0  0  0  0  0  0  0  0  0  0  0  0
    9.8719   11.6205   23.6293 C   0  0  0  0  0  0  0  0  0  0  0  0
    7.7629   11.6889   24.8059 C   0  0  0  0  0  0  0  0  0  0  0  0
   11.5623   15.5583   20.4445 C   0  0  0  0  0  0  0  0  0  0  0  0
   10.5657   15.4528   21.3287 C   0  0  0  0  0  0  0  0  0  0  0  0
   10.7248   14.6128   22.5458 C   0  0  0  0  0  0  0  0  0  0  0  0
   11.1663   12.2745   23.2406 C   0  0  0  0  0  0  0  0  0  0  0  0
    6.7941   12.4115   25.6800 C   0  0  0  0  0  0  0  0  0  0  0  0
   10.9771   13.2889   22.2293 N   0  0  0  0  0  0  0  0  0  0  0  0
   10.6342   15.0707   23.6804 O   0  0  0  0  0  0  0  0  0  0  0  0
    5.6620   11.6967   25.9502 F   0  0  0  0  0  0  0  0  0  0  0  0
    7.3045   12.7455   26.9021 F   0  0  0  0  0  0  0  0  0  0  0  0
    6.3641   13.5841   25.1298 F   0  0  0  0  0  0  0  0  0  0  0  0
    8.1411    8.7292   23.1750 H   0  0  0  0  0  0  0  0  0  0  0  0
   10.2748    9.8023   22.5344 H   0  0  0  0  0  0  0  0  0  0  0  0
    6.5316    9.9235   24.6241 H   0  0  0  0  0  0  0  0  0  0  0  0
    9.1962   13.2979   24.8025 H   0  0  0  0  0  0  0  0  0  0  0  0
   11.4383   16.1721   19.5584 H   0  0  0  0  0  0  0  0  0  0  0  0
   12.5119   15.0501   20.5709 H   0  0  0  0  0  0  0  0  0  0  0  0
    9.6312   15.9784   21.1647 H   0  0  0  0  0  0  0  0  0  0  0  0
   11.6358   12.7481   24.1097 H   0  0  0  0  0  0  0  0  0  0  0  0
   11.8760   11.5387   22.8482 H   0  0  0  0  0  0  0  0  0  0  0  0
   11.0040   12.9938   21.2575 H   0  0  0  0  0  0  0  0  0  0  0  0
  1  2  1  0  0  0  0
  1  3  2  0  0  0  0
  2  5  2  0  0  0  0
  3  6  1  0  0  0  0
  4  5  1  0  0  0  0
  4  6  2  0  0  0  0
  5 10  1  0  0  0  0
  6 11  1  0  0  0  0
  7  8  2  0  0  0  0
  8  9  1  0  0  0  0
  9 12  1  0  0  0  0
  9 13  2  0  0  0  0
 10 12  1  0  0  0  0
 11 14  1  0  0  0  0
 11 15  1  0  0  0  0
 11 16  1  0  0  0  0
  1 17  1  0  0  0  0
  2 18  1  0  0  0  0
  3 19  1  0  0  0  0
  4 20  1  0  0  0  0
  7 21  1  0  0  0  0
  7 22  1  0  0  0  0
  8 23  1  0  0  0  0
 10 24  1  0  0  0  0
 10 25  1  0  0  0  0
 12 26  1  0  0  0  0
M  END
> <Catalog ID>
Z440633912

> <MW>
229.071

> <MW (desalted)>
229.198

> <ClogP>
2.068

> <logS>
-3.148

> <HBD>
1

> <HBA>
1

> <TPSA>
29.1

> <RotBonds>
4

> <ROCS_ShapeQuery>
A71EV2A-x0451_0A_A71EV2A-x0310_0A_A71EV2A-x0416_0A_peptide

> <ROCS_TanimotoCombo>
0.423 

> <ROCS_ShapeTanimoto>
0.297 

> <ROCS_ColorTanimoto>
0.126 

> <ROCS_RefTversky>
0.263 

> <ROCS_RefColorTversky>
0.132 

> <ROCS_RefTverskyCombo>
0.395 

> <ROCS_FitTversky>
1.772 

> <ROCS_FitColorTversky>
0.743 

> <ROCS_FitTverskyCombo>
2.515 

> <ROCS_ColorScore>
-4.003

> <ROCS_Overlap>
1822.298

> <ROCS_Rank>
318                 

$$$$
untitled-dbase-561_22
  -OEChem-11112315393D

 21 21  0     0  0  0  0  0  0999 V2000
    9.8987    9.2262   22.7060 C   0  0  0  0  0  0  0  0  0  0  0  0
    6.3683   10.9690   25.7828 C   0  0  0  0  0  0  0  0  0  0  0  0
    9.1284   10.1719   23.4543 C   0  0  0  0  0  0  0  0  0  0  0  0
    7.4792   10.9629   24.8885 C   0  0  0  0  0  0  0  0  0  0  0  0
    8.0261    9.8459   24.2963 C   0  0  0  0  0  0  0  0  0  0  0  0
    9.3818   11.5259   23.4349 C   0  0  0  0  0  0  0  0  0  0  0  0
   10.9052   13.4718   23.1999 C   0  0  0  0  0  0  0  0  0  0  0  0
    7.5285    8.4602   24.5076 C   0  0  0  0  0  0  0  0  0  0  0  0
   11.9192   14.0101   22.2173 C   0  0  0  0  0  0  0  0  0  0  0  0
   10.5234    8.4593   22.0990 N   0  0  0  0  0  0  0  0  0  0  0  0
    5.4644   10.9740   26.5105 N   0  0  0  0  0  0  0  0  0  0  0  0
   10.3280   12.2629   22.7743 N   0  0  0  0  0  0  0  0  0  0  0  0
   10.6521   14.0931   24.2286 O   0  0  0  0  0  0  0  0  0  0  0  0
    8.2936   12.3975   24.4291 S   0  0  0  0  0  0  0  0  0  0  0  0
   11.4289   13.4916   20.5967 Cl  0  0  0  0  0  0  0  0  0  0  0  0
    8.0401    7.9920   25.3592 H   0  0  0  0  0  0  0  0  0  0  0  0
    6.4473    8.4466   24.7052 H   0  0  0  0  0  0  0  0  0  0  0  0
    7.6934    7.8336   23.6195 H   0  0  0  0  0  0  0  0  0  0  0  0
   12.9316   13.6475   22.4125 H   0  0  0  0  0  0  0  0  0  0  0  0
   11.9211   15.1030   22.2579 H   0  0  0  0  0  0  0  0  0  0  0  0
   10.6511   11.8921   21.8695 H   0  0  0  0  0  0  0  0  0  0  0  0
  1  3  1  0  0  0  0
  1 10  3  0  0  0  0
  2  4  1  0  0  0  0
  2 11  3  0  0  0  0
  3  5  1  0  0  0  0
  3  6  2  0  0  0  0
  4  5  2  0  0  0  0
  4 14  1  0  0  0  0
  5  8  1  0  0  0  0
  6 12  1  0  0  0  0
  6 14  1  0  0  0  0
  7  9  1  0  0  0  0
  7 12  1  0  0  0  0
  7 13  2  0  0  0  0
  9 15  1  0  0  0  0
  8 16  1  0  0  0  0
  8 17  1  0  0  0  0
  8 18  1  0  0  0  0
  9 19  1  0  0  0  0
  9 20  1  0  0  0  0
 12 21  1  0  0  0  0
M  END
> <Catalog ID>
Z55928895

> <MW>
238.992

> <MW (desalted)>
239.681

> <ClogP>
1.094

> <logS>
-3.45

> <HBD>
1

> <HBA>
3

> <TPSA>
76.68

> <RotBonds>
2

> <ROCS_ShapeQuery>
A71EV2A-x0451_0A_A71EV2A-x0310_0A_A71EV2A-x0416_0A_peptide

> <ROCS_TanimotoCombo>
0.423 

> <ROCS_ShapeTanimoto>
0.287 

> <ROCS_ColorTanimoto>
0.136 

> <ROCS_RefTversky>
0.254 

> <ROCS_RefColorTversky>
0.144 

> <ROCS_RefTverskyCombo>
0.398 

> <ROCS_FitTversky>
1.842 

> <ROCS_FitColorTversky>
0.692 

> <ROCS_FitTverskyCombo>
2.534 

> <ROCS_ColorScore>
-4.383

> <ROCS_Overlap>
1760.243

> <ROCS_Rank>
319                 

$$$$
untitled-dbase-193_29
  -OEChem-11112315393D

 23 23  0     0  0  0  0  0  0999 V2000
    8.3238    9.5084   24.0114 C   0  0  0  0  0  0  0  0  0  0  0  0
    7.4146   10.1811   24.8277 C   0  0  0  0  0  0  0  0  0  0  0  0
    8.4631   12.2832   24.2631 C   0  0  0  0  0  0  0  0  0  0  0  0
    9.3723   11.6105   23.4467 C   0  0  0  0  0  0  0  0  0  0  0  0
    9.3027   10.2230   23.3209 C   0  0  0  0  0  0  0  0  0  0  0  0
    7.4843   11.5685   24.9536 C   0  0  0  0  0  0  0  0  0  0  0  0
   10.9205   13.5329   23.1820 C   0  0  0  0  0  0  0  0  0  0  0  0
   10.0339    8.1298   22.4611 C   0  0  0  0  0  0  0  0  0  0  0  0
   11.9412   14.0429   22.1913 C   0  0  0  0  0  0  0  0  0  0  0  0
   10.3471   12.3395   22.7614 N   0  0  0  0  0  0  0  0  0  0  0  0
   10.6757   14.1730   24.2010 O   0  0  0  0  0  0  0  0  0  0  0  0
   10.1814    9.5464   22.5284 O   0  0  0  0  0  0  0  0  0  0  0  0
    6.3630   12.3977   25.9621 Cl  0  0  0  0  0  0  0  0  0  0  0  0
   11.4440   13.5060   20.5788 Cl  0  0  0  0  0  0  0  0  0  0  0  0
    8.2640    8.4274   23.9178 H   0  0  0  0  0  0  0  0  0  0  0  0
    6.6575    9.6112   25.3601 H   0  0  0  0  0  0  0  0  0  0  0  0
    8.5196   13.3655   24.3599 H   0  0  0  0  0  0  0  0  0  0  0  0
   10.7956    7.7146   21.7966 H   0  0  0  0  0  0  0  0  0  0  0  0
    9.0365    7.8837   22.0882 H   0  0  0  0  0  0  0  0  0  0  0  0
   10.1599    7.7113   23.4624 H   0  0  0  0  0  0  0  0  0  0  0  0
   12.9489   13.6704   22.3920 H   0  0  0  0  0  0  0  0  0  0  0  0
   11.9572   15.1362   22.2150 H   0  0  0  0  0  0  0  0  0  0  0  0
   10.6665   11.9617   21.8722 H   0  0  0  0  0  0  0  0  0  0  0  0
  1  2  2  0  0  0  0
  1  5  1  0  0  0  0
  2  6  1  0  0  0  0
  3  4  1  0  0  0  0
  3  6  2  0  0  0  0
  4  5  2  0  0  0  0
  4 10  1  0  0  0  0
  5 12  1  0  0  0  0
  6 13  1  0  0  0  0
  7  9  1  0  0  0  0
  7 10  1  0  0  0  0
  7 11  2  0  0  0  0
  8 12  1  0  0  0  0
  9 14  1  0  0  0  0
  1 15  1  0  0  0  0
  2 16  1  0  0  0  0
  3 17  1  0  0  0  0
  8 18  1  0  0  0  0
  8 19  1  0  0  0  0
  8 20  1  0  0  0  0
  9 21  1  0  0  0  0
  9 22  1  0  0  0  0
 10 23  1  0  0  0  0
M  END
> <Catalog ID>
Z56896294

> <MW>
233.001

> <MW (desalted)>
234.079

> <ClogP>
2.17

> <logS>
-2.96

> <HBD>
1

> <HBA>
2

> <TPSA>
38.33

> <RotBonds>
3

> <ROCS_ShapeQuery>
A71EV2A-x0451_0A_A71EV2A-x0310_0A_A71EV2A-x0416_0A_peptide

> <ROCS_TanimotoCombo>
0.423 

> <ROCS_ShapeTanimoto>
0.288 

> <ROCS_ColorTanimoto>
0.136 

> <ROCS_RefTversky>
0.253 

> <ROCS_RefColorTversky>
0.141 

> <ROCS_RefTverskyCombo>
0.394 

> <ROCS_FitTversky>
1.898 

> <ROCS_FitColorTversky>
0.791 

> <ROCS_FitTverskyCombo>
2.689 

> <ROCS_ColorScore>
-4.261

> <ROCS_Overlap>
1752.840

> <ROCS_Rank>
320                 

$$$$
untitled-dbase-946_713
  -OEChem-11112315393D

 36 37  0     0  0  0  0  0  0999 V2000
   13.9871   16.2689   21.0471 C   0  0  0  0  0  0  0  0  0  0  0  0
   13.0977   15.7992   20.0806 C   0  0  0  0  0  0  0  0  0  0  0  0
   13.8993   15.8053   22.3598 C   0  0  0  0  0  0  0  0  0  0  0  0
   12.1205   14.8661   20.4268 C   0  0  0  0  0  0  0  0  0  0  0  0
   12.9220   14.8721   22.7059 C   0  0  0  0  0  0  0  0  0  0  0  0
   12.0326   14.4025   21.7395 C   0  0  0  0  0  0  0  0  0  0  0  0
   10.4166   13.3027   23.3217 C   0  0  0  0  0  0  0  0  0  0  0  0
    7.7182    9.2050   25.7221 C   0  0  0  0  0  0  0  0  0  0  0  0
   10.1203   10.8714   23.6556 C   0  0  0  0  0  0  0  0  0  0  0  0
    8.2684   12.4758   24.2497 C   0  0  0  0  0  0  0  0  0  0  0  0
    9.1187    9.7234   23.7493 C   0  0  0  0  0  0  0  0  0  0  0  0
    7.3041   11.2942   24.3314 C   0  0  0  0  0  0  0  0  0  0  0  0
    9.4224   12.1834   23.2869 C   0  0  0  0  0  0  0  0  0  0  0  0
    6.5792    9.6217   26.6179 C   0  0  0  0  0  0  0  0  0  0  0  0
    8.0239   10.0581   24.6622 N   0  0  0  0  0  0  0  0  0  0  0  0
   11.0412   13.4557   22.0904 N   0  0  0  0  0  0  0  0  0  0  0  0
   10.5937   13.9539   24.3461 O   0  0  0  0  0  0  0  0  0  0  0  0
    8.3182    8.1537   25.9598 O   0  0  0  0  0  0  0  0  0  0  0  0
    7.0390   11.1627   27.3334 Cl  0  0  0  0  0  0  0  0  0  0  0  0
   14.7487   16.9949   20.7778 H   0  0  0  0  0  0  0  0  0  0  0  0
   13.1664   16.1593   19.0584 H   0  0  0  0  0  0  0  0  0  0  0  0
   14.5926   16.1704   23.1119 H   0  0  0  0  0  0  0  0  0  0  0  0
   11.4329   14.5071   19.6650 H   0  0  0  0  0  0  0  0  0  0  0  0
   12.8631   14.5179   23.7321 H   0  0  0  0  0  0  0  0  0  0  0  0
   10.6466   10.9705   24.6054 H   0  0  0  0  0  0  0  0  0  0  0  0
   10.8606   10.6336   22.8893 H   0  0  0  0  0  0  0  0  0  0  0  0
    7.7230   13.3500   23.8938 H   0  0  0  0  0  0  0  0  0  0  0  0
    8.6492   12.7010   25.2446 H   0  0  0  0  0  0  0  0  0  0  0  0
    8.7347    9.4881   22.7510 H   0  0  0  0  0  0  0  0  0  0  0  0
    9.5997    8.8151   24.1321 H   0  0  0  0  0  0  0  0  0  0  0  0
    6.5582   11.4533   25.1181 H   0  0  0  0  0  0  0  0  0  0  0  0
    6.7581   11.2092   23.3905 H   0  0  0  0  0  0  0  0  0  0  0  0
    9.0516   12.1268   22.2781 H   0  0  0  0  0  0  0  0  0  0  0  0
    6.4506    8.8750   27.3931 H   0  0  0  0  0  0  0  0  0  0  0  0
    5.6854    9.7422   26.0167 H   0  0  0  0  0  0  0  0  0  0  0  0
   10.7623   12.8203   21.3457 H   0  0  0  0  0  0  0  0  0  0  0  0
  1  2  1  0  0  0  0
  1  3  2  0  0  0  0
  2  4  2  0  0  0  0
  3  5  1  0  0  0  0
  4  6  1  0  0  0  0
  5  6  2  0  0  0  0
  6 16  1  0  0  0  0
  7 13  1  0  0  0  0
  7 16  1  0  0  0  0
  7 17  2  0  0  0  0
  8 14  1  0  0  0  0
  8 15  1  0  0  0  0
  8 18  2  0  0  0  0
  9 11  1  0  0  0  0
  9 13  1  0  0  0  0
 10 12  1  0  0  0  0
 10 13  1  0  0  0  0
 11 15  1  0  0  0  0
 12 15  1  0  0  0  0
 14 19  1  0  0  0  0
  1 20  1  0  0  0  0
  2 21  1  0  0  0  0
  3 22  1  0  0  0  0
  4 23  1  0  0  0  0
  5 24  1  0  0  0  0
  9 25  1  0  0  0  0
  9 26  1  0  0  0  0
 10 27  1  0  0  0  0
 10 28  1  0  0  0  0
 11 29  1  0  0  0  0
 11 30  1  0  0  0  0
 12 31  1  0  0  0  0
 12 32  1  0  0  0  0
 13 33  1  0  0  0  0
 14 34  1  0  0  0  0
 14 35  1  0  0  0  0
 16 36  1  0  0  0  0
M  END
> <Catalog ID>
Z199424114

> <MW>
280.098

> <MW (desalted)>
280.75

> <ClogP>
0.432

> <logS>
-2.84

> <HBD>
1

> <HBA>
2

> <TPSA>
49.41

> <RotBonds>
3

> <ROCS_ShapeQuery>
A71EV2A-x0451_0A_A71EV2A-x0310_0A_A71EV2A-x0416_0A_peptide

> <ROCS_TanimotoCombo>
0.423 

> <ROCS_ShapeTanimoto>
0.285 

> <ROCS_ColorTanimoto>
0.138 

> <ROCS_RefTversky>
0.258 

> <ROCS_RefColorTversky>
0.147 

> <ROCS_RefTverskyCombo>
0.405 

> <ROCS_FitTversky>
1.561 

> <ROCS_FitColorTversky>
0.703 

> <ROCS_FitTverskyCombo>
2.264 

> <ROCS_ColorScore>
-4.455

> <ROCS_Overlap>
1792.386

> <ROCS_Rank>
321                 

$$$$
untitled-dbase-527_38
  -OEChem-11112315393D

 30 31  0     1  0  0  0  0  0999 V2000
    9.9235    9.2578   22.6821 C   0  0  0  0  0  0  0  0  0  0  0  0
    9.1549   10.1955   23.4422 C   0  0  0  0  0  0  0  0  0  0  0  0
    8.0573    9.8602   24.2907 C   0  0  0  0  0  0  0  0  0  0  0  0
    7.5133   10.9859   24.8785 C   0  0  0  0  0  0  0  0  0  0  0  0
    9.4025   11.5513   23.4237 C   0  0  0  0  0  0  0  0  0  0  0  0
   10.9165   13.5039   23.1827 C   0  0  0  0  0  0  0  0  0  0  0  0
    7.5043    8.4906   24.5304 C   0  0  0  0  0  0  0  0  0  0  0  0
    6.3681   10.9869   25.8433 C   0  0  0  0  0  0  0  0  0  0  0  0
    6.5941    8.4504   25.7684 C   0  0  0  0  0  0  0  0  0  0  0  0
    5.6103    9.6407   25.7921 C   0  0  1  0  0  0  0  0  0  0  0  0
    4.6476    9.5252   26.9720 C   0  0  0  0  0  0  0  0  0  0  0  0
   11.9224   14.0478   22.1950 C   0  0  0  0  0  0  0  0  0  0  0  0
   10.5468    8.4973   22.0658 N   0  0  0  0  0  0  0  0  0  0  0  0
   10.3417   12.2933   22.7586 N   0  0  0  0  0  0  0  0  0  0  0  0
   10.6670   14.1224   24.2139 O   0  0  0  0  0  0  0  0  0  0  0  0
    8.3158   12.4173   24.4243 S   0  0  0  0  0  0  0  0  0  0  0  0
   11.4245   13.5300   20.5765 Cl  0  0  0  0  0  0  0  0  0  0  0  0
    6.9267    8.1878   23.6481 H   0  0  0  0  0  0  0  0  0  0  0  0
    8.3142    7.7638   24.6578 H   0  0  0  0  0  0  0  0  0  0  0  0
    6.7626   11.1572   26.8533 H   0  0  0  0  0  0  0  0  0  0  0  0
    5.6729   11.8052   25.6197 H   0  0  0  0  0  0  0  0  0  0  0  0
    6.0461    7.5004   25.7788 H   0  0  0  0  0  0  0  0  0  0  0  0
    7.2127    8.4715   26.6756 H   0  0  0  0  0  0  0  0  0  0  0  0
    5.0177    9.6096   24.8672 H   0  0  0  0  0  0  0  0  0  0  0  0
    5.2047    9.5529   27.9069 H   0  0  0  0  0  0  0  0  0  0  0  0
    4.0999    8.5863   26.9107 H   0  0  0  0  0  0  0  0  0  0  0  0
    3.9403   10.3528   26.9534 H   0  0  0  0  0  0  0  0  0  0  0  0
   12.9374   13.6891   22.3835 H   0  0  0  0  0  0  0  0  0  0  0  0
   11.9200   15.1407   22.2373 H   0  0  0  0  0  0  0  0  0  0  0  0
   10.6609   11.9253   21.8513 H   0  0  0  0  0  0  0  0  0  0  0  0
  1  2  1  0  0  0  0
  1 13  3  0  0  0  0
  2  3  1  0  0  0  0
  2  5  2  0  0  0  0
  3  4  2  0  0  0  0
  3  7  1  0  0  0  0
  4  8  1  0  0  0  0
  4 16  1  0  0  0  0
  5 14  1  0  0  0  0
  5 16  1  0  0  0  0
  6 12  1  0  0  0  0
  6 14  1  0  0  0  0
  6 15  2  0  0  0  0
  7  9  1  0  0  0  0
  8 10  1  0  0  0  0
  9 10  1  0  0  0  0
 10 11  1  0  0  0  0
 12 17  1  0  0  0  0
  7 18  1  0  0  0  0
  7 19  1  0  0  0  0
  8 20  1  0  0  0  0
  8 21  1  0  0  0  0
  9 22  1  0  0  0  0
  9 23  1  0  0  0  0
 10 24  1  0  0  0  0
 11 25  1  0  0  0  0
 11 26  1  0  0  0  0
 11 27  1  0  0  0  0
 12 28  1  0  0  0  0
 12 29  1  0  0  0  0
 14 30  1  0  0  0  0
M  END
> <Catalog ID>
Z56845288

> <MW>
268.044

> <MW (desalted)>
268.762

> <ClogP>
2.936

> <logS>
-4.53

> <HBD>
1

> <HBA>
2

> <TPSA>
52.89

> <RotBonds>
2

> <ROCS_ShapeQuery>
A71EV2A-x0451_0A_A71EV2A-x0310_0A_A71EV2A-x0416_0A_peptide

> <ROCS_TanimotoCombo>
0.423 

> <ROCS_ShapeTanimoto>
0.286 

> <ROCS_ColorTanimoto>
0.136 

> <ROCS_RefTversky>
0.256 

> <ROCS_RefColorTversky>
0.145 

> <ROCS_RefTverskyCombo>
0.401 

> <ROCS_FitTversky>
1.697 

> <ROCS_FitColorTversky>
0.695 

> <ROCS_FitTverskyCombo>
2.392 

> <ROCS_ColorScore>
-4.408

> <ROCS_Overlap>
1775.271

> <ROCS_Rank>
322                 

$$$$
untitled-dbase-423_173
  -OEChem-11112315393D

 33 35  0     1  0  0  0  0  0999 V2000
    6.3987   11.9451   26.0744 C   0  0  0  0  0  0  0  0  0  0  0  0
    7.3446   12.9716   26.0431 C   0  0  0  0  0  0  0  0  0  0  0  0
    6.5657   10.7880   25.3033 C   0  0  0  0  0  0  0  0  0  0  0  0
    8.4878   12.8789   25.2426 C   0  0  0  0  0  0  0  0  0  0  0  0
    8.2407    9.7256   23.6004 C   0  0  0  0  0  0  0  0  0  0  0  0
    7.7091   10.6800   24.4941 C   0  0  0  0  0  0  0  0  0  0  0  0
    8.6352   11.7170   24.4818 C   0  0  0  0  0  0  0  0  0  0  0  0
   13.9290   15.7116   20.6283 C   0  0  0  0  0  0  0  0  0  0  0  0
   12.6281   15.8372   20.8986 C   0  0  0  0  0  0  0  0  0  0  0  0
   12.1368   15.4488   22.2356 C   0  0  0  0  0  0  0  0  0  0  0  0
   11.4005   11.8785   21.8141 C   0  0  0  0  0  0  0  0  0  0  0  0
   12.3308   13.0633   21.6119 C   0  0  0  0  0  0  0  0  0  0  0  0
   10.7087   13.6174   23.2923 C   0  0  0  0  0  0  0  0  0  0  0  0
   10.8600   12.0882   23.2386 C   0  0  1  0  0  0  0  0  0  0  0  0
    9.4004   10.1092   23.0619 N   0  0  0  0  0  0  0  0  0  0  0  0
    9.6137   11.3158   23.6128 N   0  0  0  0  0  0  0  0  0  0  0  0
   11.7353   14.1359   22.3908 N   0  0  0  0  0  0  0  0  0  0  0  0
   12.1140   16.2966   23.1274 O   0  0  0  0  0  0  0  0  0  0  0  0
    5.5195   12.0444   26.7058 H   0  0  0  0  0  0  0  0  0  0  0  0
    7.1907   13.8594   26.6517 H   0  0  0  0  0  0  0  0  0  0  0  0
    5.8234    9.9964   25.3357 H   0  0  0  0  0  0  0  0  0  0  0  0
    9.2216   13.6771   25.2201 H   0  0  0  0  0  0  0  0  0  0  0  0
    7.8297    8.7660   23.3203 H   0  0  0  0  0  0  0  0  0  0  0  0
   14.3493   15.9802   19.6649 H   0  0  0  0  0  0  0  0  0  0  0  0
   14.6075   15.3299   21.3840 H   0  0  0  0  0  0  0  0  0  0  0  0
   11.9207   16.2141   20.1715 H   0  0  0  0  0  0  0  0  0  0  0  0
   10.5860   11.9043   21.0793 H   0  0  0  0  0  0  0  0  0  0  0  0
   11.9192   10.9204   21.7097 H   0  0  0  0  0  0  0  0  0  0  0  0
   13.3265   12.8654   22.0243 H   0  0  0  0  0  0  0  0  0  0  0  0
   12.4359   13.3523   20.5620 H   0  0  0  0  0  0  0  0  0  0  0  0
    9.7323   13.9547   22.9247 H   0  0  0  0  0  0  0  0  0  0  0  0
   10.8564   14.0028   24.3062 H   0  0  0  0  0  0  0  0  0  0  0  0
   11.6266   11.7623   23.9901 H   0  0  0  0  0  0  0  0  0  0  0  0
  1  2  1  0  0  0  0
  1  3  2  0  0  0  0
  2  4  2  0  0  0  0
  3  6  1  0  0  0  0
  4  7  1  0  0  0  0
  5  6  1  0  0  0  0
  5 15  2  0  0  0  0
  6  7  2  0  0  0  0
  7 16  1  0  0  0  0
  8  9  2  0  0  0  0
  9 10  1  0  0  0  0
 10 17  1  0  0  0  0
 10 18  2  0  0  0  0
 11 12  1  0  0  0  0
 11 14  1  0  0  0  0
 12 17  1  0  0  0  0
 13 14  1  0  0  0  0
 13 17  1  0  0  0  0
 14 16  1  0  0  0  0
 15 16  1  0  0  0  0
  1 19  1  0  0  0  0
  2 20  1  0  0  0  0
  3 21  1  0  0  0  0
  4 22  1  0  0  0  0
  5 23  1  0  0  0  0
  8 24  1  0  0  0  0
  8 25  1  0  0  0  0
  9 26  1  0  0  0  0
 11 27  1  0  0  0  0
 11 28  1  0  0  0  0
 12 29  1  0  0  0  0
 12 30  1  0  0  0  0
 13 31  1  0  0  0  0
 13 32  1  0  0  0  0
 14 33  1  0  0  0  0
M  END
> <Catalog ID>
Z2737383374

> <MW>
241.288

> <MW (desalted)>
241.288

> <ClogP>
1.428

> <logS>
-2.91

> <HBD>
0

> <HBA>
2

> <TPSA>
38.13

> <RotBonds>
2

> <ROCS_ShapeQuery>
A71EV2A-x0451_0A_A71EV2A-x0310_0A_A71EV2A-x0416_0A_peptide

> <ROCS_TanimotoCombo>
0.422 

> <ROCS_ShapeTanimoto>
0.323 

> <ROCS_ColorTanimoto>
0.100 

> <ROCS_RefTversky>
0.284 

> <ROCS_RefColorTversky>
0.113 

> <ROCS_RefTverskyCombo>
0.397 

> <ROCS_FitTversky>
1.719 

> <ROCS_FitColorTversky>
0.469 

> <ROCS_FitTverskyCombo>
2.188 

> <ROCS_ColorScore>
-3.423

> <ROCS_Overlap>
1971.866

> <ROCS_Rank>
323                 

$$$$
untitled-dbase-159_692
  -OEChem-11112315393D

 34 35  0     0  0  0  0  0  0999 V2000
    8.7516    9.6457   23.6252 C   0  0  0  0  0  0  0  0  0  0  0  0
    9.6673   10.6355   23.2683 C   0  0  0  0  0  0  0  0  0  0  0  0
    8.3384   12.2843   24.4313 C   0  0  0  0  0  0  0  0  0  0  0  0
    7.6293    9.9752   24.3852 C   0  0  0  0  0  0  0  0  0  0  0  0
    9.4607   11.9548   23.6713 C   0  0  0  0  0  0  0  0  0  0  0  0
    7.4227   11.2945   24.7882 C   0  0  0  0  0  0  0  0  0  0  0  0
   15.6373   13.1596   25.1353 C   0  0  0  0  0  0  0  0  0  0  0  0
   13.2480   12.5366   25.2979 C   0  0  0  0  0  0  0  0  0  0  0  0
   13.9851   13.8155   23.3158 C   0  0  0  0  0  0  0  0  0  0  0  0
   12.4749   11.5818   24.3967 C   0  0  0  0  0  0  0  0  0  0  0  0
   13.2077   12.8622   22.4145 C   0  0  0  0  0  0  0  0  0  0  0  0
   16.7982   13.1358   24.1733 C   0  0  0  0  0  0  0  0  0  0  0  0
   14.3610   13.1562   24.5737 N   0  0  0  0  0  0  0  0  0  0  0  0
   12.0496   12.2781   23.1491 N   0  0  0  0  0  0  0  0  0  0  0  0
   15.8597   13.1777   26.3486 O   0  0  0  0  0  0  0  0  0  0  0  0
   10.2852   13.6619   21.8882 O   0  0  0  0  0  0  0  0  0  0  0  0
   10.7206   14.1393   24.3234 O   0  0  0  0  0  0  0  0  0  0  0  0
    6.7568    9.0133   24.7183 F   0  0  0  0  0  0  0  0  0  0  0  0
   10.6196   13.2078   23.2207 S   0  0  0  0  0  0  0  0  0  0  0  0
    6.0406   11.7078   25.7277 Cl  0  0  0  0  0  0  0  0  0  0  0  0
   16.6603   11.6410   23.2542 Cl  0  0  0  0  0  0  0  0  0  0  0  0
    8.9113    8.6189   23.3101 H   0  0  0  0  0  0  0  0  0  0  0  0
   10.5383   10.3681   22.6761 H   0  0  0  0  0  0  0  0  0  0  0  0
    8.1814   13.3142   24.7440 H   0  0  0  0  0  0  0  0  0  0  0  0
   12.5968   13.3533   25.6374 H   0  0  0  0  0  0  0  0  0  0  0  0
   13.5850   12.0019   26.1896 H   0  0  0  0  0  0  0  0  0  0  0  0
   14.8702   14.1865   22.7913 H   0  0  0  0  0  0  0  0  0  0  0  0
   13.3691   14.6822   23.5819 H   0  0  0  0  0  0  0  0  0  0  0  0
   13.0891   10.7049   24.1429 H   0  0  0  0  0  0  0  0  0  0  0  0
   11.5844   11.2268   24.9348 H   0  0  0  0  0  0  0  0  0  0  0  0
   12.8395   13.4203   21.5407 H   0  0  0  0  0  0  0  0  0  0  0  0
   13.8614   12.0555   22.0474 H   0  0  0  0  0  0  0  0  0  0  0  0
   17.7233   13.1411   24.7385 H   0  0  0  0  0  0  0  0  0  0  0  0
   16.7222   13.9894   23.5096 H   0  0  0  0  0  0  0  0  0  0  0  0
  1  2  2  0  0  0  0
  1  4  1  0  0  0  0
  2  5  1  0  0  0  0
  3  5  2  0  0  0  0
  3  6  1  0  0  0  0
  4  6  2  0  0  0  0
  4 18  1  0  0  0  0
  5 19  1  0  0  0  0
  6 20  1  0  0  0  0
  7 12  1  0  0  0  0
  7 13  1  0  0  0  0
  7 15  2  0  0  0  0
  8 10  1  0  0  0  0
  8 13  1  0  0  0  0
  9 11  1  0  0  0  0
  9 13  1  0  0  0  0
 10 14  1  0  0  0  0
 11 14  1  0  0  0  0
 12 21  1  0  0  0  0
 14 19  1  0  0  0  0
 16 19  2  0  0  0  0
 17 19  2  0  0  0  0
  1 22  1  0  0  0  0
  2 23  1  0  0  0  0
  3 24  1  0  0  0  0
  8 25  1  0  0  0  0
  8 26  1  0  0  0  0
  9 27  1  0  0  0  0
  9 28  1  0  0  0  0
 10 29  1  0  0  0  0
 10 30  1  0  0  0  0
 11 31  1  0  0  0  0
 11 32  1  0  0  0  0
 12 33  1  0  0  0  0
 12 34  1  0  0  0  0
M  END
> <Catalog ID>
Z147647770

> <MW>
354.001

> <MW (desalted)>
355.213

> <ClogP>
2.333

> <logS>
-3.77

> <HBD>
0

> <HBA>
3

> <TPSA>
57.69

> <RotBonds>
2

> <ROCS_ShapeQuery>
A71EV2A-x0451_0A_A71EV2A-x0310_0A_A71EV2A-x0416_0A_peptide

> <ROCS_TanimotoCombo>
0.422 

> <ROCS_ShapeTanimoto>
0.289 

> <ROCS_ColorTanimoto>
0.134 

> <ROCS_RefTversky>
0.263 

> <ROCS_RefColorTversky>
0.142 

> <ROCS_RefTverskyCombo>
0.406 

> <ROCS_FitTversky>
1.512 

> <ROCS_FitColorTversky>
0.683 

> <ROCS_FitTverskyCombo>
2.194 

> <ROCS_ColorScore>
-4.327

> <ROCS_Overlap>
1825.549

> <ROCS_Rank>
324                 

$$$$
untitled-dbase-364_680
  -OEChem-11112315393D

 40 41  0     0  0  0  0  0  0999 V2000
    8.7540    9.6453   23.6242 C   0  0  0  0  0  0  0  0  0  0  0  0
    9.6684   10.6365   23.2679 C   0  0  0  0  0  0  0  0  0  0  0  0
    8.3376   12.2828   24.4321 C   0  0  0  0  0  0  0  0  0  0  0  0
    7.6312    9.9729   24.3844 C   0  0  0  0  0  0  0  0  0  0  0  0
    7.4231   11.2916   24.7883 C   0  0  0  0  0  0  0  0  0  0  0  0
    9.4603   11.9552   23.6719 C   0  0  0  0  0  0  0  0  0  0  0  0
   15.6369   13.1602   25.1352 C   0  0  0  0  0  0  0  0  0  0  0  0
   13.2477   12.5371   25.2981 C   0  0  0  0  0  0  0  0  0  0  0  0
   13.9845   13.8160   23.3159 C   0  0  0  0  0  0  0  0  0  0  0  0
   12.4745   11.5823   24.3969 C   0  0  0  0  0  0  0  0  0  0  0  0
   13.2070   12.8628   22.4146 C   0  0  0  0  0  0  0  0  0  0  0  0
    6.6649    8.8946   24.7504 C   0  0  0  0  0  0  0  0  0  0  0  0
    6.2273   11.6661   25.6010 C   0  0  0  0  0  0  0  0  0  0  0  0
   16.7977   13.1364   24.1731 C   0  0  0  0  0  0  0  0  0  0  0  0
   14.3606   13.1568   24.5738 N   0  0  0  0  0  0  0  0  0  0  0  0
   12.0490   12.2786   23.1494 N   0  0  0  0  0  0  0  0  0  0  0  0
   15.8595   13.1783   26.3485 O   0  0  0  0  0  0  0  0  0  0  0  0
   10.2844   13.6624   21.8887 O   0  0  0  0  0  0  0  0  0  0  0  0
   10.7201   14.1397   24.3239 O   0  0  0  0  0  0  0  0  0  0  0  0
   10.6190   13.2083   23.2212 S   0  0  0  0  0  0  0  0  0  0  0  0
   16.6598   11.6417   23.2540 Cl  0  0  0  0  0  0  0  0  0  0  0  0
    8.9230    8.6210   23.3024 H   0  0  0  0  0  0  0  0  0  0  0  0
   10.5398   10.3704   22.6757 H   0  0  0  0  0  0  0  0  0  0  0  0
    8.1743   13.3111   24.7463 H   0  0  0  0  0  0  0  0  0  0  0  0
   12.5965   13.3538   25.6376 H   0  0  0  0  0  0  0  0  0  0  0  0
   13.5849   12.0024   26.1897 H   0  0  0  0  0  0  0  0  0  0  0  0
   14.8696   14.1871   22.7914 H   0  0  0  0  0  0  0  0  0  0  0  0
   13.3685   14.6827   23.5821 H   0  0  0  0  0  0  0  0  0  0  0  0
   13.0887   10.7054   24.1430 H   0  0  0  0  0  0  0  0  0  0  0  0
   11.5841   11.2273   24.9351 H   0  0  0  0  0  0  0  0  0  0  0  0
   12.8387   13.4209   21.5409 H   0  0  0  0  0  0  0  0  0  0  0  0
   13.8608   12.0561   22.0475 H   0  0  0  0  0  0  0  0  0  0  0  0
    6.9494    8.4377   25.7054 H   0  0  0  0  0  0  0  0  0  0  0  0
    5.6458    9.2899   24.8418 H   0  0  0  0  0  0  0  0  0  0  0  0
    6.6358    8.1112   23.9829 H   0  0  0  0  0  0  0  0  0  0  0  0
    5.3930   11.9405   24.9452 H   0  0  0  0  0  0  0  0  0  0  0  0
    5.9087   10.8358   26.2433 H   0  0  0  0  0  0  0  0  0  0  0  0
    6.4467   12.5144   26.2613 H   0  0  0  0  0  0  0  0  0  0  0  0
   17.7229   13.1418   24.7382 H   0  0  0  0  0  0  0  0  0  0  0  0
   16.7216   13.9901   23.5094 H   0  0  0  0  0  0  0  0  0  0  0  0
  1  2  2  0  0  0  0
  1  4  1  0  0  0  0
  2  6  1  0  0  0  0
  3  5  1  0  0  0  0
  3  6  2  0  0  0  0
  4  5  2  0  0  0  0
  4 12  1  0  0  0  0
  5 13  1  0  0  0  0
  6 20  1  0  0  0  0
  7 14  1  0  0  0  0
  7 15  1  0  0  0  0
  7 17  2  0  0  0  0
  8 10  1  0  0  0  0
  8 15  1  0  0  0  0
  9 11  1  0  0  0  0
  9 15  1  0  0  0  0
 10 16  1  0  0  0  0
 11 16  1  0  0  0  0
 14 21  1  0  0  0  0
 16 20  1  0  0  0  0
 18 20  2  0  0  0  0
 19 20  2  0  0  0  0
  1 22  1  0  0  0  0
  2 23  1  0  0  0  0
  3 24  1  0  0  0  0
  8 25  1  0  0  0  0
  8 26  1  0  0  0  0
  9 27  1  0  0  0  0
  9 28  1  0  0  0  0
 10 29  1  0  0  0  0
 10 30  1  0  0  0  0
 11 31  1  0  0  0  0
 11 32  1  0  0  0  0
 12 33  1  0  0  0  0
 12 34  1  0  0  0  0
 12 35  1  0  0  0  0
 13 36  1  0  0  0  0
 13 37  1  0  0  0  0
 13 38  1  0  0  0  0
 14 39  1  0  0  0  0
 14 40  1  0  0  0  0
M  END
> <Catalog ID>
Z147647394

> <MW>
330.08

> <MW (desalted)>
330.83

> <ClogP>
2.425

> <logS>
-3.78

> <HBD>
0

> <HBA>
3

> <TPSA>
57.69

> <RotBonds>
2

> <ROCS_ShapeQuery>
A71EV2A-x0451_0A_A71EV2A-x0310_0A_A71EV2A-x0416_0A_peptide

> <ROCS_TanimotoCombo>
0.422 

> <ROCS_ShapeTanimoto>
0.289 

> <ROCS_ColorTanimoto>
0.134 

> <ROCS_RefTversky>
0.263 

> <ROCS_RefColorTversky>
0.142 

> <ROCS_RefTverskyCombo>
0.406 

> <ROCS_FitTversky>
1.510 

> <ROCS_FitColorTversky>
0.683 

> <ROCS_FitTverskyCombo>
2.193 

> <ROCS_ColorScore>
-4.327

> <ROCS_Overlap>
1825.875

> <ROCS_Rank>
325                 

$$$$
untitled-dbase-152_6
  -OEChem-11112315393D

 26 26  0     0  0  0  0  0  0999 V2000
    8.4809   12.2047   24.6949 C   0  0  0  0  0  0  0  0  0  0  0  0
    9.6717   10.8824   23.0607 C   0  0  0  0  0  0  0  0  0  0  0  0
    7.6412   11.1225   24.9586 C   0  0  0  0  0  0  0  0  0  0  0  0
    8.8321    9.8002   23.3245 C   0  0  0  0  0  0  0  0  0  0  0  0
    9.4961   12.0846   23.7458 C   0  0  0  0  0  0  0  0  0  0  0  0
    7.8168    9.9203   24.2735 C   0  0  0  0  0  0  0  0  0  0  0  0
   10.3714   13.2129   23.4707 C   0  0  0  0  0  0  0  0  0  0  0  0
    7.0371    7.5881   23.9335 C   0  0  0  0  0  0  0  0  0  0  0  0
   11.8536   14.3199   21.7787 C   0  0  0  0  0  0  0  0  0  0  0  0
    5.9717    6.6566   24.4632 C   0  0  0  0  0  0  0  0  0  0  0  0
    6.9766    8.8385   24.5382 N   0  0  0  0  0  0  0  0  0  0  0  0
   10.9458   13.2754   22.1957 N   0  0  0  0  0  0  0  0  0  0  0  0
   10.6024   14.0619   24.3499 O   0  0  0  0  0  0  0  0  0  0  0  0
    7.8093    7.2082   23.0574 O   0  0  0  0  0  0  0  0  0  0  0  0
    6.6491    5.7975   25.8556 Cl  0  0  0  0  0  0  0  0  0  0  0  0
    8.3349   13.1370   25.2340 H   0  0  0  0  0  0  0  0  0  0  0  0
   10.4596   10.7779   22.3191 H   0  0  0  0  0  0  0  0  0  0  0  0
    6.8532   11.2264   25.7005 H   0  0  0  0  0  0  0  0  0  0  0  0
    8.9783    8.8680   22.7844 H   0  0  0  0  0  0  0  0  0  0  0  0
   11.2888   15.1169   21.2731 H   0  0  0  0  0  0  0  0  0  0  0  0
   12.3644   14.7350   22.6601 H   0  0  0  0  0  0  0  0  0  0  0  0
   12.5990   13.9025   21.0857 H   0  0  0  0  0  0  0  0  0  0  0  0
    5.6435    5.9236   23.7219 H   0  0  0  0  0  0  0  0  0  0  0  0
    5.1067    7.2409   24.7897 H   0  0  0  0  0  0  0  0  0  0  0  0
    6.2516    8.9777   25.2396 H   0  0  0  0  0  0  0  0  0  0  0  0
   10.7740   12.5231   21.5368 H   0  0  0  0  0  0  0  0  0  0  0  0
  1  3  2  0  0  0  0
  1  5  1  0  0  0  0
  2  4  1  0  0  0  0
  2  5  2  0  0  0  0
  3  6  1  0  0  0  0
  4  6  2  0  0  0  0
  5  7  1  0  0  0  0
  6 11  1  0  0  0  0
  7 12  1  0  0  0  0
  7 13  2  0  0  0  0
  8 10  1  0  0  0  0
  8 11  1  0  0  0  0
  8 14  2  0  0  0  0
  9 12  1  0  0  0  0
 10 15  1  0  0  0  0
  1 16  1  0  0  0  0
  2 17  1  0  0  0  0
  3 18  1  0  0  0  0
  4 19  1  0  0  0  0
  9 20  1  0  0  0  0
  9 21  1  0  0  0  0
  9 22  1  0  0  0  0
 10 23  1  0  0  0  0
 10 24  1  0  0  0  0
 11 25  1  0  0  0  0
 12 26  1  0  0  0  0
M  END
> <Catalog ID>
Z107741798

> <MW>
226.051

> <MW (desalted)>
226.66

> <ClogP>
0.787

> <logS>
-2.43

> <HBD>
2

> <HBA>
2

> <TPSA>
58.2

> <RotBonds>
3

> <ROCS_ShapeQuery>
A71EV2A-x0451_0A_A71EV2A-x0310_0A_A71EV2A-x0416_0A_peptide

> <ROCS_TanimotoCombo>
0.422 

> <ROCS_ShapeTanimoto>
0.251 

> <ROCS_ColorTanimoto>
0.172 

> <ROCS_RefTversky>
0.229 

> <ROCS_RefColorTversky>
0.177 

> <ROCS_RefTverskyCombo>
0.406 

> <ROCS_FitTversky>
1.627 

> <ROCS_FitColorTversky>
0.849 

> <ROCS_FitTverskyCombo>
2.476 

> <ROCS_ColorScore>
-5.378

> <ROCS_Overlap>
1583.537

> <ROCS_Rank>
326                 

$$$$
untitled-dbase-456_14
  -OEChem-11112315393D

 24 24  0     0  0  0  0  0  0999 V2000
    9.0902    9.2974   23.2851 C   0  0  0  0  0  0  0  0  0  0  0  0
    9.9158   10.2901   22.7572 C   0  0  0  0  0  0  0  0  0  0  0  0
    8.0701    9.6381   24.1733 C   0  0  0  0  0  0  0  0  0  0  0  0
    8.7011   11.9642   24.0058 C   0  0  0  0  0  0  0  0  0  0  0  0
    9.7212   11.6235   23.1175 C   0  0  0  0  0  0  0  0  0  0  0  0
    7.8755   10.9715   24.5337 C   0  0  0  0  0  0  0  0  0  0  0  0
   11.4680   15.8395   21.8736 C   0  0  0  0  0  0  0  0  0  0  0  0
   11.8233   14.6193   22.2879 C   0  0  0  0  0  0  0  0  0  0  0  0
   10.9257   13.8295   23.1800 C   0  0  0  0  0  0  0  0  0  0  0  0
    6.7373   12.6859   25.7258 C   0  0  0  0  0  0  0  0  0  0  0  0
   10.5471   12.6162   22.5890 N   0  0  0  0  0  0  0  0  0  0  0  0
   10.5973   14.2489   24.2835 O   0  0  0  0  0  0  0  0  0  0  0  0
    6.8802   11.3041   25.4006 O   0  0  0  0  0  0  0  0  0  0  0  0
    9.2414    8.2595   23.0035 H   0  0  0  0  0  0  0  0  0  0  0  0
   10.7079   10.0129   22.0663 H   0  0  0  0  0  0  0  0  0  0  0  0
    7.4302    8.8601   24.5802 H   0  0  0  0  0  0  0  0  0  0  0  0
    8.5452   13.0027   24.2894 H   0  0  0  0  0  0  0  0  0  0  0  0
   12.0940   16.4425   21.2253 H   0  0  0  0  0  0  0  0  0  0  0  0
   10.5196   16.2636   22.1864 H   0  0  0  0  0  0  0  0  0  0  0  0
   12.7710   14.1945   21.9753 H   0  0  0  0  0  0  0  0  0  0  0  0
    5.9077   12.8123   26.4257 H   0  0  0  0  0  0  0  0  0  0  0  0
    6.5493   13.2582   24.8139 H   0  0  0  0  0  0  0  0  0  0  0  0
    7.6607   13.0388   26.1912 H   0  0  0  0  0  0  0  0  0  0  0  0
   10.9244   12.4355   21.6509 H   0  0  0  0  0  0  0  0  0  0  0  0
  1  2  1  0  0  0  0
  1  3  2  0  0  0  0
  2  5  2  0  0  0  0
  3  6  1  0  0  0  0
  4  5  1  0  0  0  0
  4  6  2  0  0  0  0
  5 11  1  0  0  0  0
  6 13  1  0  0  0  0
  7  8  2  0  0  0  0
  8  9  1  0  0  0  0
  9 11  1  0  0  0  0
  9 12  2  0  0  0  0
 10 13  1  0  0  0  0
  1 14  1  0  0  0  0
  2 15  1  0  0  0  0
  3 16  1  0  0  0  0
  4 17  1  0  0  0  0
  7 18  1  0  0  0  0
  7 19  1  0  0  0  0
  8 20  1  0  0  0  0
 10 21  1  0  0  0  0
 10 22  1  0  0  0  0
 10 23  1  0  0  0  0
 11 24  1  0  0  0  0
M  END
> <Catalog ID>
Z440633646

> <MW>
177.079

> <MW (desalted)>
177.2

> <ClogP>
1.491

> <logS>
-2.26

> <HBD>
1

> <HBA>
2

> <TPSA>
38.33

> <RotBonds>
3

> <ROCS_ShapeQuery>
A71EV2A-x0451_0A_A71EV2A-x0310_0A_A71EV2A-x0416_0A_peptide

> <ROCS_TanimotoCombo>
0.422 

> <ROCS_ShapeTanimoto>
0.280 

> <ROCS_ColorTanimoto>
0.142 

> <ROCS_RefTversky>
0.247 

> <ROCS_RefColorTversky>
0.150 

> <ROCS_RefTverskyCombo>
0.398 

> <ROCS_FitTversky>
1.907 

> <ROCS_FitColorTversky>
0.720 

> <ROCS_FitTverskyCombo>
2.627 

> <ROCS_ColorScore>
-4.560

> <ROCS_Overlap>
1713.405

> <ROCS_Rank>
327                 

$$$$
untitled-dbase-781_19
  -OEChem-11112315393D

 23 23  0     0  0  0  0  0  0999 V2000
    9.8110    9.1503   22.6982 C   0  0  0  0  0  0  0  0  0  0  0  0
    9.1064   10.1329   23.4500 C   0  0  0  0  0  0  0  0  0  0  0  0
    8.0243    9.9376   24.3413 C   0  0  0  0  0  0  0  0  0  0  0  0
    7.6925   11.1844   24.8181 C   0  0  0  0  0  0  0  0  0  0  0  0
    9.3584   11.4852   23.4456 C   0  0  0  0  0  0  0  0  0  0  0  0
   10.8612   13.4470   23.2104 C   0  0  0  0  0  0  0  0  0  0  0  0
    7.3760    8.6596   24.6949 C   0  0  0  0  0  0  0  0  0  0  0  0
    6.6738   11.6668   25.7623 C   0  0  0  0  0  0  0  0  0  0  0  0
   11.8429   14.0142   22.2114 C   0  0  0  0  0  0  0  0  0  0  0  0
   10.3853    8.3495   22.0854 N   0  0  0  0  0  0  0  0  0  0  0  0
   10.2799   12.2433   22.7749 N   0  0  0  0  0  0  0  0  0  0  0  0
   10.6336   14.0436   24.2594 O   0  0  0  0  0  0  0  0  0  0  0  0
    8.5008   12.1332   24.2770 O   0  0  0  0  0  0  0  0  0  0  0  0
   11.3097   13.5279   20.5944 Cl  0  0  0  0  0  0  0  0  0  0  0  0
    7.8636    8.1948   25.5674 H   0  0  0  0  0  0  0  0  0  0  0  0
    6.3079    8.7909   24.9384 H   0  0  0  0  0  0  0  0  0  0  0  0
    7.4122    7.9337   23.8645 H   0  0  0  0  0  0  0  0  0  0  0  0
    7.0575   11.6783   26.7979 H   0  0  0  0  0  0  0  0  0  0  0  0
    6.3333   12.6914   25.5248 H   0  0  0  0  0  0  0  0  0  0  0  0
    5.7636   11.0391   25.7543 H   0  0  0  0  0  0  0  0  0  0  0  0
   12.8629   13.6550   22.3695 H   0  0  0  0  0  0  0  0  0  0  0  0
   11.8386   15.1060   22.2762 H   0  0  0  0  0  0  0  0  0  0  0  0
   10.5794   11.8948   21.8531 H   0  0  0  0  0  0  0  0  0  0  0  0
  1  2  1  0  0  0  0
  1 10  3  0  0  0  0
  2  3  1  0  0  0  0
  2  5  2  0  0  0  0
  3  4  2  0  0  0  0
  3  7  1  0  0  0  0
  4  8  1  0  0  0  0
  4 13  1  0  0  0  0
  5 11  1  0  0  0  0
  5 13  1  0  0  0  0
  6  9  1  0  0  0  0
  6 11  1  0  0  0  0
  6 12  2  0  0  0  0
  9 14  1  0  0  0  0
  7 15  1  0  0  0  0
  7 16  1  0  0  0  0
  7 17  1  0  0  0  0
  8 18  1  0  0  0  0
  8 19  1  0  0  0  0
  8 20  1  0  0  0  0
  9 21  1  0  0  0  0
  9 22  1  0  0  0  0
 11 23  1  0  0  0  0
M  END
> <Catalog ID>
Z212142680

> <MW>
212.035

> <MW (desalted)>
212.633

> <ClogP>
1.369

> <logS>
-2.46

> <HBD>
1

> <HBA>
2

> <TPSA>
66.03

> <RotBonds>
2

> <ROCS_ShapeQuery>
A71EV2A-x0451_0A_A71EV2A-x0310_0A_A71EV2A-x0416_0A_peptide

> <ROCS_TanimotoCombo>
0.422 

> <ROCS_ShapeTanimoto>
0.285 

> <ROCS_ColorTanimoto>
0.137 

> <ROCS_RefTversky>
0.252 

> <ROCS_RefColorTversky>
0.146 

> <ROCS_RefTverskyCombo>
0.398 

> <ROCS_FitTversky>
1.863 

> <ROCS_FitColorTversky>
0.698 

> <ROCS_FitTverskyCombo>
2.562 

> <ROCS_ColorScore>
-4.425

> <ROCS_Overlap>
1744.527

> <ROCS_Rank>
328                 

$$$$
untitled-dbase-514_61
  -OEChem-11112315393D

 32 33  0     1  0  0  0  0  0999 V2000
    7.3940   10.7612   24.6769 C   0  0  0  0  0  0  0  0  0  0  0  0
    8.1978    9.7395   24.1707 C   0  0  0  0  0  0  0  0  0  0  0  0
    7.7795   12.0940   24.5310 C   0  0  0  0  0  0  0  0  0  0  0  0
    9.3913   10.0453   23.5167 C   0  0  0  0  0  0  0  0  0  0  0  0
    8.9815   12.4071   23.8902 C   0  0  0  0  0  0  0  0  0  0  0  0
    9.7888   11.3778   23.3786 C   0  0  0  0  0  0  0  0  0  0  0  0
   11.3531   15.0851   22.7591 C   0  0  0  0  0  0  0  0  0  0  0  0
   13.0629   12.7824   23.8475 C   0  0  0  0  0  0  0  0  0  0  0  0
    9.4064   13.8314   23.6562 C   0  0  0  0  0  0  0  0  0  0  0  0
   11.0563   11.7634   22.6661 C   0  0  0  0  0  0  0  0  0  0  0  0
   10.9310   14.0271   23.7357 C   0  0  1  0  0  0  0  0  0  0  0  0
   11.4109   15.5989   20.4533 C   0  0  0  0  0  0  0  0  0  0  0  0
   13.6060   11.4184   24.1908 C   0  0  0  0  0  0  0  0  0  0  0  0
   11.7374   12.8413   23.4002 N   0  0  0  0  0  0  0  0  0  0  0  0
   11.8785   16.1428   23.0792 O   0  0  0  0  0  0  0  0  0  0  0  0
   13.7936   13.7699   23.9664 O   0  0  0  0  0  0  0  0  0  0  0  0
   11.0593   14.6785   21.4913 O   0  0  0  0  0  0  0  0  0  0  0  0
   14.8317   11.6631   25.4292 Cl  0  0  0  0  0  0  0  0  0  0  0  0
    6.4658   10.5175   25.1874 H   0  0  0  0  0  0  0  0  0  0  0  0
    7.8945    8.7025   24.2904 H   0  0  0  0  0  0  0  0  0  0  0  0
    7.1380   12.8777   24.9177 H   0  0  0  0  0  0  0  0  0  0  0  0
   10.0023    9.2424   23.1227 H   0  0  0  0  0  0  0  0  0  0  0  0
    9.0566   14.1616   22.6715 H   0  0  0  0  0  0  0  0  0  0  0  0
    8.9242   14.4608   24.4126 H   0  0  0  0  0  0  0  0  0  0  0  0
   11.6996   10.9094   22.6106 H   0  0  0  0  0  0  0  0  0  0  0  0
   10.8189   12.1462   21.6914 H   0  0  0  0  0  0  0  0  0  0  0  0
   11.1896   14.4089   24.7152 H   0  0  0  0  0  0  0  0  0  0  0  0
   11.1344   15.1784   19.4834 H   0  0  0  0  0  0  0  0  0  0  0  0
   12.4860   15.7924   20.4854 H   0  0  0  0  0  0  0  0  0  0  0  0
   10.8694   16.5349   20.6098 H   0  0  0  0  0  0  0  0  0  0  0  0
   14.0531   10.9865   23.3034 H   0  0  0  0  0  0  0  0  0  0  0  0
   12.7992   10.8085   24.5793 H   0  0  0  0  0  0  0  0  0  0  0  0
  1  2  1  0  0  0  0
  1  3  2  0  0  0  0
  2  4  2  0  0  0  0
  3  5  1  0  0  0  0
  4  6  1  0  0  0  0
  5  6  2  0  0  0  0
  5  9  1  0  0  0  0
  6 10  1  0  0  0  0
  7 11  1  0  0  0  0
  7 15  2  0  0  0  0
  7 17  1  0  0  0  0
  8 13  1  0  0  0  0
  8 14  1  0  0  0  0
  8 16  2  0  0  0  0
  9 11  1  0  0  0  0
 10 14  1  0  0  0  0
 11 14  1  0  0  0  0
 12 17  1  0  0  0  0
 13 18  1  0  0  0  0
  1 19  1  0  0  0  0
  2 20  1  0  0  0  0
  3 21  1  0  0  0  0
  4 22  1  0  0  0  0
  9 23  1  0  0  0  0
  9 24  1  0  0  0  0
 10 25  1  0  0  0  0
 10 26  1  0  0  0  0
 11 27  1  0  0  0  0
 12 28  1  0  0  0  0
 12 29  1  0  0  0  0
 12 30  1  0  0  0  0
 13 31  1  0  0  0  0
 13 32  1  0  0  0  0
M  END
> <Catalog ID>
Z57984421

> <MW>
267.066

> <MW (desalted)>
267.708

> <ClogP>
1.579

> <logS>
-2.78

> <HBD>
0

> <HBA>
2

> <TPSA>
46.61

> <RotBonds>
3

> <ROCS_ShapeQuery>
A71EV2A-x0451_0A_A71EV2A-x0310_0A_A71EV2A-x0416_0A_peptide

> <ROCS_TanimotoCombo>
0.422 

> <ROCS_ShapeTanimoto>
0.309 

> <ROCS_ColorTanimoto>
0.113 

> <ROCS_RefTversky>
0.274 

> <ROCS_RefColorTversky>
0.120 

> <ROCS_RefTverskyCombo>
0.394 

> <ROCS_FitTversky>
1.703 

> <ROCS_FitColorTversky>
0.673 

> <ROCS_FitTverskyCombo>
2.376 

> <ROCS_ColorScore>
-3.628

> <ROCS_Overlap>
1901.001

> <ROCS_Rank>
329                 

$$$$
untitled-dbase-476_163
  -OEChem-11112315393D

 33 34  0     1  0  0  0  0  0999 V2000
    6.9637   12.0723   26.0363 C   0  0  0  0  0  0  0  0  0  0  0  0
    7.4506   10.7861   26.0676 C   0  0  0  0  0  0  0  0  0  0  0  0
    8.0871   11.8526   24.2313 C   0  0  0  0  0  0  0  0  0  0  0  0
   11.1818   16.0039   22.1603 C   0  0  0  0  0  0  0  0  0  0  0  0
   11.9400   15.0473   22.7060 C   0  0  0  0  0  0  0  0  0  0  0  0
   11.3014   13.8884   23.3925 C   0  0  0  0  0  0  0  0  0  0  0  0
    8.7339   12.0423   22.9015 C   0  0  0  0  0  0  0  0  0  0  0  0
    9.3356    9.5923   23.0149 C   0  0  0  0  0  0  0  0  0  0  0  0
    8.9234    9.5085   24.4852 C   0  0  0  0  0  0  0  0  0  0  0  0
    9.8276   10.9962   22.6196 C   0  0  2  0  0  0  0  0  0  0  0  0
   12.5298   12.5989   21.6882 C   0  0  0  0  0  0  0  0  0  0  0  0
   11.1454   11.3573   23.3121 C   0  0  0  0  0  0  0  0  0  0  0  0
    7.3601   12.7280   24.8962 N   0  0  0  0  0  0  0  0  0  0  0  0
    8.1603   10.6628   24.9112 N   0  0  0  0  0  0  0  0  0  0  0  0
   11.6094   12.6181   22.8390 N   0  0  0  0  0  0  0  0  0  0  0  0
   10.5533   14.0833   24.3518 O   0  0  0  0  0  0  0  0  0  0  0  0
    6.3462   12.5598   26.7765 H   0  0  0  0  0  0  0  0  0  0  0  0
    7.3492    9.9824   26.7833 H   0  0  0  0  0  0  0  0  0  0  0  0
   11.6025   16.8642   21.6515 H   0  0  0  0  0  0  0  0  0  0  0  0
   10.1002   15.9338   22.2116 H   0  0  0  0  0  0  0  0  0  0  0  0
   13.0178   15.0992   22.6133 H   0  0  0  0  0  0  0  0  0  0  0  0
    7.9695   12.0001   22.1127 H   0  0  0  0  0  0  0  0  0  0  0  0
    9.1626   13.0550   22.8721 H   0  0  0  0  0  0  0  0  0  0  0  0
   10.1360    8.8558   22.8182 H   0  0  0  0  0  0  0  0  0  0  0  0
    8.4833    9.2894   22.3825 H   0  0  0  0  0  0  0  0  0  0  0  0
    8.2844    8.6343   24.6553 H   0  0  0  0  0  0  0  0  0  0  0  0
    9.8061    9.4272   25.1284 H   0  0  0  0  0  0  0  0  0  0  0  0
   10.0181   10.9872   21.5244 H   0  0  0  0  0  0  0  0  0  0  0  0
   13.5654   12.5080   22.0477 H   0  0  0  0  0  0  0  0  0  0  0  0
   12.2898   11.7422   21.0412 H   0  0  0  0  0  0  0  0  0  0  0  0
   12.4209   13.5321   21.1162 H   0  0  0  0  0  0  0  0  0  0  0  0
   10.9476   11.3984   24.3820 H   0  0  0  0  0  0  0  0  0  0  0  0
   11.8610   10.5718   23.0747 H   0  0  0  0  0  0  0  0  0  0  0  0
  1  2  2  0  0  0  0
  1 13  1  0  0  0  0
  2 14  1  0  0  0  0
  3  7  1  0  0  0  0
  3 13  2  0  0  0  0
  3 14  1  0  0  0  0
  4  5  2  0  0  0  0
  5  6  1  0  0  0  0
  6 15  1  0  0  0  0
  6 16  2  0  0  0  0
  7 10  1  0  0  0  0
  8  9  1  0  0  0  0
  8 10  1  0  0  0  0
  9 14  1  0  0  0  0
 10 12  1  0  0  0  0
 11 15  1  0  0  0  0
 12 15  1  0  0  0  0
  1 17  1  0  0  0  0
  2 18  1  0  0  0  0
  4 19  1  0  0  0  0
  4 20  1  0  0  0  0
  5 21  1  0  0  0  0
  7 22  1  0  0  0  0
  7 23  1  0  0  0  0
  8 24  1  0  0  0  0
  8 25  1  0  0  0  0
  9 26  1  0  0  0  0
  9 27  1  0  0  0  0
 10 28  1  0  0  0  0
 11 29  1  0  0  0  0
 11 30  1  0  0  0  0
 11 31  1  0  0  0  0
 12 32  1  0  0  0  0
 12 33  1  0  0  0  0
M  END
> <Catalog ID>
Z2517277032

> <MW>
219.283

> <MW (desalted)>
219.283

> <ClogP>
-0.041

> <logS>
-0.658

> <HBD>
0

> <HBA>
2

> <TPSA>
38.13

> <RotBonds>
3

> <ROCS_ShapeQuery>
A71EV2A-x0451_0A_A71EV2A-x0310_0A_A71EV2A-x0416_0A_peptide

> <ROCS_TanimotoCombo>
0.422 

> <ROCS_ShapeTanimoto>
0.295 

> <ROCS_ColorTanimoto>
0.127 

> <ROCS_RefTversky>
0.262 

> <ROCS_RefColorTversky>
0.139 

> <ROCS_RefTverskyCombo>
0.402 

> <ROCS_FitTversky>
1.755 

> <ROCS_FitColorTversky>
0.581 

> <ROCS_FitTverskyCombo>
2.336 

> <ROCS_ColorScore>
-4.244

> <ROCS_Overlap>
1816.223

> <ROCS_Rank>
330                 

$$$$
untitled-dbase-135_1
  -OEChem-11112315393D

 30 31  0     0  0  0  0  0  0999 V2000
    5.8851   10.6547   25.8257 C   0  0  0  0  0  0  0  0  0  0  0  0
    6.1568   12.0099   25.9635 C   0  0  0  0  0  0  0  0  0  0  0  0
    6.7791    9.8444   25.1348 C   0  0  0  0  0  0  0  0  0  0  0  0
    7.3081   12.5573   25.3883 C   0  0  0  0  0  0  0  0  0  0  0  0
    7.9393   10.3957   24.5736 C   0  0  0  0  0  0  0  0  0  0  0  0
    8.2036   11.7648   24.6509 C   0  0  0  0  0  0  0  0  0  0  0  0
   10.0437    9.9231   23.4384 C   0  0  0  0  0  0  0  0  0  0  0  0
    9.5906   13.6840   23.8913 C   0  0  0  0  0  0  0  0  0  0  0  0
   10.5137   11.3533   23.7785 C   0  0  0  0  0  0  0  0  0  0  0  0
   11.3989   11.2551   25.0351 C   0  0  0  0  0  0  0  0  0  0  0  0
   11.3809   11.8019   22.5759 C   0  0  0  0  0  0  0  0  0  0  0  0
    8.4327   14.4823   23.3290 C   0  0  0  0  0  0  0  0  0  0  0  0
    8.8230    9.5358   23.9234 N   0  0  0  0  0  0  0  0  0  0  0  0
    9.3839   12.2998   24.0260 N   0  0  0  0  0  0  0  0  0  0  0  0
   10.7860    9.1073   22.8840 O   0  0  0  0  0  0  0  0  0  0  0  0
   10.6628   14.2575   24.0974 O   0  0  0  0  0  0  0  0  0  0  0  0
    9.0320   15.2716   21.8769 Cl  0  0  0  0  0  0  0  0  0  0  0  0
    4.9730   10.2351   26.2386 H   0  0  0  0  0  0  0  0  0  0  0  0
    5.4706   12.6484   26.5125 H   0  0  0  0  0  0  0  0  0  0  0  0
    6.5575    8.7856   25.0243 H   0  0  0  0  0  0  0  0  0  0  0  0
    7.4578   13.6252   25.5103 H   0  0  0  0  0  0  0  0  0  0  0  0
   11.7427   12.2468   25.2960 H   0  0  0  0  0  0  0  0  0  0  0  0
   12.2415   10.6131   24.8169 H   0  0  0  0  0  0  0  0  0  0  0  0
   10.8112   10.8391   25.8422 H   0  0  0  0  0  0  0  0  0  0  0  0
   11.7447   12.8078   22.7547 H   0  0  0  0  0  0  0  0  0  0  0  0
   10.7770   11.7850   21.6754 H   0  0  0  0  0  0  0  0  0  0  0  0
   12.2193   11.1224   22.4683 H   0  0  0  0  0  0  0  0  0  0  0  0
    8.1346   15.2200   24.0620 H   0  0  0  0  0  0  0  0  0  0  0  0
    7.6310   13.7993   23.0823 H   0  0  0  0  0  0  0  0  0  0  0  0
    8.5455    8.5658   23.8023 H   0  0  0  0  0  0  0  0  0  0  0  0
  1  2  1  0  0  0  0
  1  3  2  0  0  0  0
  2  4  2  0  0  0  0
  3  5  1  0  0  0  0
  4  6  1  0  0  0  0
  5  6  2  0  0  0  0
  5 13  1  0  0  0  0
  6 14  1  0  0  0  0
  7  9  1  0  0  0  0
  7 13  1  0  0  0  0
  7 15  2  0  0  0  0
  8 12  1  0  0  0  0
  8 14  1  0  0  0  0
  8 16  2  0  0  0  0
  9 10  1  0  0  0  0
  9 11  1  0  0  0  0
  9 14  1  0  0  0  0
 12 17  1  0  0  0  0
  1 18  1  0  0  0  0
  2 19  1  0  0  0  0
  3 20  1  0  0  0  0
  4 21  1  0  0  0  0
 10 22  1  0  0  0  0
 10 23  1  0  0  0  0
 10 24  1  0  0  0  0
 11 25  1  0  0  0  0
 11 26  1  0  0  0  0
 11 27  1  0  0  0  0
 12 28  1  0  0  0  0
 12 29  1  0  0  0  0
 13 30  1  0  0  0  0
M  END
> <Catalog ID>
Z56940947

> <MW>
252.067

> <MW (desalted)>
252.697

> <ClogP>
2.08

> <logS>
-3.15

> <HBD>
1

> <HBA>
2

> <TPSA>
49.41

> <RotBonds>
1

> <ROCS_ShapeQuery>
A71EV2A-x0451_0A_A71EV2A-x0310_0A_A71EV2A-x0416_0A_peptide

> <ROCS_TanimotoCombo>
0.422 

> <ROCS_ShapeTanimoto>
0.286 

> <ROCS_ColorTanimoto>
0.136 

> <ROCS_RefTversky>
0.257 

> <ROCS_RefColorTversky>
0.149 

> <ROCS_RefTverskyCombo>
0.406 

> <ROCS_FitTversky>
1.643 

> <ROCS_FitColorTversky>
0.621 

> <ROCS_FitTverskyCombo>
2.264 

> <ROCS_ColorScore>
-4.525

> <ROCS_Overlap>
1781.492

> <ROCS_Rank>
331                 

$$$$
untitled-dbase-507_2
  -OEChem-11112315393D

 25 25  0     0  0  0  0  0  0999 V2000
    7.4161   10.1800   24.8224 C   0  0  0  0  0  0  0  0  0  0  0  0
    8.3251    9.5058   24.0072 C   0  0  0  0  0  0  0  0  0  0  0  0
    8.4677   12.2806   24.2580 C   0  0  0  0  0  0  0  0  0  0  0  0
    7.4873   11.5675   24.9478 C   0  0  0  0  0  0  0  0  0  0  0  0
    9.3056   10.2190   23.3174 C   0  0  0  0  0  0  0  0  0  0  0  0
    9.3769   11.6064   23.4428 C   0  0  0  0  0  0  0  0  0  0  0  0
   10.9220   13.5319   23.1823 C   0  0  0  0  0  0  0  0  0  0  0  0
    6.5147   12.2875   25.8196 C   0  0  0  0  0  0  0  0  0  0  0  0
   10.2667    9.4705   22.4520 C   0  0  0  0  0  0  0  0  0  0  0  0
   11.9429   14.0450   22.1933 C   0  0  0  0  0  0  0  0  0  0  0  0
   10.3513   12.3382   22.7593 N   0  0  0  0  0  0  0  0  0  0  0  0
   10.6751   14.1702   24.2019 O   0  0  0  0  0  0  0  0  0  0  0  0
   11.4093   15.6423   21.6461 Cl  0  0  0  0  0  0  0  0  0  0  0  0
    6.6556    9.6162   25.3561 H   0  0  0  0  0  0  0  0  0  0  0  0
    8.2607    8.4248   23.9161 H   0  0  0  0  0  0  0  0  0  0  0  0
    8.5210   13.3626   24.3577 H   0  0  0  0  0  0  0  0  0  0  0  0
    6.9042   12.3669   26.8419 H   0  0  0  0  0  0  0  0  0  0  0  0
    6.3158   13.2994   25.4435 H   0  0  0  0  0  0  0  0  0  0  0  0
    5.5492   11.7662   25.8545 H   0  0  0  0  0  0  0  0  0  0  0  0
    9.8721    9.3851   21.4332 H   0  0  0  0  0  0  0  0  0  0  0  0
   11.2384    9.9771   22.4100 H   0  0  0  0  0  0  0  0  0  0  0  0
   10.4483    8.4620   22.8431 H   0  0  0  0  0  0  0  0  0  0  0  0
   12.0544   13.3930   21.3233 H   0  0  0  0  0  0  0  0  0  0  0  0
   12.9130   14.1424   22.6888 H   0  0  0  0  0  0  0  0  0  0  0  0
   10.6723   11.9623   21.8700 H   0  0  0  0  0  0  0  0  0  0  0  0
  1  2  2  0  0  0  0
  1  4  1  0  0  0  0
  2  5  1  0  0  0  0
  3  4  2  0  0  0  0
  3  6  1  0  0  0  0
  4  8  1  0  0  0  0
  5  6  2  0  0  0  0
  5  9  1  0  0  0  0
  6 11  1  0  0  0  0
  7 10  1  0  0  0  0
  7 11  1  0  0  0  0
  7 12  2  0  0  0  0
 10 13  1  0  0  0  0
  1 14  1  0  0  0  0
  2 15  1  0  0  0  0
  3 16  1  0  0  0  0
  8 17  1  0  0  0  0
  8 18  1  0  0  0  0
  8 19  1  0  0  0  0
  9 20  1  0  0  0  0
  9 21  1  0  0  0  0
  9 22  1  0  0  0  0
 10 23  1  0  0  0  0
 10 24  1  0  0  0  0
 11 25  1  0  0  0  0
M  END
> <Catalog ID>
Z56867229

> <MW>
197.061

> <MW (desalted)>
197.661

> <ClogP>
2.122

> <logS>
-2.97

> <HBD>
1

> <HBA>
1

> <TPSA>
29.1

> <RotBonds>
2

> <ROCS_ShapeQuery>
A71EV2A-x0451_0A_A71EV2A-x0310_0A_A71EV2A-x0416_0A_peptide

> <ROCS_TanimotoCombo>
0.422 

> <ROCS_ShapeTanimoto>
0.282 

> <ROCS_ColorTanimoto>
0.140 

> <ROCS_RefTversky>
0.248 

> <ROCS_RefColorTversky>
0.141 

> <ROCS_RefTverskyCombo>
0.389 

> <ROCS_FitTversky>
1.940 

> <ROCS_FitColorTversky>
0.961 

> <ROCS_FitTverskyCombo>
2.901 

> <ROCS_ColorScore>
-4.262

> <ROCS_Overlap>
1717.740

> <ROCS_Rank>
332                 

$$$$
untitled-dbase-414_2
  -OEChem-11112315393D

 20 20  0     0  0  0  0  0  0999 V2000
   10.2091    9.4817   22.5010 C   0  0  0  0  0  0  0  0  0  0  0  0
    8.3114    9.5106   24.0228 C   0  0  0  0  0  0  0  0  0  0  0  0
    7.4077   10.1960   24.8346 C   0  0  0  0  0  0  0  0  0  0  0  0
    8.4721   12.2860   24.2550 C   0  0  0  0  0  0  0  0  0  0  0  0
    9.2955   10.2128   23.3271 C   0  0  0  0  0  0  0  0  0  0  0  0
    9.3759   11.6005   23.4432 C   0  0  0  0  0  0  0  0  0  0  0  0
    7.4880   11.5837   24.9507 C   0  0  0  0  0  0  0  0  0  0  0  0
   10.9213   13.5255   23.1806 C   0  0  0  0  0  0  0  0  0  0  0  0
   11.9421   14.0376   22.1911 C   0  0  0  0  0  0  0  0  0  0  0  0
   10.9492    8.8892   21.8317 N   0  0  0  0  0  0  0  0  0  0  0  0
   10.3515   12.3324   22.7580 N   0  0  0  0  0  0  0  0  0  0  0  0
   10.6744   14.1649   24.1996 O   0  0  0  0  0  0  0  0  0  0  0  0
    6.3726   12.4292   25.9524 Cl  0  0  0  0  0  0  0  0  0  0  0  0
   11.4086   15.6344   21.6423 Cl  0  0  0  0  0  0  0  0  0  0  0  0
    8.2344    8.4286   23.9439 H   0  0  0  0  0  0  0  0  0  0  0  0
    6.6455    9.6359   25.3704 H   0  0  0  0  0  0  0  0  0  0  0  0
    8.5360   13.3686   24.3438 H   0  0  0  0  0  0  0  0  0  0  0  0
   12.0534   13.3848   21.3216 H   0  0  0  0  0  0  0  0  0  0  0  0
   12.9122   14.1353   22.6864 H   0  0  0  0  0  0  0  0  0  0  0  0
   10.6724   11.9562   21.8697 H   0  0  0  0  0  0  0  0  0  0  0  0
  1  5  1  0  0  0  0
  1 10  3  0  0  0  0
  2  3  2  0  0  0  0
  2  5  1  0  0  0  0
  3  7  1  0  0  0  0
  4  6  1  0  0  0  0
  4  7  2  0  0  0  0
  5  6  2  0  0  0  0
  6 11  1  0  0  0  0
  7 13  1  0  0  0  0
  8  9  1  0  0  0  0
  8 11  1  0  0  0  0
  8 12  2  0  0  0  0
  9 14  1  0  0  0  0
  2 15  1  0  0  0  0
  3 16  1  0  0  0  0
  4 17  1  0  0  0  0
  9 18  1  0  0  0  0
  9 19  1  0  0  0  0
 11 20  1  0  0  0  0
M  END
> <Catalog ID>
Z56889402

> <MW>
227.986

> <MW (desalted)>
229.063

> <ClogP>
1.908

> <logS>
-3.24

> <HBD>
1

> <HBA>
2

> <TPSA>
52.89

> <RotBonds>
2

> <ROCS_ShapeQuery>
A71EV2A-x0451_0A_A71EV2A-x0310_0A_A71EV2A-x0416_0A_peptide

> <ROCS_TanimotoCombo>
0.422 

> <ROCS_ShapeTanimoto>
0.286 

> <ROCS_ColorTanimoto>
0.136 

> <ROCS_RefTversky>
0.252 

> <ROCS_RefColorTversky>
0.141 

> <ROCS_RefTverskyCombo>
0.393 

> <ROCS_FitTversky>
1.890 

> <ROCS_FitColorTversky>
0.792 

> <ROCS_FitTverskyCombo>
2.682 

> <ROCS_ColorScore>
-4.264

> <ROCS_Overlap>
1747.377

> <ROCS_Rank>
333                 

$$$$
untitled-dbase-235_81
  -OEChem-11112315393D

 30 31  0     0  0  0  0  0  0999 V2000
    9.9408    9.2723   22.6514 C   0  0  0  0  0  0  0  0  0  0  0  0
    9.1545   10.1879   23.4254 C   0  0  0  0  0  0  0  0  0  0  0  0
    8.0564    9.8246   24.2753 C   0  0  0  0  0  0  0  0  0  0  0  0
    7.5185   10.9430   24.8964 C   0  0  0  0  0  0  0  0  0  0  0  0
    9.3993   11.5408   23.4165 C   0  0  0  0  0  0  0  0  0  0  0  0
   10.9072   13.5002   23.1896 C   0  0  0  0  0  0  0  0  0  0  0  0
    7.5904    8.4053   24.4503 C   0  0  0  0  0  0  0  0  0  0  0  0
    6.3680   11.0306   25.8615 C   0  0  0  0  0  0  0  0  0  0  0  0
    6.0829    8.2729   24.6550 C   0  0  0  0  0  0  0  0  0  0  0  0
    6.2509    9.7990   26.7573 C   0  0  0  0  0  0  0  0  0  0  0  0
    5.6135    8.5840   26.0784 C   0  0  0  0  0  0  0  0  0  0  0  0
   11.9099   14.0554   22.2049 C   0  0  0  0  0  0  0  0  0  0  0  0
   10.5777    8.5318   22.0247 N   0  0  0  0  0  0  0  0  0  0  0  0
   10.3354   12.2915   22.7563 N   0  0  0  0  0  0  0  0  0  0  0  0
   10.6575   14.1095   24.2262 O   0  0  0  0  0  0  0  0  0  0  0  0
    8.3177   12.3874   24.4260 S   0  0  0  0  0  0  0  0  0  0  0  0
   11.4111   13.5495   20.5829 Cl  0  0  0  0  0  0  0  0  0  0  0  0
    7.8647    7.8090   23.5703 H   0  0  0  0  0  0  0  0  0  0  0  0
    8.1295    7.9548   25.2957 H   0  0  0  0  0  0  0  0  0  0  0  0
    6.4775   11.9383   26.4715 H   0  0  0  0  0  0  0  0  0  0  0  0
    5.4238   11.1465   25.3105 H   0  0  0  0  0  0  0  0  0  0  0  0
    5.5390    8.8993   23.9367 H   0  0  0  0  0  0  0  0  0  0  0  0
    5.8043    7.2336   24.4373 H   0  0  0  0  0  0  0  0  0  0  0  0
    7.2650    9.5095   27.0625 H   0  0  0  0  0  0  0  0  0  0  0  0
    5.7054   10.0404   27.6788 H   0  0  0  0  0  0  0  0  0  0  0  0
    4.5250    8.7600   26.0376 H   0  0  0  0  0  0  0  0  0  0  0  0
    5.7428    7.6924   26.7152 H   0  0  0  0  0  0  0  0  0  0  0  0
   12.9263   13.6982   22.3889 H   0  0  0  0  0  0  0  0  0  0  0  0
   11.9044   15.1478   22.2563 H   0  0  0  0  0  0  0  0  0  0  0  0
   10.6542   11.9320   21.8455 H   0  0  0  0  0  0  0  0  0  0  0  0
  1  2  1  0  0  0  0
  1 13  3  0  0  0  0
  2  3  1  0  0  0  0
  2  5  2  0  0  0  0
  3  4  2  0  0  0  0
  3  7  1  0  0  0  0
  4  8  1  0  0  0  0
  4 16  1  0  0  0  0
  5 14  1  0  0  0  0
  5 16  1  0  0  0  0
  6 12  1  0  0  0  0
  6 14  1  0  0  0  0
  6 15  2  0  0  0  0
  7  9  1  0  0  0  0
  8 10  1  0  0  0  0
  9 11  1  0  0  0  0
 10 11  1  0  0  0  0
 12 17  1  0  0  0  0
  7 18  1  0  0  0  0
  7 19  1  0  0  0  0
  8 20  1  0  0  0  0
  8 21  1  0  0  0  0
  9 22  1  0  0  0  0
  9 23  1  0  0  0  0
 10 24  1  0  0  0  0
 10 25  1  0  0  0  0
 11 26  1  0  0  0  0
 11 27  1  0  0  0  0
 12 28  1  0  0  0  0
 12 29  1  0  0  0  0
 14 30  1  0  0  0  0
M  END
> <Catalog ID>
Z56887643

> <MW>
268.044

> <MW (desalted)>
268.762

> <ClogP>
2.976

> <logS>
-4.61

> <HBD>
1

> <HBA>
2

> <TPSA>
52.89

> <RotBonds>
2

> <ROCS_ShapeQuery>
A71EV2A-x0451_0A_A71EV2A-x0310_0A_A71EV2A-x0416_0A_peptide

> <ROCS_TanimotoCombo>
0.422 

> <ROCS_ShapeTanimoto>
0.286 

> <ROCS_ColorTanimoto>
0.135 

> <ROCS_RefTversky>
0.256 

> <ROCS_RefColorTversky>
0.144 

> <ROCS_RefTverskyCombo>
0.400 

> <ROCS_FitTversky>
1.706 

> <ROCS_FitColorTversky>
0.691 

> <ROCS_FitTverskyCombo>
2.397 

> <ROCS_ColorScore>
-4.380

> <ROCS_Overlap>
1774.654

> <ROCS_Rank>
334                 

$$$$
untitled-dbase-951_14
  -OEChem-11112315393D

 21 21  0     0  0  0  0  0  0999 V2000
    7.5219   11.1320   24.1801 C   0  0  0  0  0  0  0  0  0  0  0  0
    8.0884    9.8807   23.9376 C   0  0  0  0  0  0  0  0  0  0  0  0
    8.2952   12.2853   24.0473 C   0  0  0  0  0  0  0  0  0  0  0  0
    9.4283    9.7826   23.5623 C   0  0  0  0  0  0  0  0  0  0  0  0
    9.6350   12.1872   23.6720 C   0  0  0  0  0  0  0  0  0  0  0  0
   10.2016   10.9359   23.4295 C   0  0  0  0  0  0  0  0  0  0  0  0
   10.4041   13.4194   23.5460 C   0  0  0  0  0  0  0  0  0  0  0  0
   11.7757   14.7778   21.9762 C   0  0  0  0  0  0  0  0  0  0  0  0
   12.2208   14.7853   20.5357 C   0  0  0  0  0  0  0  0  0  0  0  0
   10.9825   13.6752   22.2905 N   0  0  0  0  0  0  0  0  0  0  0  0
   10.5462   14.1698   24.5247 O   0  0  0  0  0  0  0  0  0  0  0  0
   12.0819   15.6820   22.7510 O   0  0  0  0  0  0  0  0  0  0  0  0
   11.8561   10.7706   22.9630 Cl  0  0  0  0  0  0  0  0  0  0  0  0
   13.8091   15.5640   20.4643 Cl  0  0  0  0  0  0  0  0  0  0  0  0
    6.4786   11.2081   24.4725 H   0  0  0  0  0  0  0  0  0  0  0  0
    7.4861    8.9828   24.0410 H   0  0  0  0  0  0  0  0  0  0  0  0
    7.8414   13.2543   24.2393 H   0  0  0  0  0  0  0  0  0  0  0  0
    9.8544    8.7998   23.3770 H   0  0  0  0  0  0  0  0  0  0  0  0
   12.3097   13.7560   20.1772 H   0  0  0  0  0  0  0  0  0  0  0  0
   11.5319   15.3299   19.8850 H   0  0  0  0  0  0  0  0  0  0  0  0
   10.8159   12.9962   21.5532 H   0  0  0  0  0  0  0  0  0  0  0  0
  1  2  1  0  0  0  0
  1  3  2  0  0  0  0
  2  4  2  0  0  0  0
  3  5  1  0  0  0  0
  4  6  1  0  0  0  0
  5  6  2  0  0  0  0
  5  7  1  0  0  0  0
  6 13  1  0  0  0  0
  7 10  1  0  0  0  0
  7 11  2  0  0  0  0
  8  9  1  0  0  0  0
  8 10  1  0  0  0  0
  8 12  2  0  0  0  0
  9 14  1  0  0  0  0
  1 15  1  0  0  0  0
  2 16  1  0  0  0  0
  3 17  1  0  0  0  0
  4 18  1  0  0  0  0
  9 19  1  0  0  0  0
  9 20  1  0  0  0  0
 10 21  1  0  0  0  0
M  END
> <Catalog ID>
Z56919248

> <MW>
230.985

> <MW (desalted)>
232.063

> <ClogP>
1.369

> <logS>
-3.31

> <HBD>
1

> <HBA>
2

> <TPSA>
46.17

> <RotBonds>
2

> <ROCS_ShapeQuery>
A71EV2A-x0451_0A_A71EV2A-x0310_0A_A71EV2A-x0416_0A_peptide

> <ROCS_TanimotoCombo>
0.422 

> <ROCS_ShapeTanimoto>
0.262 

> <ROCS_ColorTanimoto>
0.160 

> <ROCS_RefTversky>
0.236 

> <ROCS_RefColorTversky>
0.162 

> <ROCS_RefTverskyCombo>
0.398 

> <ROCS_FitTversky>
1.763 

> <ROCS_FitColorTversky>
0.912 

> <ROCS_FitTverskyCombo>
2.675 

> <ROCS_ColorScore>
-4.914

> <ROCS_Overlap>
1631.030

> <ROCS_Rank>
335                 

$$$$
untitled-dbase-466_57
  -OEChem-11112315393D

 24 24  0     0  0  0  0  0  0999 V2000
    9.2655   11.1100   23.9292 C   0  0  0  0  0  0  0  0  0  0  0  0
    8.3829   11.7269   24.8326 C   0  0  0  0  0  0  0  0  0  0  0  0
    8.5894    9.9883   23.5279 C   0  0  0  0  0  0  0  0  0  0  0  0
   10.5962   13.9915   22.9850 C   0  0  0  0  0  0  0  0  0  0  0  0
    8.5803   12.9783   25.5834 C   0  0  0  0  0  0  0  0  0  0  0  0
    8.8971    8.8876   22.6054 C   0  0  0  0  0  0  0  0  0  0  0  0
   10.6297   11.5676   23.5006 C   0  0  0  0  0  0  0  0  0  0  0  0
   10.5337   14.9700   21.8401 C   0  0  0  0  0  0  0  0  0  0  0  0
    7.2464   11.0403   24.9804 N   0  0  0  0  0  0  0  0  0  0  0  0
   10.5623   12.6707   22.5708 N   0  0  0  0  0  0  0  0  0  0  0  0
   10.6846   14.3648   24.1534 O   0  0  0  0  0  0  0  0  0  0  0  0
    7.3830    9.9356   24.1484 O   0  0  0  0  0  0  0  0  0  0  0  0
   12.1927   15.3111   21.3242 Cl  0  0  0  0  0  0  0  0  0  0  0  0
    8.2129   13.8493   25.0141 H   0  0  0  0  0  0  0  0  0  0  0  0
    8.0535   12.9698   26.5544 H   0  0  0  0  0  0  0  0  0  0  0  0
    9.6442   13.1600   25.8191 H   0  0  0  0  0  0  0  0  0  0  0  0
    9.4030    8.0538   23.1249 H   0  0  0  0  0  0  0  0  0  0  0  0
    7.9901    8.4743   22.1256 H   0  0  0  0  0  0  0  0  0  0  0  0
    9.5552    9.2057   21.7751 H   0  0  0  0  0  0  0  0  0  0  0  0
   11.2178   11.8915   24.3661 H   0  0  0  0  0  0  0  0  0  0  0  0
   11.1827   10.7555   23.0171 H   0  0  0  0  0  0  0  0  0  0  0  0
    9.9742   14.5814   20.9856 H   0  0  0  0  0  0  0  0  0  0  0  0
   10.0665   15.8982   22.1806 H   0  0  0  0  0  0  0  0  0  0  0  0
   10.4875   12.4705   21.5781 H   0  0  0  0  0  0  0  0  0  0  0  0
  1  2  1  0  0  0  0
  1  3  2  0  0  0  0
  1  7  1  0  0  0  0
  2  5  1  0  0  0  0
  2  9  2  0  0  0  0
  3  6  1  0  0  0  0
  3 12  1  0  0  0  0
  4  8  1  0  0  0  0
  4 10  1  0  0  0  0
  4 11  2  0  0  0  0
  7 10  1  0  0  0  0
  8 13  1  0  0  0  0
  9 12  1  0  0  0  0
  5 14  1  0  0  0  0
  5 15  1  0  0  0  0
  5 16  1  0  0  0  0
  6 17  1  0  0  0  0
  6 18  1  0  0  0  0
  6 19  1  0  0  0  0
  7 20  1  0  0  0  0
  7 21  1  0  0  0  0
  8 22  1  0  0  0  0
  8 23  1  0  0  0  0
 10 24  1  0  0  0  0
M  END
> <Catalog ID>
Z1138459452

> <MW>
202.051

> <MW (desalted)>
202.638

> <ClogP>
-0.02

> <logS>
-0.722

> <HBD>
1

> <HBA>
2

> <TPSA>
55.13

> <RotBonds>
3

> <ROCS_ShapeQuery>
A71EV2A-x0451_0A_A71EV2A-x0310_0A_A71EV2A-x0416_0A_peptide

> <ROCS_TanimotoCombo>
0.422 

> <ROCS_ShapeTanimoto>
0.264 

> <ROCS_ColorTanimoto>
0.158 

> <ROCS_RefTversky>
0.236 

> <ROCS_RefColorTversky>
0.160 

> <ROCS_RefTverskyCombo>
0.396 

> <ROCS_FitTversky>
1.841 

> <ROCS_FitColorTversky>
0.904 

> <ROCS_FitTverskyCombo>
2.745 

> <ROCS_ColorScore>
-4.866

> <ROCS_Overlap>
1630.957

> <ROCS_Rank>
336                 

$$$$
untitled-dbase-683_4
  -OEChem-11112315393D

 23 23  0     0  0  0  0  0  0999 V2000
    6.7374   10.8760   25.5421 C   0  0  0  0  0  0  0  0  0  0  0  0
    7.3458   12.1241   25.6750 C   0  0  0  0  0  0  0  0  0  0  0  0
    7.2687    9.9309   24.6644 C   0  0  0  0  0  0  0  0  0  0  0  0
    8.4856   12.4272   24.9302 C   0  0  0  0  0  0  0  0  0  0  0  0
    8.4085   10.2340   23.9196 C   0  0  0  0  0  0  0  0  0  0  0  0
    9.0169   11.4821   24.0525 C   0  0  0  0  0  0  0  0  0  0  0  0
    8.9380    9.2242   23.0117 C   0  0  0  0  0  0  0  0  0  0  0  0
   10.8443   13.0152   23.3644 C   0  0  0  0  0  0  0  0  0  0  0  0
   12.0339   13.0204   22.4327 C   0  0  0  0  0  0  0  0  0  0  0  0
    8.2695    8.0071   22.9410 N   0  0  0  0  0  0  0  0  0  0  0  0
   10.1585   11.8085   23.3151 N   0  0  0  0  0  0  0  0  0  0  0  0
    9.9592    9.4350   22.3373 O   0  0  0  0  0  0  0  0  0  0  0  0
   10.5786   14.0110   24.0322 O   0  0  0  0  0  0  0  0  0  0  0  0
   12.2940   14.6884   21.8982 Cl  0  0  0  0  0  0  0  0  0  0  0  0
    5.8496   10.6404   26.1219 H   0  0  0  0  0  0  0  0  0  0  0  0
    6.9318   12.8594   26.3587 H   0  0  0  0  0  0  0  0  0  0  0  0
    6.7854    8.9618   24.5700 H   0  0  0  0  0  0  0  0  0  0  0  0
    8.9505   13.4034   25.0429 H   0  0  0  0  0  0  0  0  0  0  0  0
   11.8864   12.3873   21.5541 H   0  0  0  0  0  0  0  0  0  0  0  0
   12.9205   12.6754   22.9722 H   0  0  0  0  0  0  0  0  0  0  0  0
    8.6154    7.2857   22.3177 H   0  0  0  0  0  0  0  0  0  0  0  0
    7.4423    7.8261   23.5006 H   0  0  0  0  0  0  0  0  0  0  0  0
   10.5201   11.0971   22.6844 H   0  0  0  0  0  0  0  0  0  0  0  0
  1  2  1  0  0  0  0
  1  3  2  0  0  0  0
  2  4  2  0  0  0  0
  3  5  1  0  0  0  0
  4  6  1  0  0  0  0
  5  6  2  0  0  0  0
  5  7  1  0  0  0  0
  6 11  1  0  0  0  0
  7 10  1  0  0  0  0
  7 12  2  0  0  0  0
  8  9  1  0  0  0  0
  8 11  1  0  0  0  0
  8 13  2  0  0  0  0
  9 14  1  0  0  0  0
  1 15  1  0  0  0  0
  2 16  1  0  0  0  0
  3 17  1  0  0  0  0
  4 18  1  0  0  0  0
  9 19  1  0  0  0  0
  9 20  1  0  0  0  0
 10 21  1  0  0  0  0
 10 22  1  0  0  0  0
 11 23  1  0  0  0  0
M  END
> <Catalog ID>
Z56862614

> <MW>
212.035

> <MW (desalted)>
212.633

> <ClogP>
0.881

> <logS>
-2.38

> <HBD>
2

> <HBA>
2

> <TPSA>
72.19

> <RotBonds>
3

> <ROCS_ShapeQuery>
A71EV2A-x0451_0A_A71EV2A-x0310_0A_A71EV2A-x0416_0A_peptide

> <ROCS_TanimotoCombo>
0.422 

> <ROCS_ShapeTanimoto>
0.291 

> <ROCS_ColorTanimoto>
0.130 

> <ROCS_RefTversky>
0.256 

> <ROCS_RefColorTversky>
0.139 

> <ROCS_RefTverskyCombo>
0.395 

> <ROCS_FitTversky>
1.890 

> <ROCS_FitColorTversky>
0.668 

> <ROCS_FitTverskyCombo>
2.558 

> <ROCS_ColorScore>
-4.232

> <ROCS_Overlap>
1774.211

> <ROCS_Rank>
337                 

$$$$
untitled-dbase-744_101
  -OEChem-11112315393D

 27 27  0     0  0  0  0  0  0999 V2000
    5.9175   11.3465   25.2919 C   0  0  0  0  0  0  0  0  0  0  0  0
    6.5878   10.1263   25.3787 C   0  0  0  0  0  0  0  0  0  0  0  0
    6.5822   12.4747   24.8112 C   0  0  0  0  0  0  0  0  0  0  0  0
    7.9227   10.0343   24.9850 C   0  0  0  0  0  0  0  0  0  0  0  0
    7.9172   12.3827   24.4175 C   0  0  0  0  0  0  0  0  0  0  0  0
    8.5875   11.1626   24.5043 C   0  0  0  0  0  0  0  0  0  0  0  0
   12.4496   15.0775   19.7318 C   0  0  0  0  0  0  0  0  0  0  0  0
   11.6318   15.7301   20.5633 C   0  0  0  0  0  0  0  0  0  0  0  0
   11.4959   15.2961   21.9798 C   0  0  0  0  0  0  0  0  0  0  0  0
   10.8050   13.2984   23.2775 C   0  0  0  0  0  0  0  0  0  0  0  0
   10.0245   11.0643   24.0805 C   0  0  0  0  0  0  0  0  0  0  0  0
   11.0333   13.9857   22.0753 N   0  0  0  0  0  0  0  0  0  0  0  0
   10.3447   12.0060   23.0324 N   0  0  0  0  0  0  0  0  0  0  0  0
   11.7677   16.0312   22.9233 O   0  0  0  0  0  0  0  0  0  0  0  0
   10.9869   13.7733   24.3974 O   0  0  0  0  0  0  0  0  0  0  0  0
    4.8777   11.4176   25.5972 H   0  0  0  0  0  0  0  0  0  0  0  0
    6.0701    9.2475   25.7519 H   0  0  0  0  0  0  0  0  0  0  0  0
    6.0604   13.4246   24.7424 H   0  0  0  0  0  0  0  0  0  0  0  0
    8.4370    9.0795   25.0563 H   0  0  0  0  0  0  0  0  0  0  0  0
    8.4270   13.2670   24.0443 H   0  0  0  0  0  0  0  0  0  0  0  0
   12.5429   15.3993   18.6999 H   0  0  0  0  0  0  0  0  0  0  0  0
   13.0387   14.2220   20.0431 H   0  0  0  0  0  0  0  0  0  0  0  0
   11.0598   16.5813   20.2108 H   0  0  0  0  0  0  0  0  0  0  0  0
   10.6910   11.2623   24.9270 H   0  0  0  0  0  0  0  0  0  0  0  0
   10.2574   10.0601   23.7111 H   0  0  0  0  0  0  0  0  0  0  0  0
   10.8469   13.4892   21.2079 H   0  0  0  0  0  0  0  0  0  0  0  0
   10.2284   11.7110   22.0681 H   0  0  0  0  0  0  0  0  0  0  0  0
  1  2  1  0  0  0  0
  1  3  2  0  0  0  0
  2  4  2  0  0  0  0
  3  5  1  0  0  0  0
  4  6  1  0  0  0  0
  5  6  2  0  0  0  0
  6 11  1  0  0  0  0
  7  8  2  0  0  0  0
  8  9  1  0  0  0  0
  9 12  1  0  0  0  0
  9 14  2  0  0  0  0
 10 12  1  0  0  0  0
 10 13  1  0  0  0  0
 10 15  2  0  0  0  0
 11 13  1  0  0  0  0
  1 16  1  0  0  0  0
  2 17  1  0  0  0  0
  3 18  1  0  0  0  0
  4 19  1  0  0  0  0
  5 20  1  0  0  0  0
  7 21  1  0  0  0  0
  7 22  1  0  0  0  0
  8 23  1  0  0  0  0
 11 24  1  0  0  0  0
 11 25  1  0  0  0  0
 12 26  1  0  0  0  0
 13 27  1  0  0  0  0
M  END
> <Catalog ID>
Z295390652

> <MW>
204.09

> <MW (desalted)>
204.225

> <ClogP>
2.265

> <logS>
-2.43

> <HBD>
2

> <HBA>
2

> <TPSA>
58.2

> <RotBonds>
3

> <ROCS_ShapeQuery>
A71EV2A-x0451_0A_A71EV2A-x0310_0A_A71EV2A-x0416_0A_peptide

> <ROCS_TanimotoCombo>
0.421 

> <ROCS_ShapeTanimoto>
0.264 

> <ROCS_ColorTanimoto>
0.157 

> <ROCS_RefTversky>
0.239 

> <ROCS_RefColorTversky>
0.168 

> <ROCS_RefTverskyCombo>
0.407 

> <ROCS_FitTversky>
1.692 

> <ROCS_FitColorTversky>
0.701 

> <ROCS_FitTverskyCombo>
2.393 

> <ROCS_ColorScore>
-5.117

> <ROCS_Overlap>
1653.419

> <ROCS_Rank>
338                 

$$$$
untitled-dbase-451_57
  -OEChem-11112315393D

 40 42  0     0  0  0  0  0  0999 V2000
    5.2420   13.5151   28.4060 C   0  0  0  0  0  0  0  0  0  0  0  0
    4.7922   12.3071   27.8731 C   0  0  0  0  0  0  0  0  0  0  0  0
    6.4254   14.0863   27.9380 C   0  0  0  0  0  0  0  0  0  0  0  0
    5.5259   11.6701   26.8723 C   0  0  0  0  0  0  0  0  0  0  0  0
    7.1591   13.4493   26.9372 C   0  0  0  0  0  0  0  0  0  0  0  0
    8.8779   10.3573   23.4442 C   0  0  0  0  0  0  0  0  0  0  0  0
    7.7018    9.8330   23.9404 C   0  0  0  0  0  0  0  0  0  0  0  0
    6.7094   12.2412   26.4043 C   0  0  0  0  0  0  0  0  0  0  0  0
    9.2811   11.5529   24.0028 C   0  0  0  0  0  0  0  0  0  0  0  0
    7.4662   11.5836   25.3712 C   0  0  0  0  0  0  0  0  0  0  0  0
   13.0764   15.6013   20.1609 C   0  0  0  0  0  0  0  0  0  0  0  0
   12.0305   16.1065   20.8183 C   0  0  0  0  0  0  0  0  0  0  0  0
   11.8985   15.8359   22.2641 C   0  0  0  0  0  0  0  0  0  0  0  0
   11.3028   12.9394   24.4028 C   0  0  0  0  0  0  0  0  0  0  0  0
   10.7132   12.3261   22.1029 C   0  0  0  0  0  0  0  0  0  0  0  0
   11.0389   14.4120   24.0832 C   0  0  0  0  0  0  0  0  0  0  0  0
   10.4570   13.7916   21.7460 C   0  0  0  0  0  0  0  0  0  0  0  0
    6.9678   10.4217   24.9074 N   0  0  0  0  0  0  0  0  0  0  0  0
    8.5970   12.1962   24.9716 N   0  0  0  0  0  0  0  0  0  0  0  0
   10.4618   12.1144   23.5296 N   0  0  0  0  0  0  0  0  0  0  0  0
   11.1913   14.6984   22.6492 N   0  0  0  0  0  0  0  0  0  0  0  0
   12.4168   16.6373   23.0436 O   0  0  0  0  0  0  0  0  0  0  0  0
    4.6697   14.0118   29.1840 H   0  0  0  0  0  0  0  0  0  0  0  0
    3.8700   11.8631   28.2362 H   0  0  0  0  0  0  0  0  0  0  0  0
    6.7755   15.0276   28.3514 H   0  0  0  0  0  0  0  0  0  0  0  0
    5.1619   10.7289   26.4668 H   0  0  0  0  0  0  0  0  0  0  0  0
    8.0795   13.9068   26.5819 H   0  0  0  0  0  0  0  0  0  0  0  0
    9.4374    9.8522   22.6668 H   0  0  0  0  0  0  0  0  0  0  0  0
    7.3052    8.8966   23.5629 H   0  0  0  0  0  0  0  0  0  0  0  0
   13.2277   15.7653   19.0992 H   0  0  0  0  0  0  0  0  0  0  0  0
   13.8128   15.0032   20.6871 H   0  0  0  0  0  0  0  0  0  0  0  0
   11.2758   16.7078   20.3286 H   0  0  0  0  0  0  0  0  0  0  0  0
   12.3530   12.7193   24.2280 H   0  0  0  0  0  0  0  0  0  0  0  0
   11.0695   12.7350   25.4451 H   0  0  0  0  0  0  0  0  0  0  0  0
   10.0607   11.6967   21.4927 H   0  0  0  0  0  0  0  0  0  0  0  0
   11.7462   12.0551   21.8745 H   0  0  0  0  0  0  0  0  0  0  0  0
   10.0284   14.6701   24.3973 H   0  0  0  0  0  0  0  0  0  0  0  0
   11.7426   15.0508   24.6191 H   0  0  0  0  0  0  0  0  0  0  0  0
   10.7544   13.9801   20.7126 H   0  0  0  0  0  0  0  0  0  0  0  0
    9.3950   14.0365   21.8340 H   0  0  0  0  0  0  0  0  0  0  0  0
  1  2  1  0  0  0  0
  1  3  2  0  0  0  0
  2  4  2  0  0  0  0
  3  5  1  0  0  0  0
  4  8  1  0  0  0  0
  5  8  2  0  0  0  0
  6  7  2  0  0  0  0
  6  9  1  0  0  0  0
  7 18  1  0  0  0  0
  8 10  1  0  0  0  0
  9 19  2  0  0  0  0
  9 20  1  0  0  0  0
 10 18  2  0  0  0  0
 10 19  1  0  0  0  0
 11 12  2  0  0  0  0
 12 13  1  0  0  0  0
 13 21  1  0  0  0  0
 13 22  2  0  0  0  0
 14 16  1  0  0  0  0
 14 20  1  0  0  0  0
 15 17  1  0  0  0  0
 15 20  1  0  0  0  0
 16 21  1  0  0  0  0
 17 21  1  0  0  0  0
  1 23  1  0  0  0  0
  2 24  1  0  0  0  0
  3 25  1  0  0  0  0
  4 26  1  0  0  0  0
  5 27  1  0  0  0  0
  6 28  1  0  0  0  0
  7 29  1  0  0  0  0
 11 30  1  0  0  0  0
 11 31  1  0  0  0  0
 12 32  1  0  0  0  0
 14 33  1  0  0  0  0
 14 34  1  0  0  0  0
 15 35  1  0  0  0  0
 15 36  1  0  0  0  0
 16 37  1  0  0  0  0
 16 38  1  0  0  0  0
 17 39  1  0  0  0  0
 17 40  1  0  0  0  0
M  END
> <Catalog ID>
Z2517277101

> <MW>
294.351

> <MW (desalted)>
294.351

> <ClogP>
2.309

> <logS>
-4.266

> <HBD>
0

> <HBA>
4

> <TPSA>
49.33

> <RotBonds>
3

> <ROCS_ShapeQuery>
A71EV2A-x0451_0A_A71EV2A-x0310_0A_A71EV2A-x0416_0A_peptide

> <ROCS_TanimotoCombo>
0.421 

> <ROCS_ShapeTanimoto>
0.331 

> <ROCS_ColorTanimoto>
0.090 

> <ROCS_RefTversky>
0.296 

> <ROCS_RefColorTversky>
0.105 

> <ROCS_RefTverskyCombo>
0.401 

> <ROCS_FitTversky>
1.561 

> <ROCS_FitColorTversky>
0.388 

> <ROCS_FitTverskyCombo>
1.949 

> <ROCS_ColorScore>
-3.200

> <ROCS_Overlap>
2056.147

> <ROCS_Rank>
339                 

$$$$
untitled-dbase-190_5
  -OEChem-11112315393D

 25 25  0     0  0  0  0  0  0999 V2000
    7.4372   10.1522   24.8035 C   0  0  0  0  0  0  0  0  0  0  0  0
    8.4639   12.2715   24.2635 C   0  0  0  0  0  0  0  0  0  0  0  0
    9.3240   10.2314   23.2965 C   0  0  0  0  0  0  0  0  0  0  0  0
    7.4927   11.5387   24.9458 C   0  0  0  0  0  0  0  0  0  0  0  0
    8.3529    9.4985   23.9789 C   0  0  0  0  0  0  0  0  0  0  0  0
    9.3795   11.6178   23.4388 C   0  0  0  0  0  0  0  0  0  0  0  0
   10.9242   13.5440   23.1809 C   0  0  0  0  0  0  0  0  0  0  0  0
    6.5138   12.2374   25.8276 C   0  0  0  0  0  0  0  0  0  0  0  0
    8.2933    8.0161   23.8267 C   0  0  0  0  0  0  0  0  0  0  0  0
   11.9425   14.0604   22.1910 C   0  0  0  0  0  0  0  0  0  0  0  0
   10.3509   12.3509   22.7563 N   0  0  0  0  0  0  0  0  0  0  0  0
   10.6801   14.1788   24.2034 O   0  0  0  0  0  0  0  0  0  0  0  0
   11.0966   15.1130   21.0455 Cl  0  0  0  0  0  0  0  0  0  0  0  0
    6.6802    9.5807   25.3353 H   0  0  0  0  0  0  0  0  0  0  0  0
    8.5054   13.3527   24.3760 H   0  0  0  0  0  0  0  0  0  0  0  0
   10.0369    9.7196   22.6538 H   0  0  0  0  0  0  0  0  0  0  0  0
    6.9040   12.3089   26.8502 H   0  0  0  0  0  0  0  0  0  0  0  0
    6.3030   13.2515   25.4640 H   0  0  0  0  0  0  0  0  0  0  0  0
    5.5541   11.7051   25.8578 H   0  0  0  0  0  0  0  0  0  0  0  0
    7.6373    7.7441   22.9908 H   0  0  0  0  0  0  0  0  0  0  0  0
    9.2893    7.5945   23.6387 H   0  0  0  0  0  0  0  0  0  0  0  0
    7.9126    7.5370   24.7381 H   0  0  0  0  0  0  0  0  0  0  0  0
   12.4369   13.2595   21.6355 H   0  0  0  0  0  0  0  0  0  0  0  0
   12.7011   14.6442   22.7200 H   0  0  0  0  0  0  0  0  0  0  0  0
   10.6693   11.9772   21.8642 H   0  0  0  0  0  0  0  0  0  0  0  0
  1  4  2  0  0  0  0
  1  5  1  0  0  0  0
  2  4  1  0  0  0  0
  2  6  2  0  0  0  0
  3  5  2  0  0  0  0
  3  6  1  0  0  0  0
  4  8  1  0  0  0  0
  5  9  1  0  0  0  0
  6 11  1  0  0  0  0
  7 10  1  0  0  0  0
  7 11  1  0  0  0  0
  7 12  2  0  0  0  0
 10 13  1  0  0  0  0
  1 14  1  0  0  0  0
  2 15  1  0  0  0  0
  3 16  1  0  0  0  0
  8 17  1  0  0  0  0
  8 18  1  0  0  0  0
  8 19  1  0  0  0  0
  9 20  1  0  0  0  0
  9 21  1  0  0  0  0
  9 22  1  0  0  0  0
 10 23  1  0  0  0  0
 10 24  1  0  0  0  0
 11 25  1  0  0  0  0
M  END
> <Catalog ID>
Z56862404

> <MW>
197.061

> <MW (desalted)>
197.661

> <ClogP>
2.772

> <logS>
-3.2

> <HBD>
1

> <HBA>
1

> <TPSA>
29.1

> <RotBonds>
2

> <ROCS_ShapeQuery>
A71EV2A-x0451_0A_A71EV2A-x0310_0A_A71EV2A-x0416_0A_peptide

> <ROCS_TanimotoCombo>
0.421 

> <ROCS_ShapeTanimoto>
0.281 

> <ROCS_ColorTanimoto>
0.140 

> <ROCS_RefTversky>
0.248 

> <ROCS_RefColorTversky>
0.141 

> <ROCS_RefTverskyCombo>
0.388 

> <ROCS_FitTversky>
1.939 

> <ROCS_FitColorTversky>
0.960 

> <ROCS_FitTverskyCombo>
2.899 

> <ROCS_ColorScore>
-4.257

> <ROCS_Overlap>
1713.907

> <ROCS_Rank>
340                 

$$$$
untitled-dbase-607_7
  -OEChem-11112315393D

 21 21  0     0  0  0  0  0  0999 V2000
    8.3438    9.5099   24.0005 C   0  0  0  0  0  0  0  0  0  0  0  0
    7.4465   10.1933   24.8135 C   0  0  0  0  0  0  0  0  0  0  0  0
    9.3195   10.2153   23.3049 C   0  0  0  0  0  0  0  0  0  0  0  0
    7.5660   11.5712   24.8962 C   0  0  0  0  0  0  0  0  0  0  0  0
    9.3550   11.5922   23.4550 C   0  0  0  0  0  0  0  0  0  0  0  0
   10.8982   13.5182   23.1875 C   0  0  0  0  0  0  0  0  0  0  0  0
    6.6364   12.3719   25.7494 C   0  0  0  0  0  0  0  0  0  0  0  0
   11.8953   14.0452   22.1816 C   0  0  0  0  0  0  0  0  0  0  0  0
    8.5004   12.2909   24.2356 N   0  0  0  0  0  0  0  0  0  0  0  0
   10.3307   12.3269   22.7647 N   0  0  0  0  0  0  0  0  0  0  0  0
   10.6680   14.1476   24.2165 O   0  0  0  0  0  0  0  0  0  0  0  0
    6.2415    9.3178   25.6743 Cl  0  0  0  0  0  0  0  0  0  0  0  0
   10.4246    9.3536   22.3021 Cl  0  0  0  0  0  0  0  0  0  0  0  0
   11.3712   13.5179   20.5745 Cl  0  0  0  0  0  0  0  0  0  0  0  0
    8.2815    8.4277   23.9085 H   0  0  0  0  0  0  0  0  0  0  0  0
    7.0427   12.4715   26.7623 H   0  0  0  0  0  0  0  0  0  0  0  0
    6.4827   13.3749   25.3335 H   0  0  0  0  0  0  0  0  0  0  0  0
    5.6498   11.8971   25.8127 H   0  0  0  0  0  0  0  0  0  0  0  0
   12.9097   13.6795   22.3596 H   0  0  0  0  0  0  0  0  0  0  0  0
   11.9027   15.1383   22.2146 H   0  0  0  0  0  0  0  0  0  0  0  0
   10.6491   11.9525   21.8767 H   0  0  0  0  0  0  0  0  0  0  0  0
  1  2  1  0  0  0  0
  1  3  2  0  0  0  0
  2  4  2  0  0  0  0
  2 12  1  0  0  0  0
  3  5  1  0  0  0  0
  3 13  1  0  0  0  0
  4  7  1  0  0  0  0
  4  9  1  0  0  0  0
  5  9  2  0  0  0  0
  5 10  1  0  0  0  0
  6  8  1  0  0  0  0
  6 10  1  0  0  0  0
  6 11  2  0  0  0  0
  8 14  1  0  0  0  0
  1 15  1  0  0  0  0
  7 16  1  0  0  0  0
  7 17  1  0  0  0  0
  7 18  1  0  0  0  0
  8 19  1  0  0  0  0
  8 20  1  0  0  0  0
 10 21  1  0  0  0  0
M  END
> <Catalog ID>
Z56886350

> <MW>
251.962

> <MW (desalted)>
253.513

> <ClogP>
2.336

> <logS>
-3.27

> <HBD>
1

> <HBA>
2

> <TPSA>
41.99

> <RotBonds>
2

> <ROCS_ShapeQuery>
A71EV2A-x0451_0A_A71EV2A-x0310_0A_A71EV2A-x0416_0A_peptide

> <ROCS_TanimotoCombo>
0.421 

> <ROCS_ShapeTanimoto>
0.284 

> <ROCS_ColorTanimoto>
0.137 

> <ROCS_RefTversky>
0.251 

> <ROCS_RefColorTversky>
0.142 

> <ROCS_RefTverskyCombo>
0.392 

> <ROCS_FitTversky>
1.887 

> <ROCS_FitColorTversky>
0.799 

> <ROCS_FitTverskyCombo>
2.686 

> <ROCS_ColorScore>
-4.304

> <ROCS_Overlap>
1734.981

> <ROCS_Rank>
341                 

$$$$
untitled-dbase-469_2
  -OEChem-11112315393D

 19 19  0     0  0  0  0  0  0999 V2000
    7.4984   11.5760   24.9497 C   0  0  0  0  0  0  0  0  0  0  0  0
    8.3202    9.5077   24.0099 C   0  0  0  0  0  0  0  0  0  0  0  0
    9.3811   11.6010   23.4359 C   0  0  0  0  0  0  0  0  0  0  0  0
    7.4186   10.1889   24.8277 C   0  0  0  0  0  0  0  0  0  0  0  0
    8.4796   12.2821   24.2537 C   0  0  0  0  0  0  0  0  0  0  0  0
    9.3014   10.2137   23.3140 C   0  0  0  0  0  0  0  0  0  0  0  0
   10.9203   13.5320   23.1812 C   0  0  0  0  0  0  0  0  0  0  0  0
   11.9367   14.0533   22.1920 C   0  0  0  0  0  0  0  0  0  0  0  0
   10.3522   12.3396   22.7530 N   0  0  0  0  0  0  0  0  0  0  0  0
   10.6746   14.1641   24.2050 O   0  0  0  0  0  0  0  0  0  0  0  0
    6.4763    9.5104   25.4958 F   0  0  0  0  0  0  0  0  0  0  0  0
    8.5454   13.6153   24.3800 F   0  0  0  0  0  0  0  0  0  0  0  0
   11.0874   15.1056   21.0488 Cl  0  0  0  0  0  0  0  0  0  0  0  0
   10.5038    9.2352   22.2180 Br  0  0  0  0  0  0  0  0  0  0  0  0
    6.7958   12.1071   25.5849 H   0  0  0  0  0  0  0  0  0  0  0  0
    8.2426    8.4266   23.9294 H   0  0  0  0  0  0  0  0  0  0  0  0
   12.4332   13.2549   21.6347 H   0  0  0  0  0  0  0  0  0  0  0  0
   12.6938   14.6382   22.7219 H   0  0  0  0  0  0  0  0  0  0  0  0
   10.6715   11.9697   21.8611 H   0  0  0  0  0  0  0  0  0  0  0  0
  1  4  1  0  0  0  0
  1  5  2  0  0  0  0
  2  4  2  0  0  0  0
  2  6  1  0  0  0  0
  3  5  1  0  0  0  0
  3  6  2  0  0  0  0
  3  9  1  0  0  0  0
  4 11  1  0  0  0  0
  5 12  1  0  0  0  0
  6 14  1  0  0  0  0
  7  8  1  0  0  0  0
  7  9  1  0  0  0  0
  7 10  2  0  0  0  0
  8 13  1  0  0  0  0
  1 15  1  0  0  0  0
  2 16  1  0  0  0  0
  8 17  1  0  0  0  0
  8 18  1  0  0  0  0
  9 19  1  0  0  0  0
M  END
> <Catalog ID>
Z199423552

> <MW>
282.921

> <MW (desalted)>
284.485

> <ClogP>
1.822

> <logS>
-3.85

> <HBD>
1

> <HBA>
1

> <TPSA>
29.1

> <RotBonds>
2

> <ROCS_ShapeQuery>
A71EV2A-x0451_0A_A71EV2A-x0310_0A_A71EV2A-x0416_0A_peptide

> <ROCS_TanimotoCombo>
0.421 

> <ROCS_ShapeTanimoto>
0.285 

> <ROCS_ColorTanimoto>
0.136 

> <ROCS_RefTversky>
0.252 

> <ROCS_RefColorTversky>
0.141 

> <ROCS_RefTverskyCombo>
0.392 

> <ROCS_FitTversky>
1.870 

> <ROCS_FitColorTversky>
0.792 

> <ROCS_FitTverskyCombo>
2.662 

> <ROCS_ColorScore>
-4.266

> <ROCS_Overlap>
1743.802

> <ROCS_Rank>
342                 

$$$$
untitled-dbase-218_256
  -OEChem-11112315393D

 40 41  0     0  0  0  0  0  0999 V2000
    7.5238   10.1043   24.2042 C   0  0  0  0  0  0  0  0  0  0  0  0
    8.6604    9.6815   23.5150 C   0  0  0  0  0  0  0  0  0  0  0  0
    8.5335   12.2736   24.5387 C   0  0  0  0  0  0  0  0  0  0  0  0
    7.4603   11.4004   24.7160 C   0  0  0  0  0  0  0  0  0  0  0  0
    9.7336   10.5547   23.3377 C   0  0  0  0  0  0  0  0  0  0  0  0
    9.6701   11.8508   23.8495 C   0  0  0  0  0  0  0  0  0  0  0  0
   13.2762   15.9040   19.7471 C   0  0  0  0  0  0  0  0  0  0  0  0
   13.2266   13.9122   21.2145 C   0  0  0  0  0  0  0  0  0  0  0  0
   11.3851   15.5486   21.4108 C   0  0  0  0  0  0  0  0  0  0  0  0
   12.2150   12.7730   21.1981 C   0  0  0  0  0  0  0  0  0  0  0  0
   10.3732   14.4078   21.3988 C   0  0  0  0  0  0  0  0  0  0  0  0
    6.2442   11.8523   25.4516 C   0  0  0  0  0  0  0  0  0  0  0  0
   10.9359   10.0706   22.5951 C   0  0  0  0  0  0  0  0  0  0  0  0
   12.4014   16.7012   18.8128 C   0  0  0  0  0  0  0  0  0  0  0  0
   12.6244   15.1557   20.7265 N   0  0  0  0  0  0  0  0  0  0  0  0
   10.9848   13.1627   21.9443 N   0  0  0  0  0  0  0  0  0  0  0  0
   14.5013   15.9441   19.6075 O   0  0  0  0  0  0  0  0  0  0  0  0
   10.6285   14.2363   24.2548 O   0  0  0  0  0  0  0  0  0  0  0  0
   12.2291   12.3044   24.0237 O   0  0  0  0  0  0  0  0  0  0  0  0
   11.0091   12.9821   23.6416 S   0  0  0  0  0  0  0  0  0  0  0  0
   11.3850   15.5425   17.9628 Cl  0  0  0  0  0  0  0  0  0  0  0  0
    6.6921    9.4174   24.3365 H   0  0  0  0  0  0  0  0  0  0  0  0
    8.6983    8.6704   23.1183 H   0  0  0  0  0  0  0  0  0  0  0  0
    8.4807   13.2834   24.9388 H   0  0  0  0  0  0  0  0  0  0  0  0
   13.5672   14.1061   22.2405 H   0  0  0  0  0  0  0  0  0  0  0  0
   14.1060   13.6256   20.6321 H   0  0  0  0  0  0  0  0  0  0  0  0
   10.9500   16.4384   20.9471 H   0  0  0  0  0  0  0  0  0  0  0  0
   11.6583   15.8101   22.4396 H   0  0  0  0  0  0  0  0  0  0  0  0
   11.9533   12.5012   20.1645 H   0  0  0  0  0  0  0  0  0  0  0  0
   12.6644   11.8909   21.6763 H   0  0  0  0  0  0  0  0  0  0  0  0
    9.5107   14.6915   22.0203 H   0  0  0  0  0  0  0  0  0  0  0  0
   10.0059   14.2258   20.3766 H   0  0  0  0  0  0  0  0  0  0  0  0
    6.3448   11.6396   26.5229 H   0  0  0  0  0  0  0  0  0  0  0  0
    6.0794   12.9302   25.3249 H   0  0  0  0  0  0  0  0  0  0  0  0
    5.3430   11.3475   25.0796 H   0  0  0  0  0  0  0  0  0  0  0  0
   10.8284   10.2758   21.5238 H   0  0  0  0  0  0  0  0  0  0  0  0
   11.8482   10.5612   22.9555 H   0  0  0  0  0  0  0  0  0  0  0  0
   11.0780    8.9915   22.7321 H   0  0  0  0  0  0  0  0  0  0  0  0
   13.0315   17.2311   18.1075 H   0  0  0  0  0  0  0  0  0  0  0  0
   11.7873   17.3768   19.3970 H   0  0  0  0  0  0  0  0  0  0  0  0
  1  2  2  0  0  0  0
  1  4  1  0  0  0  0
  2  5  1  0  0  0  0
  3  4  2  0  0  0  0
  3  6  1  0  0  0  0
  4 12  1  0  0  0  0
  5  6  2  0  0  0  0
  5 13  1  0  0  0  0
  6 20  1  0  0  0  0
  7 14  1  0  0  0  0
  7 15  1  0  0  0  0
  7 17  2  0  0  0  0
  8 10  1  0  0  0  0
  8 15  1  0  0  0  0
  9 11  1  0  0  0  0
  9 15  1  0  0  0  0
 10 16  1  0  0  0  0
 11 16  1  0  0  0  0
 14 21  1  0  0  0  0
 16 20  1  0  0  0  0
 18 20  2  0  0  0  0
 19 20  2  0  0  0  0
  1 22  1  0  0  0  0
  2 23  1  0  0  0  0
  3 24  1  0  0  0  0
  8 25  1  0  0  0  0
  8 26  1  0  0  0  0
  9 27  1  0  0  0  0
  9 28  1  0  0  0  0
 10 29  1  0  0  0  0
 10 30  1  0  0  0  0
 11 31  1  0  0  0  0
 11 32  1  0  0  0  0
 12 33  1  0  0  0  0
 12 34  1  0  0  0  0
 12 35  1  0  0  0  0
 13 36  1  0  0  0  0
 13 37  1  0  0  0  0
 13 38  1  0  0  0  0
 14 39  1  0  0  0  0
 14 40  1  0  0  0  0
M  END
> <Catalog ID>
Z147647422

> <MW>
330.08

> <MW (desalted)>
330.83

> <ClogP>
2.475

> <logS>
-3.55

> <HBD>
0

> <HBA>
3

> <TPSA>
57.69

> <RotBonds>
2

> <ROCS_ShapeQuery>
A71EV2A-x0451_0A_A71EV2A-x0310_0A_A71EV2A-x0416_0A_peptide

> <ROCS_TanimotoCombo>
0.421 

> <ROCS_ShapeTanimoto>
0.320 

> <ROCS_ColorTanimoto>
0.101 

> <ROCS_RefTversky>
0.284 

> <ROCS_RefColorTversky>
0.111 

> <ROCS_RefTverskyCombo>
0.395 

> <ROCS_FitTversky>
1.632 

> <ROCS_FitColorTversky>
0.532 

> <ROCS_FitTverskyCombo>
2.164 

> <ROCS_ColorScore>
-3.372

> <ROCS_Overlap>
1974.324

> <ROCS_Rank>
343                 

$$$$
untitled-dbase-596_44
  -OEChem-11112315393D

 25 26  0     0  0  0  0  0  0999 V2000
    7.5832   16.0050   25.5123 C   0  0  0  0  0  0  0  0  0  0  0  0
    7.8916   15.0535   26.4845 C   0  0  0  0  0  0  0  0  0  0  0  0
    7.5025   15.6308   24.1710 C   0  0  0  0  0  0  0  0  0  0  0  0
    8.1195   13.7279   26.1153 C   0  0  0  0  0  0  0  0  0  0  0  0
    7.7304   14.3051   23.8018 C   0  0  0  0  0  0  0  0  0  0  0  0
    7.6173   10.8014   24.7606 C   0  0  0  0  0  0  0  0  0  0  0  0
    8.0389   13.3536   24.7740 C   0  0  0  0  0  0  0  0  0  0  0  0
    8.2737   11.9889   24.3936 C   0  0  0  0  0  0  0  0  0  0  0  0
    9.2566   11.5667   23.5382 C   0  0  0  0  0  0  0  0  0  0  0  0
   10.8703   13.4255   23.2162 C   0  0  0  0  0  0  0  0  0  0  0  0
   11.8983   13.8766   22.2047 C   0  0  0  0  0  0  0  0  0  0  0  0
    8.1523    9.7250   24.1774 N   0  0  0  0  0  0  0  0  0  0  0  0
   10.2292   12.2308   22.8423 N   0  0  0  0  0  0  0  0  0  0  0  0
   10.6595   14.0960   24.2232 O   0  0  0  0  0  0  0  0  0  0  0  0
    9.1945   10.2175   23.4011 O   0  0  0  0  0  0  0  0  0  0  0  0
   11.0822   14.9297   21.0382 Cl  0  0  0  0  0  0  0  0  0  0  0  0
    7.4047   17.0371   25.7996 H   0  0  0  0  0  0  0  0  0  0  0  0
    7.9533   15.3444   27.5290 H   0  0  0  0  0  0  0  0  0  0  0  0
    7.2611   16.3716   23.4144 H   0  0  0  0  0  0  0  0  0  0  0  0
    8.3590   12.9978   26.8850 H   0  0  0  0  0  0  0  0  0  0  0  0
    7.6637   14.0295   22.7519 H   0  0  0  0  0  0  0  0  0  0  0  0
    6.7756   10.6684   25.4246 H   0  0  0  0  0  0  0  0  0  0  0  0
   12.3571   13.0431   21.6668 H   0  0  0  0  0  0  0  0  0  0  0  0
   12.6831   14.4451   22.7117 H   0  0  0  0  0  0  0  0  0  0  0  0
   10.5235   11.8109   21.9485 H   0  0  0  0  0  0  0  0  0  0  0  0
  1  2  1  0  0  0  0
  1  3  2  0  0  0  0
  2  4  2  0  0  0  0
  3  5  1  0  0  0  0
  4  7  1  0  0  0  0
  5  7  2  0  0  0  0
  6  8  1  0  0  0  0
  6 12  2  0  0  0  0
  7  8  1  0  0  0  0
  8  9  2  0  0  0  0
  9 13  1  0  0  0  0
  9 15  1  0  0  0  0
 10 11  1  0  0  0  0
 10 13  1  0  0  0  0
 10 14  2  0  0  0  0
 11 16  1  0  0  0  0
 12 15  1  0  0  0  0
  1 17  1  0  0  0  0
  2 18  1  0  0  0  0
  3 19  1  0  0  0  0
  4 20  1  0  0  0  0
  5 21  1  0  0  0  0
  6 22  1  0  0  0  0
 11 23  1  0  0  0  0
 11 24  1  0  0  0  0
 13 25  1  0  0  0  0
M  END
> <Catalog ID>
Z2044764779

> <MW>
236.035

> <MW (desalted)>
236.654

> <ClogP>
1.416

> <logS>
-3.49

> <HBD>
1

> <HBA>
2

> <TPSA>
55.13

> <RotBonds>
3

> <ROCS_ShapeQuery>
A71EV2A-x0451_0A_A71EV2A-x0310_0A_A71EV2A-x0416_0A_peptide

> <ROCS_TanimotoCombo>
0.421 

> <ROCS_ShapeTanimoto>
0.251 

> <ROCS_ColorTanimoto>
0.169 

> <ROCS_RefTversky>
0.231 

> <ROCS_RefColorTversky>
0.175 

> <ROCS_RefTverskyCombo>
0.406 

> <ROCS_FitTversky>
1.538 

> <ROCS_FitColorTversky>
0.839 

> <ROCS_FitTverskyCombo>
2.377 

> <ROCS_ColorScore>
-5.317

> <ROCS_Overlap>
1601.936

> <ROCS_Rank>
344                 

$$$$
untitled-dbase-230_4
  -OEChem-11112315393D

 23 23  0     0  0  0  0  0  0999 V2000
    7.3878   10.1698   24.8288 C   0  0  0  0  0  0  0  0  0  0  0  0
    7.4460   11.5587   24.9426 C   0  0  0  0  0  0  0  0  0  0  0  0
    8.3138    9.4958   24.0325 C   0  0  0  0  0  0  0  0  0  0  0  0
    8.4301   12.2738   24.2601 C   0  0  0  0  0  0  0  0  0  0  0  0
    9.2979   10.2108   23.3500 C   0  0  0  0  0  0  0  0  0  0  0  0
    9.3560   11.5998   23.4637 C   0  0  0  0  0  0  0  0  0  0  0  0
   11.7824   15.1831   21.5542 C   0  0  0  0  0  0  0  0  0  0  0  0
   11.9289   14.0082   22.1745 C   0  0  0  0  0  0  0  0  0  0  0  0
   10.9209   13.5459   23.1723 C   0  0  0  0  0  0  0  0  0  0  0  0
   10.2765    9.4626   22.5042 C   0  0  0  0  0  0  0  0  0  0  0  0
   10.3341   12.3338   22.7878 N   0  0  0  0  0  0  0  0  0  0  0  0
   10.6835   14.1959   24.1835 O   0  0  0  0  0  0  0  0  0  0  0  0
   10.0765    8.1125   22.5050 F   0  0  0  0  0  0  0  0  0  0  0  0
   10.2502    9.8281   21.1896 F   0  0  0  0  0  0  0  0  0  0  0  0
   11.5652    9.6445   22.9117 F   0  0  0  0  0  0  0  0  0  0  0  0
    6.6214    9.6129   25.3596 H   0  0  0  0  0  0  0  0  0  0  0  0
    6.7244   12.0836   25.5621 H   0  0  0  0  0  0  0  0  0  0  0  0
    8.2596    8.4135   23.9502 H   0  0  0  0  0  0  0  0  0  0  0  0
    8.4651   13.3558   24.3572 H   0  0  0  0  0  0  0  0  0  0  0  0
   12.4939   15.5518   20.8238 H   0  0  0  0  0  0  0  0  0  0  0  0
   10.9247   15.8098   21.7753 H   0  0  0  0  0  0  0  0  0  0  0  0
   12.7859   13.3810   21.9539 H   0  0  0  0  0  0  0  0  0  0  0  0
   10.6628   11.9359   21.9007 H   0  0  0  0  0  0  0  0  0  0  0  0
  1  2  1  0  0  0  0
  1  3  2  0  0  0  0
  2  4  2  0  0  0  0
  3  5  1  0  0  0  0
  4  6  1  0  0  0  0
  5  6  2  0  0  0  0
  5 10  1  0  0  0  0
  6 11  1  0  0  0  0
  7  8  2  0  0  0  0
  8  9  1  0  0  0  0
  9 11  1  0  0  0  0
  9 12  2  0  0  0  0
 10 13  1  0  0  0  0
 10 14  1  0  0  0  0
 10 15  1  0  0  0  0
  1 16  1  0  0  0  0
  2 17  1  0  0  0  0
  3 18  1  0  0  0  0
  4 19  1  0  0  0  0
  7 20  1  0  0  0  0
  7 21  1  0  0  0  0
  8 22  1  0  0  0  0
 11 23  1  0  0  0  0
M  END
> <Catalog ID>
Z440633866

> <MW>
215.056

> <MW (desalted)>
215.172

> <ClogP>
1.3

> <logS>
-3.306

> <HBD>
1

> <HBA>
1

> <TPSA>
29.1

> <RotBonds>
3

> <ROCS_ShapeQuery>
A71EV2A-x0451_0A_A71EV2A-x0310_0A_A71EV2A-x0416_0A_peptide

> <ROCS_TanimotoCombo>
0.421 

> <ROCS_ShapeTanimoto>
0.286 

> <ROCS_ColorTanimoto>
0.135 

> <ROCS_RefTversky>
0.255 

> <ROCS_RefColorTversky>
0.140 

> <ROCS_RefTverskyCombo>
0.394 

> <ROCS_FitTversky>
1.768 

> <ROCS_FitColorTversky>
0.786 

> <ROCS_FitTverskyCombo>
2.555 

> <ROCS_ColorScore>
-4.234

> <ROCS_Overlap>
1764.183

> <ROCS_Rank>
345                 

$$$$
untitled-dbase-356_2
  -OEChem-11112315393D

 22 22  0     0  0  0  0  0  0999 V2000
    8.3250    9.5058   24.0108 C   0  0  0  0  0  0  0  0  0  0  0  0
    7.4170   10.1803   24.8271 C   0  0  0  0  0  0  0  0  0  0  0  0
    8.4671   12.2808   24.2593 C   0  0  0  0  0  0  0  0  0  0  0  0
    9.3040   10.2188   23.3189 C   0  0  0  0  0  0  0  0  0  0  0  0
    9.3751   11.6063   23.4431 C   0  0  0  0  0  0  0  0  0  0  0  0
    7.4880   11.5678   24.9513 C   0  0  0  0  0  0  0  0  0  0  0  0
   10.9200   13.5314   23.1796 C   0  0  0  0  0  0  0  0  0  0  0  0
   10.2633    9.4699   22.4518 C   0  0  0  0  0  0  0  0  0  0  0  0
   11.9396   14.0441   22.1890 C   0  0  0  0  0  0  0  0  0  0  0  0
   10.3486   12.3377   22.7579 N   0  0  0  0  0  0  0  0  0  0  0  0
   10.6745   14.1702   24.1993 O   0  0  0  0  0  0  0  0  0  0  0  0
    6.3674   12.3993   25.9586 Cl  0  0  0  0  0  0  0  0  0  0  0  0
   11.4053   15.6412   21.6418 Cl  0  0  0  0  0  0  0  0  0  0  0  0
    8.2612    8.4245   23.9207 H   0  0  0  0  0  0  0  0  0  0  0  0
    6.6595    9.6117   25.3603 H   0  0  0  0  0  0  0  0  0  0  0  0
    8.5243   13.3632   24.3548 H   0  0  0  0  0  0  0  0  0  0  0  0
    9.8668    9.3842   21.4338 H   0  0  0  0  0  0  0  0  0  0  0  0
   11.2351    9.9764   22.4077 H   0  0  0  0  0  0  0  0  0  0  0  0
   10.4457    8.4615   22.8428 H   0  0  0  0  0  0  0  0  0  0  0  0
   12.0498   13.3917   21.3191 H   0  0  0  0  0  0  0  0  0  0  0  0
   12.9104   14.1416   22.6831 H   0  0  0  0  0  0  0  0  0  0  0  0
   10.6683   11.9613   21.8684 H   0  0  0  0  0  0  0  0  0  0  0  0
  1  2  2  0  0  0  0
  1  4  1  0  0  0  0
  2  6  1  0  0  0  0
  3  5  1  0  0  0  0
  3  6  2  0  0  0  0
  4  5  2  0  0  0  0
  4  8  1  0  0  0  0
  5 10  1  0  0  0  0
  6 12  1  0  0  0  0
  7  9  1  0  0  0  0
  7 10  1  0  0  0  0
  7 11  2  0  0  0  0
  9 13  1  0  0  0  0
  1 14  1  0  0  0  0
  2 15  1  0  0  0  0
  3 16  1  0  0  0  0
  8 17  1  0  0  0  0
  8 18  1  0  0  0  0
  8 19  1  0  0  0  0
  9 20  1  0  0  0  0
  9 21  1  0  0  0  0
 10 22  1  0  0  0  0
M  END
> <Catalog ID>
Z56862408

> <MW>
217.006

> <MW (desalted)>
218.08

> <ClogP>
2.594

> <logS>
-3.22

> <HBD>
1

> <HBA>
1

> <TPSA>
29.1

> <RotBonds>
2

> <ROCS_ShapeQuery>
A71EV2A-x0451_0A_A71EV2A-x0310_0A_A71EV2A-x0416_0A_peptide

> <ROCS_TanimotoCombo>
0.421 

> <ROCS_ShapeTanimoto>
0.281 

> <ROCS_ColorTanimoto>
0.140 

> <ROCS_RefTversky>
0.247 

> <ROCS_RefColorTversky>
0.141 

> <ROCS_RefTverskyCombo>
0.388 

> <ROCS_FitTversky>
1.946 

> <ROCS_FitColorTversky>
0.961 

> <ROCS_FitTverskyCombo>
2.906 

> <ROCS_ColorScore>
-4.262

> <ROCS_Overlap>
1710.547

> <ROCS_Rank>
346                 

$$$$
untitled-dbase-173_148
  -OEChem-11112315393D

 32 33  0     0  0  0  0  0  0999 V2000
   12.8325   15.0777   21.4868 C   0  0  0  0  0  0  0  0  0  0  0  0
   12.1365   15.3183   22.6021 C   0  0  0  0  0  0  0  0  0  0  0  0
   11.1694   14.3129   23.1177 C   0  0  0  0  0  0  0  0  0  0  0  0
    8.7836   12.5021   22.5702 C   0  0  0  0  0  0  0  0  0  0  0  0
   10.6172   11.4369   23.9508 C   0  0  0  0  0  0  0  0  0  0  0  0
    7.8510   11.3419   22.9179 C   0  0  0  0  0  0  0  0  0  0  0  0
    9.6803   10.2798   24.2978 C   0  0  0  0  0  0  0  0  0  0  0  0
    6.8701    9.6567   25.7708 C   0  0  0  0  0  0  0  0  0  0  0  0
    6.7841   11.1438   25.9721 C   0  0  0  0  0  0  0  0  0  0  0  0
   10.2520   12.0682   22.6042 C   0  0  0  0  0  0  0  0  0  0  0  0
    8.2071   10.6964   24.2601 C   0  0  0  0  0  0  0  0  0  0  0  0
   11.1191   13.1857   22.3148 N   0  0  0  0  0  0  0  0  0  0  0  0
   10.5084   14.4939   24.1352 O   0  0  0  0  0  0  0  0  0  0  0  0
    7.3803    9.5344   24.4442 O   0  0  0  0  0  0  0  0  0  0  0  0
    7.9592   11.6308   25.3266 O   0  0  0  0  0  0  0  0  0  0  0  0
   13.5355   15.8165   21.1163 H   0  0  0  0  0  0  0  0  0  0  0  0
   12.7287   14.1590   20.9200 H   0  0  0  0  0  0  0  0  0  0  0  0
   12.2707   16.2506   23.1399 H   0  0  0  0  0  0  0  0  0  0  0  0
    8.5264   12.8810   21.5735 H   0  0  0  0  0  0  0  0  0  0  0  0
    8.6187   13.3254   23.2770 H   0  0  0  0  0  0  0  0  0  0  0  0
   10.5710   12.1929   24.7457 H   0  0  0  0  0  0  0  0  0  0  0  0
   11.6492   11.0652   23.9245 H   0  0  0  0  0  0  0  0  0  0  0  0
    6.8185   11.7116   22.9427 H   0  0  0  0  0  0  0  0  0  0  0  0
    7.8873   10.5864   22.1229 H   0  0  0  0  0  0  0  0  0  0  0  0
    9.8475    9.4469   23.6026 H   0  0  0  0  0  0  0  0  0  0  0  0
    9.9371    9.9011   25.2951 H   0  0  0  0  0  0  0  0  0  0  0  0
    7.5288    9.1588   26.4865 H   0  0  0  0  0  0  0  0  0  0  0  0
    5.8809    9.1872   25.8006 H   0  0  0  0  0  0  0  0  0  0  0  0
    5.8879   11.5904   25.5345 H   0  0  0  0  0  0  0  0  0  0  0  0
    6.8418   11.4114   27.0327 H   0  0  0  0  0  0  0  0  0  0  0  0
   10.4264   11.3358   21.8074 H   0  0  0  0  0  0  0  0  0  0  0  0
   11.6827   13.1372   21.4705 H   0  0  0  0  0  0  0  0  0  0  0  0
  1  2  2  0  0  0  0
  2  3  1  0  0  0  0
  3 12  1  0  0  0  0
  3 13  2  0  0  0  0
  4  6  1  0  0  0  0
  4 10  1  0  0  0  0
  5  7  1  0  0  0  0
  5 10  1  0  0  0  0
  6 11  1  0  0  0  0
  7 11  1  0  0  0  0
  8  9  1  0  0  0  0
  8 14  1  0  0  0  0
  9 15  1  0  0  0  0
 10 12  1  0  0  0  0
 11 14  1  0  0  0  0
 11 15  1  0  0  0  0
  1 16  1  0  0  0  0
  1 17  1  0  0  0  0
  2 18  1  0  0  0  0
  4 19  1  0  0  0  0
  4 20  1  0  0  0  0
  5 21  1  0  0  0  0
  5 22  1  0  0  0  0
  6 23  1  0  0  0  0
  6 24  1  0  0  0  0
  7 25  1  0  0  0  0
  7 26  1  0  0  0  0
  8 27  1  0  0  0  0
  8 28  1  0  0  0  0
  9 29  1  0  0  0  0
  9 30  1  0  0  0  0
 10 31  1  0  0  0  0
 12 32  1  0  0  0  0
M  END
> <Catalog ID>
Z2650769429

> <MW>
211.258

> <MW (desalted)>
211.258

> <ClogP>
-0.013

> <logS>
-1.767

> <HBD>
1

> <HBA>
3

> <TPSA>
47.56

> <RotBonds>
2

> <ROCS_ShapeQuery>
A71EV2A-x0451_0A_A71EV2A-x0310_0A_A71EV2A-x0416_0A_peptide

> <ROCS_TanimotoCombo>
0.421 

> <ROCS_ShapeTanimoto>
0.268 

> <ROCS_ColorTanimoto>
0.153 

> <ROCS_RefTversky>
0.241 

> <ROCS_RefColorTversky>
0.169 

> <ROCS_RefTverskyCombo>
0.410 

> <ROCS_FitTversky>
1.695 

> <ROCS_FitColorTversky>
0.623 

> <ROCS_FitTverskyCombo>
2.318 

> <ROCS_ColorScore>
-5.137

> <ROCS_Overlap>
1670.546

> <ROCS_Rank>
347                 

$$$$
untitled-dbase-492_1
  -OEChem-11112315393D

 27 28  0     0  0  0  0  0  0999 V2000
    6.4055   11.4923   26.2621 C   0  0  0  0  0  0  0  0  0  0  0  0
    6.9627   12.7550   26.1216 C   0  0  0  0  0  0  0  0  0  0  0  0
    6.8764   10.4468   25.4769 C   0  0  0  0  0  0  0  0  0  0  0  0
    7.9943   12.9729   25.2020 C   0  0  0  0  0  0  0  0  0  0  0  0
    7.9219   10.6496   24.5570 C   0  0  0  0  0  0  0  0  0  0  0  0
    8.5062   11.9292   24.4097 C   0  0  0  0  0  0  0  0  0  0  0  0
   11.9791   14.4225   22.0144 C   0  0  0  0  0  0  0  0  0  0  0  0
   10.8388   13.7314   22.0722 C   0  0  0  0  0  0  0  0  0  0  0  0
   10.3092   13.3344   23.3975 C   0  0  0  0  0  0  0  0  0  0  0  0
    8.3490    9.4719   23.7212 C   0  0  0  0  0  0  0  0  0  0  0  0
    9.7413    9.6780   23.1608 C   0  0  0  0  0  0  0  0  0  0  0  0
    9.8237   11.0407   22.4958 C   0  0  0  0  0  0  0  0  0  0  0  0
    9.5622   12.1455   23.4399 N   0  0  0  0  0  0  0  0  0  0  0  0
   10.5727   14.0726   24.3459 O   0  0  0  0  0  0  0  0  0  0  0  0
    5.6171   11.3191   26.9880 H   0  0  0  0  0  0  0  0  0  0  0  0
    6.6070   13.5760   26.7379 H   0  0  0  0  0  0  0  0  0  0  0  0
    6.4254    9.4627   25.5835 H   0  0  0  0  0  0  0  0  0  0  0  0
    8.3955   13.9795   25.1665 H   0  0  0  0  0  0  0  0  0  0  0  0
   12.4164   14.7413   21.0741 H   0  0  0  0  0  0  0  0  0  0  0  0
   12.5030   14.6854   22.9273 H   0  0  0  0  0  0  0  0  0  0  0  0
   10.2875   13.4510   21.1842 H   0  0  0  0  0  0  0  0  0  0  0  0
    8.3245    8.5722   24.3483 H   0  0  0  0  0  0  0  0  0  0  0  0
    7.6506    9.3197   22.8898 H   0  0  0  0  0  0  0  0  0  0  0  0
   10.4802    9.6053   23.9668 H   0  0  0  0  0  0  0  0  0  0  0  0
    9.9833    8.8938   22.4320 H   0  0  0  0  0  0  0  0  0  0  0  0
   10.8130   11.2104   22.0536 H   0  0  0  0  0  0  0  0  0  0  0  0
    9.0880   11.0543   21.6857 H   0  0  0  0  0  0  0  0  0  0  0  0
  1  2  1  0  0  0  0
  1  3  2  0  0  0  0
  2  4  2  0  0  0  0
  3  5  1  0  0  0  0
  4  6  1  0  0  0  0
  5  6  2  0  0  0  0
  5 10  1  0  0  0  0
  6 13  1  0  0  0  0
  7  8  2  0  0  0  0
  8  9  1  0  0  0  0
  9 13  1  0  0  0  0
  9 14  2  0  0  0  0
 10 11  1  0  0  0  0
 11 12  1  0  0  0  0
 12 13  1  0  0  0  0
  1 15  1  0  0  0  0
  2 16  1  0  0  0  0
  3 17  1  0  0  0  0
  4 18  1  0  0  0  0
  7 19  1  0  0  0  0
  7 20  1  0  0  0  0
  8 21  1  0  0  0  0
 10 22  1  0  0  0  0
 10 23  1  0  0  0  0
 11 24  1  0  0  0  0
 11 25  1  0  0  0  0
 12 26  1  0  0  0  0
 12 27  1  0  0  0  0
M  END
> <Catalog ID>
Z440633624

> <MW>
187.1

> <MW (desalted)>
187.238

> <ClogP>
2.936

> <logS>
-2.933

> <HBD>
0

> <HBA>
1

> <TPSA>
20.31

> <RotBonds>
1

> <ROCS_ShapeQuery>
A71EV2A-x0451_0A_A71EV2A-x0310_0A_A71EV2A-x0416_0A_peptide

> <ROCS_TanimotoCombo>
0.420 

> <ROCS_ShapeTanimoto>
0.293 

> <ROCS_ColorTanimoto>
0.127 

> <ROCS_RefTversky>
0.258 

> <ROCS_RefColorTversky>
0.133 

> <ROCS_RefTverskyCombo>
0.391 

> <ROCS_FitTversky>
1.875 

> <ROCS_FitColorTversky>
0.748 

> <ROCS_FitTverskyCombo>
2.623 

> <ROCS_ColorScore>
-4.033

> <ROCS_Overlap>
1786.390

> <ROCS_Rank>
348                 

$$$$
untitled-dbase-40_6752
  -OEChem-11112315393D

 44 44  0     1  0  0  0  0  0999 V2000
    5.0008   12.6604   27.0788 C   0  0  0  0  0  0  0  0  0  0  0  0
    5.4819   12.2819   25.8927 C   0  0  0  0  0  0  0  0  0  0  0  0
    6.2059   10.9974   25.7931 C   0  0  0  0  0  0  0  0  0  0  0  0
   11.0532   13.4727   23.4034 C   0  0  0  0  0  0  0  0  0  0  0  0
    8.3818    9.3499   23.7755 C   0  0  0  0  0  0  0  0  0  0  0  0
    9.3833   10.0222   22.8368 C   0  0  0  0  0  0  0  0  0  0  0  0
    8.3110   12.3442   23.3956 C   0  0  0  0  0  0  0  0  0  0  0  0
    8.4044    9.8598   25.2096 C   0  0  0  0  0  0  0  0  0  0  0  0
    8.0954   12.3032   24.9102 C   0  0  0  0  0  0  0  0  0  0  0  0
    9.5179   11.5583   22.8562 C   0  0  1  0  0  0  0  0  0  0  0  0
   12.8833   15.6379   23.1325 C   0  0  0  0  0  0  0  0  0  0  0  0
   12.8036   15.1569   20.6684 C   0  0  0  0  0  0  0  0  0  0  0  0
   10.7149   15.8586   21.8740 C   0  0  0  0  0  0  0  0  0  0  0  0
   10.8331   11.9880   23.5190 C   0  0  0  0  0  0  0  0  0  0  0  0
   12.0330   15.0938   21.9854 C   0  0  0  0  0  0  0  0  0  0  0  0
    7.5334   11.0310   25.3579 N   0  0  0  0  0  0  0  0  0  0  0  0
    5.5948    9.9751   26.1093 O   0  0  0  0  0  0  0  0  0  0  0  0
   10.6788   14.3148   24.2079 O   0  0  0  0  0  0  0  0  0  0  0  0
   11.7406   13.7177   22.2483 O   0  0  0  0  0  0  0  0  0  0  0  0
    4.4611   13.5916   27.2147 H   0  0  0  0  0  0  0  0  0  0  0  0
    5.1430   12.0299   27.9501 H   0  0  0  0  0  0  0  0  0  0  0  0
    5.3599   12.8830   25.0012 H   0  0  0  0  0  0  0  0  0  0  0  0
    7.3637    9.4014   23.3575 H   0  0  0  0  0  0  0  0  0  0  0  0
    8.6200    8.2738   23.8105 H   0  0  0  0  0  0  0  0  0  0  0  0
   10.3967    9.5530   22.9671 H   0  0  0  0  0  0  0  0  0  0  0  0
    9.1012    9.7245   21.7926 H   0  0  0  0  0  0  0  0  0  0  0  0
    7.3996   11.9367   22.9195 H   0  0  0  0  0  0  0  0  0  0  0  0
    8.3590   13.3968   23.0571 H   0  0  0  0  0  0  0  0  0  0  0  0
    8.0415    9.1007   25.8730 H   0  0  0  0  0  0  0  0  0  0  0  0
    9.4083   10.1367   25.4584 H   0  0  0  0  0  0  0  0  0  0  0  0
    9.0713   12.4457   25.3936 H   0  0  0  0  0  0  0  0  0  0  0  0
    7.4645   13.1294   25.2614 H   0  0  0  0  0  0  0  0  0  0  0  0
    9.6279   11.8693   21.7590 H   0  0  0  0  0  0  0  0  0  0  0  0
   12.3338   15.5944   24.0796 H   0  0  0  0  0  0  0  0  0  0  0  0
   13.8159   15.0755   23.2454 H   0  0  0  0  0  0  0  0  0  0  0  0
   13.1329   16.6924   22.9682 H   0  0  0  0  0  0  0  0  0  0  0  0
   12.1973   14.7675   19.8426 H   0  0  0  0  0  0  0  0  0  0  0  0
   13.7031   14.5323   20.7122 H   0  0  0  0  0  0  0  0  0  0  0  0
   13.1042   16.1811   20.4249 H   0  0  0  0  0  0  0  0  0  0  0  0
   10.1048   15.4685   21.0512 H   0  0  0  0  0  0  0  0  0  0  0  0
   10.1314   15.7934   22.7980 H   0  0  0  0  0  0  0  0  0  0  0  0
   10.8958   16.9162   21.6503 H   0  0  0  0  0  0  0  0  0  0  0  0
   11.6564   11.4663   23.0296 H   0  0  0  0  0  0  0  0  0  0  0  0
   10.7968   11.7140   24.5740 H   0  0  0  0  0  0  0  0  0  0  0  0
  1  2  2  0  0  0  0
  2  3  1  0  0  0  0
  3 16  1  0  0  0  0
  3 17  2  0  0  0  0
  4 14  1  0  0  0  0
  4 18  2  0  0  0  0
  4 19  1  0  0  0  0
  5  6  1  0  0  0  0
  5  8  1  0  0  0  0
  6 10  1  0  0  0  0
  7  9  1  0  0  0  0
  7 10  1  0  0  0  0
  8 16  1  0  0  0  0
  9 16  1  0  0  0  0
 10 14  1  0  0  0  0
 11 15  1  0  0  0  0
 12 15  1  0  0  0  0
 13 15  1  0  0  0  0
 15 19  1  0  0  0  0
  1 20  1  0  0  0  0
  1 21  1  0  0  0  0
  2 22  1  0  0  0  0
  5 23  1  0  0  0  0
  5 24  1  0  0  0  0
  6 25  1  0  0  0  0
  6 26  1  0  0  0  0
  7 27  1  0  0  0  0
  7 28  1  0  0  0  0
  8 29  1  0  0  0  0
  8 30  1  0  0  0  0
  9 31  1  0  0  0  0
  9 32  1  0  0  0  0
 10 33  1  0  0  0  0
 11 34  1  0  0  0  0
 11 35  1  0  0  0  0
 11 36  1  0  0  0  0
 12 37  1  0  0  0  0
 12 38  1  0  0  0  0
 12 39  1  0  0  0  0
 13 40  1  0  0  0  0
 13 41  1  0  0  0  0
 13 42  1  0  0  0  0
 14 43  1  0  0  0  0
 14 44  1  0  0  0  0
M  END
> <Catalog ID>
Z2285378117

> <MW>
267.364

> <MW (desalted)>
267.364

> <ClogP>
2.3

> <logS>
-2.162

> <HBD>
0

> <HBA>
2

> <TPSA>
46.61

> <RotBonds>
5

> <ROCS_ShapeQuery>
A71EV2A-x0451_0A_A71EV2A-x0310_0A_A71EV2A-x0416_0A_peptide

> <ROCS_TanimotoCombo>
0.420 

> <ROCS_ShapeTanimoto>
0.322 

> <ROCS_ColorTanimoto>
0.098 

> <ROCS_RefTversky>
0.283 

> <ROCS_RefColorTversky>
0.108 

> <ROCS_RefTverskyCombo>
0.391 

> <ROCS_FitTversky>
1.747 

> <ROCS_FitColorTversky>
0.516 

> <ROCS_FitTverskyCombo>
2.263 

> <ROCS_ColorScore>
-3.271

> <ROCS_Overlap>
1963.688

> <ROCS_Rank>
349                 

$$$$
untitled-dbase-344_14
  -OEChem-11112315393D

 18 18  0     0  0  0  0  0  0999 V2000
    8.3771   12.3312   24.3160 C   0  0  0  0  0  0  0  0  0  0  0  0
    7.3802   11.6533   25.0089 C   0  0  0  0  0  0  0  0  0  0  0  0
    9.1382   10.2422   23.4714 C   0  0  0  0  0  0  0  0  0  0  0  0
    9.2769   11.6196   23.5304 C   0  0  0  0  0  0  0  0  0  0  0  0
    7.3264   10.2745   24.8836 C   0  0  0  0  0  0  0  0  0  0  0  0
   10.9129   13.4566   23.1965 C   0  0  0  0  0  0  0  0  0  0  0  0
   11.9631   13.8759   22.1942 C   0  0  0  0  0  0  0  0  0  0  0  0
    8.1828    9.5488   24.1302 N   0  0  0  0  0  0  0  0  0  0  0  0
   10.2858   12.2710   22.8251 N   0  0  0  0  0  0  0  0  0  0  0  0
   10.6898   14.1514   24.1842 O   0  0  0  0  0  0  0  0  0  0  0  0
    6.1303    9.3558   25.7019 Cl  0  0  0  0  0  0  0  0  0  0  0  0
   11.4539   13.2915   20.6020 Cl  0  0  0  0  0  0  0  0  0  0  0  0
    8.4438   13.4131   24.3952 H   0  0  0  0  0  0  0  0  0  0  0  0
    6.6734   12.1996   25.6245 H   0  0  0  0  0  0  0  0  0  0  0  0
    9.8104    9.6322   22.8753 H   0  0  0  0  0  0  0  0  0  0  0  0
   12.9513   13.4675   22.4205 H   0  0  0  0  0  0  0  0  0  0  0  0
   12.0286   14.9673   22.1703 H   0  0  0  0  0  0  0  0  0  0  0  0
   10.5941   11.8387   21.9550 H   0  0  0  0  0  0  0  0  0  0  0  0
  1  2  2  0  0  0  0
  1  4  1  0  0  0  0
  2  5  1  0  0  0  0
  3  4  2  0  0  0  0
  3  8  1  0  0  0  0
  4  9  1  0  0  0  0
  5  8  2  0  0  0  0
  5 11  1  0  0  0  0
  6  7  1  0  0  0  0
  6  9  1  0  0  0  0
  6 10  2  0  0  0  0
  7 12  1  0  0  0  0
  1 13  1  0  0  0  0
  2 14  1  0  0  0  0
  3 15  1  0  0  0  0
  7 16  1  0  0  0  0
  7 17  1  0  0  0  0
  9 18  1  0  0  0  0
M  END
> <Catalog ID>
Z239813676

> <MW>
203.986

> <MW (desalted)>
205.041

> <ClogP>
1.933

> <logS>
-2.475

> <HBD>
1

> <HBA>
2

> <TPSA>
41.99

> <RotBonds>
2

> <ROCS_ShapeQuery>
A71EV2A-x0451_0A_A71EV2A-x0310_0A_A71EV2A-x0416_0A_peptide

> <ROCS_TanimotoCombo>
0.420 

> <ROCS_ShapeTanimoto>
0.248 

> <ROCS_ColorTanimoto>
0.172 

> <ROCS_RefTversky>
0.223 

> <ROCS_RefColorTversky>
0.173 

> <ROCS_RefTverskyCombo>
0.396 

> <ROCS_FitTversky>
1.829 

> <ROCS_FitColorTversky>
0.974 

> <ROCS_FitTverskyCombo>
2.802 

> <ROCS_ColorScore>
-5.244

> <ROCS_Overlap>
1540.612

> <ROCS_Rank>
350                 

$$$$
untitled-dbase-26_1617
  -OEChem-11112315393D

 33 34  0     1  0  0  0  0  0999 V2000
   12.3440   15.7207   21.5628 C   0  0  0  0  0  0  0  0  0  0  0  0
   12.8389   14.4475   21.8221 C   0  0  0  0  0  0  0  0  0  0  0  0
   11.2591   16.1585   22.3053 C   0  0  0  0  0  0  0  0  0  0  0  0
   12.2424   13.6620   22.8022 C   0  0  0  0  0  0  0  0  0  0  0  0
   11.1622   14.1920   23.4894 C   0  0  0  0  0  0  0  0  0  0  0  0
    5.4380   12.7898   26.4040 C   0  0  0  0  0  0  0  0  0  0  0  0
    6.4676   11.9573   26.5720 C   0  0  0  0  0  0  0  0  0  0  0  0
    6.6935   10.8918   25.5747 C   0  0  0  0  0  0  0  0  0  0  0  0
    8.8900   10.6138   22.6271 C   0  0  0  0  0  0  0  0  0  0  0  0
    9.9801   11.6132   22.9911 C   0  0  0  0  0  0  0  0  0  0  0  0
    8.3173    9.9193   23.8625 C   0  0  0  0  0  0  0  0  0  0  0  0
    8.9268   11.8743   25.2588 C   0  0  0  0  0  0  0  0  0  0  0  0
    9.4804   12.6033   24.0392 C   0  0  1  0  0  0  0  0  0  0  0  0
   10.6534   15.4243   23.2654 N   0  0  0  0  0  0  0  0  0  0  0  0
    7.9085   10.8880   24.8916 N   0  0  0  0  0  0  0  0  0  0  0  0
    5.7896   10.0721   25.4032 O   0  0  0  0  0  0  0  0  0  0  0  0
   10.5548   13.4376   24.4577 O   0  0  0  0  0  0  0  0  0  0  0  0
   12.7032   12.4340   23.0685 F   0  0  0  0  0  0  0  0  0  0  0  0
   12.7936   16.3504   20.8040 H   0  0  0  0  0  0  0  0  0  0  0  0
   13.6883   14.0673   21.2626 H   0  0  0  0  0  0  0  0  0  0  0  0
   10.8352   17.1437   22.1420 H   0  0  0  0  0  0  0  0  0  0  0  0
    5.2210   13.5913   27.1021 H   0  0  0  0  0  0  0  0  0  0  0  0
    4.7828   12.6789   25.5464 H   0  0  0  0  0  0  0  0  0  0  0  0
    7.1430   12.0363   27.4139 H   0  0  0  0  0  0  0  0  0  0  0  0
    8.0819   11.1324   22.0962 H   0  0  0  0  0  0  0  0  0  0  0  0
    9.2937    9.8636   21.9378 H   0  0  0  0  0  0  0  0  0  0  0  0
   10.8636   11.0831   23.3700 H   0  0  0  0  0  0  0  0  0  0  0  0
   10.3163   12.1521   22.0972 H   0  0  0  0  0  0  0  0  0  0  0  0
    7.4858    9.2895   23.5428 H   0  0  0  0  0  0  0  0  0  0  0  0
    9.0724    9.2678   24.3179 H   0  0  0  0  0  0  0  0  0  0  0  0
    9.7293   11.3376   25.7811 H   0  0  0  0  0  0  0  0  0  0  0  0
    8.5356   12.6001   25.9803 H   0  0  0  0  0  0  0  0  0  0  0  0
    8.7041   13.2470   23.6077 H   0  0  0  0  0  0  0  0  0  0  0  0
  1  2  2  0  0  0  0
  1  3  1  0  0  0  0
  2  4  1  0  0  0  0
  3 14  2  0  0  0  0
  4  5  2  0  0  0  0
  4 18  1  0  0  0  0
  5 14  1  0  0  0  0
  5 17  1  0  0  0  0
  6  7  2  0  0  0  0
  7  8  1  0  0  0  0
  8 15  1  0  0  0  0
  8 16  2  0  0  0  0
  9 10  1  0  0  0  0
  9 11  1  0  0  0  0
 10 13  1  0  0  0  0
 11 15  1  0  0  0  0
 12 13  1  0  0  0  0
 12 15  1  0  0  0  0
 13 17  1  0  0  0  0
  1 19  1  0  0  0  0
  2 20  1  0  0  0  0
  3 21  1  0  0  0  0
  6 22  1  0  0  0  0
  6 23  1  0  0  0  0
  7 24  1  0  0  0  0
  9 25  1  0  0  0  0
  9 26  1  0  0  0  0
 10 27  1  0  0  0  0
 10 28  1  0  0  0  0
 11 29  1  0  0  0  0
 11 30  1  0  0  0  0
 12 31  1  0  0  0  0
 12 32  1  0  0  0  0
 13 33  1  0  0  0  0
M  END
> <Catalog ID>
Z2285378031

> <MW>
250.269

> <MW (desalted)>
250.269

> <ClogP>
1.89

> <logS>
-2.73

> <HBD>
0

> <HBA>
3

> <TPSA>
42.43

> <RotBonds>
3

> <ROCS_ShapeQuery>
A71EV2A-x0451_0A_A71EV2A-x0310_0A_A71EV2A-x0416_0A_peptide

> <ROCS_TanimotoCombo>
0.420 

> <ROCS_ShapeTanimoto>
0.294 

> <ROCS_ColorTanimoto>
0.126 

> <ROCS_RefTversky>
0.264 

> <ROCS_RefColorTversky>
0.139 

> <ROCS_RefTverskyCombo>
0.402 

> <ROCS_FitTversky>
1.629 

> <ROCS_FitColorTversky>
0.578 

> <ROCS_FitTverskyCombo>
2.207 

> <ROCS_ColorScore>
-4.216

> <ROCS_Overlap>
1829.785

> <ROCS_Rank>
351                 

$$$$
untitled-dbase-508_3
  -OEChem-11112315393D

 23 23  0     0  0  0  0  0  0999 V2000
    8.3419    9.4880   24.0053 C   0  0  0  0  0  0  0  0  0  0  0  0
    7.4145   10.1505   24.8095 C   0  0  0  0  0  0  0  0  0  0  0  0
    8.4420   12.2650   24.2524 C   0  0  0  0  0  0  0  0  0  0  0  0
    9.3193   10.2140   23.3247 C   0  0  0  0  0  0  0  0  0  0  0  0
    9.3694   11.6025   23.4483 C   0  0  0  0  0  0  0  0  0  0  0  0
    7.4645   11.5390   24.9330 C   0  0  0  0  0  0  0  0  0  0  0  0
   11.7685   15.2140   21.5577 C   0  0  0  0  0  0  0  0  0  0  0  0
   11.9239   14.0354   22.1689 C   0  0  0  0  0  0  0  0  0  0  0  0
   10.9219   13.5599   23.1664 C   0  0  0  0  0  0  0  0  0  0  0  0
   10.3019    9.4783   22.4725 C   0  0  0  0  0  0  0  0  0  0  0  0
   10.3409   12.3472   22.7748 N   0  0  0  0  0  0  0  0  0  0  0  0
   10.6838   14.2010   24.1831 O   0  0  0  0  0  0  0  0  0  0  0  0
    6.5736   12.1741   25.7056 F   0  0  0  0  0  0  0  0  0  0  0  0
    8.2950    8.4058   23.9168 H   0  0  0  0  0  0  0  0  0  0  0  0
    6.6529    9.5859   25.3394 H   0  0  0  0  0  0  0  0  0  0  0  0
    8.4701   13.3466   24.3571 H   0  0  0  0  0  0  0  0  0  0  0  0
   12.4756   15.5922   20.8278 H   0  0  0  0  0  0  0  0  0  0  0  0
   10.9078   15.8340   21.7860 H   0  0  0  0  0  0  0  0  0  0  0  0
   12.7838   13.4150   21.9410 H   0  0  0  0  0  0  0  0  0  0  0  0
    9.9205    9.3842   21.4495 H   0  0  0  0  0  0  0  0  0  0  0  0
   11.2661    9.9997   22.4404 H   0  0  0  0  0  0  0  0  0  0  0  0
   10.4945    8.4737   22.8684 H   0  0  0  0  0  0  0  0  0  0  0  0
   10.6691   11.9578   21.8837 H   0  0  0  0  0  0  0  0  0  0  0  0
  1  2  2  0  0  0  0
  1  4  1  0  0  0  0
  2  6  1  0  0  0  0
  3  5  1  0  0  0  0
  3  6  2  0  0  0  0
  4  5  2  0  0  0  0
  4 10  1  0  0  0  0
  5 11  1  0  0  0  0
  6 13  1  0  0  0  0
  7  8  2  0  0  0  0
  8  9  1  0  0  0  0
  9 11  1  0  0  0  0
  9 12  2  0  0  0  0
  1 14  1  0  0  0  0
  2 15  1  0  0  0  0
  3 16  1  0  0  0  0
  7 17  1  0  0  0  0
  7 18  1  0  0  0  0
  8 19  1  0  0  0  0
 10 20  1  0  0  0  0
 10 21  1  0  0  0  0
 10 22  1  0  0  0  0
 11 23  1  0  0  0  0
M  END
> <Catalog ID>
Z440633706

> <MW>
179.075

> <MW (desalted)>
179.191

> <ClogP>
1.666

> <logS>
-2.8

> <HBD>
1

> <HBA>
1

> <TPSA>
29.1

> <RotBonds>
2

> <ROCS_ShapeQuery>
A71EV2A-x0451_0A_A71EV2A-x0310_0A_A71EV2A-x0416_0A_peptide

> <ROCS_TanimotoCombo>
0.419 

> <ROCS_ShapeTanimoto>
0.285 

> <ROCS_ColorTanimoto>
0.135 

> <ROCS_RefTversky>
0.251 

> <ROCS_RefColorTversky>
0.140 

> <ROCS_RefTverskyCombo>
0.390 

> <ROCS_FitTversky>
1.929 

> <ROCS_FitColorTversky>
0.786 

> <ROCS_FitTverskyCombo>
2.715 

> <ROCS_ColorScore>
-4.235

> <ROCS_Overlap>
1734.837

> <ROCS_Rank>
352                 

$$$$
untitled-dbase-667_7
  -OEChem-11112315393D

 23 24  0     0  0  0  0  0  0999 V2000
    6.3298   11.1147   25.9872 C   0  0  0  0  0  0  0  0  0  0  0  0
    6.8480   12.4131   26.0894 C   0  0  0  0  0  0  0  0  0  0  0  0
    6.9127   10.1882   25.1232 C   0  0  0  0  0  0  0  0  0  0  0  0
    7.9553   12.8039   25.3298 C   0  0  0  0  0  0  0  0  0  0  0  0
    8.0104   10.5838   24.3738 C   0  0  0  0  0  0  0  0  0  0  0  0
    8.5292   11.8764   24.4725 C   0  0  0  0  0  0  0  0  0  0  0  0
   10.3986   13.1681   23.4485 C   0  0  0  0  0  0  0  0  0  0  0  0
    8.7773    9.7540   23.3971 C   0  0  0  0  0  0  0  0  0  0  0  0
    9.8486   10.7354   22.9095 C   0  0  0  0  0  0  0  0  0  0  0  0
   11.0083   13.3358   22.0766 C   0  0  0  0  0  0  0  0  0  0  0  0
    9.6368   12.0191   23.6110 N   0  0  0  0  0  0  0  0  0  0  0  0
   10.6046   14.0251   24.3080 O   0  0  0  0  0  0  0  0  0  0  0  0
   11.1015   15.0670   21.7780 Cl  0  0  0  0  0  0  0  0  0  0  0  0
    5.4688   10.8297   26.5853 H   0  0  0  0  0  0  0  0  0  0  0  0
    6.3826   13.1241   26.7671 H   0  0  0  0  0  0  0  0  0  0  0  0
    6.5130    9.1829   25.0432 H   0  0  0  0  0  0  0  0  0  0  0  0
    8.3290   13.8150   25.4342 H   0  0  0  0  0  0  0  0  0  0  0  0
    9.2291    8.8877   23.8897 H   0  0  0  0  0  0  0  0  0  0  0  0
    8.1356    9.4277   22.5731 H   0  0  0  0  0  0  0  0  0  0  0  0
   10.8570   10.3688   23.1311 H   0  0  0  0  0  0  0  0  0  0  0  0
    9.7767   10.9017   21.8290 H   0  0  0  0  0  0  0  0  0  0  0  0
   10.3605   12.8651   21.3472 H   0  0  0  0  0  0  0  0  0  0  0  0
   12.0013   12.9032   22.0811 H   0  0  0  0  0  0  0  0  0  0  0  0
  1  2  1  0  0  0  0
  1  3  2  0  0  0  0
  2  4  2  0  0  0  0
  3  5  1  0  0  0  0
  4  6  1  0  0  0  0
  5  6  2  0  0  0  0
  5  8  1  0  0  0  0
  6 11  1  0  0  0  0
  7 10  1  0  0  0  0
  7 11  1  0  0  0  0
  7 12  2  0  0  0  0
  8  9  1  0  0  0  0
  9 11  1  0  0  0  0
 10 13  1  0  0  0  0
  1 14  1  0  0  0  0
  2 15  1  0  0  0  0
  3 16  1  0  0  0  0
  4 17  1  0  0  0  0
  8 18  1  0  0  0  0
  8 19  1  0  0  0  0
  9 20  1  0  0  0  0
  9 21  1  0  0  0  0
 10 22  1  0  0  0  0
 10 23  1  0  0  0  0
M  END
> <Catalog ID>
Z56869469

> <MW>
195.045

> <MW (desalted)>
195.646

> <ClogP>
1.975

> <logS>
-2.59

> <HBD>
0

> <HBA>
1

> <TPSA>
20.31

> <RotBonds>
1

> <ROCS_ShapeQuery>
A71EV2A-x0451_0A_A71EV2A-x0310_0A_A71EV2A-x0416_0A_peptide

> <ROCS_TanimotoCombo>
0.419 

> <ROCS_ShapeTanimoto>
0.276 

> <ROCS_ColorTanimoto>
0.143 

> <ROCS_RefTversky>
0.245 

> <ROCS_RefColorTversky>
0.144 

> <ROCS_RefTverskyCombo>
0.388 

> <ROCS_FitTversky>
1.865 

> <ROCS_FitColorTversky>
0.978 

> <ROCS_FitTverskyCombo>
2.843 

> <ROCS_ColorScore>
-4.354

> <ROCS_Overlap>
1693.986

> <ROCS_Rank>
353                 

$$$$
untitled-dbase-758_4
  -OEChem-11112315393D

 20 20  0     0  0  0  0  0  0999 V2000
    9.3380   10.2264   23.3034 C   0  0  0  0  0  0  0  0  0  0  0  0
    8.4368   12.2561   24.2545 C   0  0  0  0  0  0  0  0  0  0  0  0
    7.4330   10.1237   24.7857 C   0  0  0  0  0  0  0  0  0  0  0  0
    9.3722   11.6138   23.4433 C   0  0  0  0  0  0  0  0  0  0  0  0
    8.3684    9.4813   23.9745 C   0  0  0  0  0  0  0  0  0  0  0  0
    7.4672   11.5111   24.9257 C   0  0  0  0  0  0  0  0  0  0  0  0
   11.7690   15.2297   21.5581 C   0  0  0  0  0  0  0  0  0  0  0  0
   11.9252   14.0495   22.1661 C   0  0  0  0  0  0  0  0  0  0  0  0
   10.9245   13.5716   23.1639 C   0  0  0  0  0  0  0  0  0  0  0  0
   10.3414   12.3589   22.7712 N   0  0  0  0  0  0  0  0  0  0  0  0
   10.6881   14.2102   24.1826 O   0  0  0  0  0  0  0  0  0  0  0  0
    8.3353    8.1490   23.8395 F   0  0  0  0  0  0  0  0  0  0  0  0
    6.5688   12.1282   25.7045 F   0  0  0  0  0  0  0  0  0  0  0  0
   10.0617    9.7146   22.6741 H   0  0  0  0  0  0  0  0  0  0  0  0
    8.4532   13.3368   24.3708 H   0  0  0  0  0  0  0  0  0  0  0  0
    6.6784    9.5431   25.3080 H   0  0  0  0  0  0  0  0  0  0  0  0
   12.4750   15.6096   20.8281 H   0  0  0  0  0  0  0  0  0  0  0  0
   10.9088   15.8492   21.7893 H   0  0  0  0  0  0  0  0  0  0  0  0
   12.7847   13.4295   21.9353 H   0  0  0  0  0  0  0  0  0  0  0  0
   10.6682   11.9709   21.8779 H   0  0  0  0  0  0  0  0  0  0  0  0
  1  4  2  0  0  0  0
  1  5  1  0  0  0  0
  2  4  1  0  0  0  0
  2  6  2  0  0  0  0
  3  5  2  0  0  0  0
  3  6  1  0  0  0  0
  4 10  1  0  0  0  0
  5 12  1  0  0  0  0
  6 13  1  0  0  0  0
  7  8  2  0  0  0  0
  8  9  1  0  0  0  0
  9 10  1  0  0  0  0
  9 11  2  0  0  0  0
  1 14  1  0  0  0  0
  2 15  1  0  0  0  0
  3 16  1  0  0  0  0
  7 17  1  0  0  0  0
  7 18  1  0  0  0  0
  8 19  1  0  0  0  0
 10 20  1  0  0  0  0
M  END
> <Catalog ID>
Z440633726

> <MW>
183.05

> <MW (desalted)>
183.155

> <ClogP>
2.05

> <logS>
-2.81

> <HBD>
1

> <HBA>
1

> <TPSA>
29.1

> <RotBonds>
2

> <ROCS_ShapeQuery>
A71EV2A-x0451_0A_A71EV2A-x0310_0A_A71EV2A-x0416_0A_peptide

> <ROCS_TanimotoCombo>
0.419 

> <ROCS_ShapeTanimoto>
0.285 

> <ROCS_ColorTanimoto>
0.134 

> <ROCS_RefTversky>
0.251 

> <ROCS_RefColorTversky>
0.139 

> <ROCS_RefTverskyCombo>
0.390 

> <ROCS_FitTversky>
1.922 

> <ROCS_FitColorTversky>
0.785 

> <ROCS_FitTverskyCombo>
2.708 

> <ROCS_ColorScore>
-4.228

> <ROCS_Overlap>
1735.585

> <ROCS_Rank>
354                 

$$$$
untitled-dbase-766_2
  -OEChem-11112315393D

 27 27  0     0  0  0  0  0  0999 V2000
    7.4532   10.1372   24.8506 C   0  0  0  0  0  0  0  0  0  0  0  0
    8.6728    9.5550   24.5055 C   0  0  0  0  0  0  0  0  0  0  0  0
    7.1850   11.4585   24.4929 C   0  0  0  0  0  0  0  0  0  0  0  0
    8.1366   12.1977   23.7903 C   0  0  0  0  0  0  0  0  0  0  0  0
    9.3563   11.6156   23.4452 C   0  0  0  0  0  0  0  0  0  0  0  0
    9.6244   10.2942   23.8028 C   0  0  0  0  0  0  0  0  0  0  0  0
   10.8967   13.5429   23.1713 C   0  0  0  0  0  0  0  0  0  0  0  0
    5.8712   12.0575   24.8760 C   0  0  0  0  0  0  0  0  0  0  0  0
    7.8416   13.6155   23.4110 C   0  0  0  0  0  0  0  0  0  0  0  0
   11.8804   14.0772   22.1562 C   0  0  0  0  0  0  0  0  0  0  0  0
   10.3085   12.3631   22.7404 N   0  0  0  0  0  0  0  0  0  0  0  0
   10.8600    9.6731   23.4652 N   0  3  0  0  0  0  0  0  0  0  0  0
   11.0528    8.4838   23.8096 O   0  5  0  0  0  0  0  0  0  0  0  0
   10.6914   14.1572   24.2146 O   0  0  0  0  0  0  0  0  0  0  0  0
   11.7168   10.3351   22.8343 O   0  0  0  0  0  0  0  0  0  0  0  0
   10.9972   15.1550   21.0635 Cl  0  0  0  0  0  0  0  0  0  0  0  0
    6.7183    9.5528   25.3981 H   0  0  0  0  0  0  0  0  0  0  0  0
    8.8674    8.5239   24.7908 H   0  0  0  0  0  0  0  0  0  0  0  0
    5.9435   12.5324   25.8611 H   0  0  0  0  0  0  0  0  0  0  0  0
    5.5522   12.8118   24.1464 H   0  0  0  0  0  0  0  0  0  0  0  0
    5.0837   11.2947   24.9120 H   0  0  0  0  0  0  0  0  0  0  0  0
    8.1731   14.2939   24.2039 H   0  0  0  0  0  0  0  0  0  0  0  0
    8.3502   13.8869   22.4793 H   0  0  0  0  0  0  0  0  0  0  0  0
    6.7682   13.7629   23.2468 H   0  0  0  0  0  0  0  0  0  0  0  0
   12.3521   13.2867   21.5670 H   0  0  0  0  0  0  0  0  0  0  0  0
   12.6593   14.6482   22.6694 H   0  0  0  0  0  0  0  0  0  0  0  0
   10.5940   12.0092   21.8320 H   0  0  0  0  0  0  0  0  0  0  0  0
  1  2  2  0  0  0  0
  1  3  1  0  0  0  0
  2  6  1  0  0  0  0
  3  4  2  0  0  0  0
  3  8  1  0  0  0  0
  4  5  1  0  0  0  0
  4  9  1  0  0  0  0
  5  6  2  0  0  0  0
  5 11  1  0  0  0  0
  6 12  1  0  0  0  0
  7 10  1  0  0  0  0
  7 11  1  0  0  0  0
  7 14  2  0  0  0  0
 10 16  1  0  0  0  0
 12 13  1  0  0  0  0
 12 15  2  0  0  0  0
  1 17  1  0  0  0  0
  2 18  1  0  0  0  0
  8 19  1  0  0  0  0
  8 20  1  0  0  0  0
  8 21  1  0  0  0  0
  9 22  1  0  0  0  0
  9 23  1  0  0  0  0
  9 24  1  0  0  0  0
 10 25  1  0  0  0  0
 10 26  1  0  0  0  0
 11 27  1  0  0  0  0
M  CHG  2  12   1  13  -1
M  END
> <Catalog ID>
Z90123519

> <MW>
242.046

> <MW (desalted)>
242.659

> <ClogP>
1.907

> <logS>
-3.69

> <HBD>
1

> <HBA>
3

> <TPSA>
72.24

> <RotBonds>
3

> <ROCS_ShapeQuery>
A71EV2A-x0451_0A_A71EV2A-x0310_0A_A71EV2A-x0416_0A_peptide

> <ROCS_TanimotoCombo>
0.419 

> <ROCS_ShapeTanimoto>
0.288 

> <ROCS_ColorTanimoto>
0.131 

> <ROCS_RefTversky>
0.257 

> <ROCS_RefColorTversky>
0.140 

> <ROCS_RefTverskyCombo>
0.397 

> <ROCS_FitTversky>
1.737 

> <ROCS_FitColorTversky>
0.670 

> <ROCS_FitTverskyCombo>
2.407 

> <ROCS_ColorScore>
-4.254

> <ROCS_Overlap>
1779.533

> <ROCS_Rank>
355                 

$$$$
untitled-dbase-187_261
  -OEChem-11112315393D

 32 32  0     1  0  0  0  0  0999 V2000
   12.2293   14.8912   21.3098 C   0  0  0  0  0  0  0  0  0  0  0  0
   11.1311   15.0510   22.0544 C   0  0  0  0  0  0  0  0  0  0  0  0
   10.7650   14.0406   23.0826 C   0  0  0  0  0  0  0  0  0  0  0  0
    7.1312   10.1144   24.7840 C   0  0  0  0  0  0  0  0  0  0  0  0
    9.9679   10.4039   22.4578 C   0  0  0  0  0  0  0  0  0  0  0  0
    9.0771    9.5425   23.3389 C   0  0  0  0  0  0  0  0  0  0  0  0
    8.8446   11.8427   23.9993 C   0  0  0  0  0  0  0  0  0  0  0  0
   10.1948   11.6429   23.3194 C   0  0  2  0  0  0  0  0  0  0  0  0
    5.9533    7.9464   26.8024 C   0  0  0  0  0  0  0  0  0  0  0  0
    5.6806    8.1842   25.3561 C   0  0  0  0  0  0  0  0  0  0  0  0
    8.2769   10.4982   24.0914 N   0  0  0  0  0  0  0  0  0  0  0  0
   10.5618   12.7875   22.5276 N   0  0  0  0  0  0  0  0  0  0  0  0
    6.8297    8.7600   24.6969 N   0  0  0  0  0  0  0  0  0  0  0  0
   10.6609   14.3180   24.2731 O   0  0  0  0  0  0  0  0  0  0  0  0
    6.4420   10.9114   25.4265 O   0  0  0  0  0  0  0  0  0  0  0  0
   12.4892   15.6320   20.5609 H   0  0  0  0  0  0  0  0  0  0  0  0
   12.8904   14.0385   21.4189 H   0  0  0  0  0  0  0  0  0  0  0  0
   10.4966   15.9193   21.9136 H   0  0  0  0  0  0  0  0  0  0  0  0
   10.9217    9.8961   22.2858 H   0  0  0  0  0  0  0  0  0  0  0  0
    9.5172   10.6247   21.4890 H   0  0  0  0  0  0  0  0  0  0  0  0
    8.3914    8.9283   22.7453 H   0  0  0  0  0  0  0  0  0  0  0  0
    9.6413    8.8913   24.0121 H   0  0  0  0  0  0  0  0  0  0  0  0
    8.9711   12.2160   25.0209 H   0  0  0  0  0  0  0  0  0  0  0  0
    8.1758   12.5172   23.4577 H   0  0  0  0  0  0  0  0  0  0  0  0
   10.9980   11.4878   24.0514 H   0  0  0  0  0  0  0  0  0  0  0  0
    6.2016    8.9002   27.2909 H   0  0  0  0  0  0  0  0  0  0  0  0
    5.0608    7.5128   27.2772 H   0  0  0  0  0  0  0  0  0  0  0  0
    6.7986    7.2503   26.9063 H   0  0  0  0  0  0  0  0  0  0  0  0
    5.4332    7.2264   24.8751 H   0  0  0  0  0  0  0  0  0  0  0  0
    4.8287    8.8736   25.2600 H   0  0  0  0  0  0  0  0  0  0  0  0
   10.6407   12.6594   21.5219 H   0  0  0  0  0  0  0  0  0  0  0  0
    7.3824    8.1538   24.1046 H   0  0  0  0  0  0  0  0  0  0  0  0
  1  2  2  0  0  0  0
  2  3  1  0  0  0  0
  3 12  1  0  0  0  0
  3 14  2  0  0  0  0
  4 11  1  0  0  0  0
  4 13  1  0  0  0  0
  4 15  2  0  0  0  0
  5  6  1  0  0  0  0
  5  8  1  0  0  0  0
  6 11  1  0  0  0  0
  7  8  1  0  0  0  0
  7 11  1  0  0  0  0
  8 12  1  0  0  0  0
  9 10  1  0  0  0  0
 10 13  1  0  0  0  0
  1 16  1  0  0  0  0
  1 17  1  0  0  0  0
  2 18  1  0  0  0  0
  5 19  1  0  0  0  0
  5 20  1  0  0  0  0
  6 21  1  0  0  0  0
  6 22  1  0  0  0  0
  7 23  1  0  0  0  0
  7 24  1  0  0  0  0
  8 25  1  0  0  0  0
  9 26  1  0  0  0  0
  9 27  1  0  0  0  0
  9 28  1  0  0  0  0
 10 29  1  0  0  0  0
 10 30  1  0  0  0  0
 12 31  1  0  0  0  0
 13 32  1  0  0  0  0
M  END
> <Catalog ID>
Z2285377727

> <MW>
211.261

> <MW (desalted)>
211.261

> <ClogP>
-0.071

> <logS>
-1.68

> <HBD>
2

> <HBA>
2

> <TPSA>
61.44

> <RotBonds>
3

> <ROCS_ShapeQuery>
A71EV2A-x0451_0A_A71EV2A-x0310_0A_A71EV2A-x0416_0A_peptide

> <ROCS_TanimotoCombo>
0.419 

> <ROCS_ShapeTanimoto>
0.263 

> <ROCS_ColorTanimoto>
0.156 

> <ROCS_RefTversky>
0.238 

> <ROCS_RefColorTversky>
0.167 

> <ROCS_RefTverskyCombo>
0.405 

> <ROCS_FitTversky>
1.697 

> <ROCS_FitColorTversky>
0.698 

> <ROCS_FitTverskyCombo>
2.395 

> <ROCS_ColorScore>
-5.084

> <ROCS_Overlap>
1645.622

> <ROCS_Rank>
356                 

$$$$
untitled-dbase-746_143
  -OEChem-11112315393D

 34 35  0     0  0  0  0  0  0999 V2000
    7.7643    9.9472   24.4018 C   0  0  0  0  0  0  0  0  0  0  0  0
    8.9225    9.6450   23.6857 C   0  0  0  0  0  0  0  0  0  0  0  0
    7.4820   11.2692   24.7459 C   0  0  0  0  0  0  0  0  0  0  0  0
    9.7986   10.6647   23.3138 C   0  0  0  0  0  0  0  0  0  0  0  0
    8.3580   12.2889   24.3739 C   0  0  0  0  0  0  0  0  0  0  0  0
    9.5163   11.9867   23.6579 C   0  0  0  0  0  0  0  0  0  0  0  0
   15.5837   13.5542   25.2310 C   0  0  0  0  0  0  0  0  0  0  0  0
   13.2240   12.8198   25.3569 C   0  0  0  0  0  0  0  0  0  0  0  0
   13.9527   14.0552   23.3443 C   0  0  0  0  0  0  0  0  0  0  0  0
   12.5238   11.7931   24.4754 C   0  0  0  0  0  0  0  0  0  0  0  0
   13.2480   13.0298   22.4626 C   0  0  0  0  0  0  0  0  0  0  0  0
   16.6644   14.2292   24.4247 C   0  0  0  0  0  0  0  0  0  0  0  0
   14.3252   13.4652   24.6373 N   0  0  0  0  0  0  0  0  0  0  0  0
   12.0998   12.4179   23.1901 N   0  0  0  0  0  0  0  0  0  0  0  0
   15.8522   13.1172   26.3530 O   0  0  0  0  0  0  0  0  0  0  0  0
   10.3058   13.6617   21.8291 O   0  0  0  0  0  0  0  0  0  0  0  0
   10.6495   14.2551   24.2534 O   0  0  0  0  0  0  0  0  0  0  0  0
   10.9088   10.3617   22.6267 F   0  0  0  0  0  0  0  0  0  0  0  0
    8.0753   13.5555   24.7096 F   0  0  0  0  0  0  0  0  0  0  0  0
   10.6248   13.2773   23.1871 S   0  0  0  0  0  0  0  0  0  0  0  0
   18.1131   14.2293   25.4243 Cl  0  0  0  0  0  0  0  0  0  0  0  0
    7.0828    9.1523   24.6905 H   0  0  0  0  0  0  0  0  0  0  0  0
    9.1437    8.6160   23.4184 H   0  0  0  0  0  0  0  0  0  0  0  0
    6.5801   11.5041   25.3030 H   0  0  0  0  0  0  0  0  0  0  0  0
   12.5246   13.6157   25.6461 H   0  0  0  0  0  0  0  0  0  0  0  0
   13.5618   12.3378   26.2779 H   0  0  0  0  0  0  0  0  0  0  0  0
   14.8329   14.4490   22.8284 H   0  0  0  0  0  0  0  0  0  0  0  0
   13.2880   14.8999   23.5592 H   0  0  0  0  0  0  0  0  0  0  0  0
   13.1868   10.9386   24.2732 H   0  0  0  0  0  0  0  0  0  0  0  0
   11.6370   11.4155   25.0043 H   0  0  0  0  0  0  0  0  0  0  0  0
   12.8775   13.5343   21.5577 H   0  0  0  0  0  0  0  0  0  0  0  0
   13.9503   12.2430   22.1455 H   0  0  0  0  0  0  0  0  0  0  0  0
   16.3596   15.2474   24.2112 H   0  0  0  0  0  0  0  0  0  0  0  0
   16.8364   13.6579   23.5197 H   0  0  0  0  0  0  0  0  0  0  0  0
  1  2  2  0  0  0  0
  1  3  1  0  0  0  0
  2  4  1  0  0  0  0
  3  5  2  0  0  0  0
  4  6  2  0  0  0  0
  4 18  1  0  0  0  0
  5  6  1  0  0  0  0
  5 19  1  0  0  0  0
  6 20  1  0  0  0  0
  7 12  1  0  0  0  0
  7 13  1  0  0  0  0
  7 15  2  0  0  0  0
  8 10  1  0  0  0  0
  8 13  1  0  0  0  0
  9 11  1  0  0  0  0
  9 13  1  0  0  0  0
 10 14  1  0  0  0  0
 11 14  1  0  0  0  0
 12 21  1  0  0  0  0
 14 20  1  0  0  0  0
 16 20  2  0  0  0  0
 17 20  2  0  0  0  0
  1 22  1  0  0  0  0
  2 23  1  0  0  0  0
  3 24  1  0  0  0  0
  8 25  1  0  0  0  0
  8 26  1  0  0  0  0
  9 27  1  0  0  0  0
  9 28  1  0  0  0  0
 10 29  1  0  0  0  0
 10 30  1  0  0  0  0
 11 31  1  0  0  0  0
 11 32  1  0  0  0  0
 12 33  1  0  0  0  0
 12 34  1  0  0  0  0
M  END
> <Catalog ID>
Z147647646

> <MW>
338.03

> <MW (desalted)>
338.758

> <ClogP>
1.763

> <logS>
-3.33

> <HBD>
0

> <HBA>
3

> <TPSA>
57.69

> <RotBonds>
2

> <ROCS_ShapeQuery>
A71EV2A-x0451_0A_A71EV2A-x0310_0A_A71EV2A-x0416_0A_peptide

> <ROCS_TanimotoCombo>
0.419 

> <ROCS_ShapeTanimoto>
0.286 

> <ROCS_ColorTanimoto>
0.134 

> <ROCS_RefTversky>
0.261 

> <ROCS_RefColorTversky>
0.142 

> <ROCS_RefTverskyCombo>
0.404 

> <ROCS_FitTversky>
1.479 

> <ROCS_FitColorTversky>
0.682 

> <ROCS_FitTverskyCombo>
2.161 

> <ROCS_ColorScore>
-4.324

> <ROCS_Overlap>
1814.115

> <ROCS_Rank>
357                 

$$$$
untitled-dbase-710_100
  -OEChem-11112315393D

 25 25  0     0  0  0  0  0  0999 V2000
    8.9302   12.3304   24.4228 C   0  0  0  0  0  0  0  0  0  0  0  0
    7.7251   11.7235   24.7761 C   0  0  0  0  0  0  0  0  0  0  0  0
    8.3847    9.7239   23.5912 C   0  0  0  0  0  0  0  0  0  0  0  0
    9.8626   11.6341   23.6537 C   0  0  0  0  0  0  0  0  0  0  0  0
    9.5899   10.3309   23.2379 C   0  0  0  0  0  0  0  0  0  0  0  0
    7.4523   10.4202   24.3603 C   0  0  0  0  0  0  0  0  0  0  0  0
   10.7287   14.6211   22.5090 C   0  0  0  0  0  0  0  0  0  0  0  0
   11.1455   12.3053   23.2870 C   0  0  0  0  0  0  0  0  0  0  0  0
   10.6018   15.4595   21.2627 C   0  0  0  0  0  0  0  0  0  0  0  0
   10.5719    9.5662   22.4123 C   0  0  0  0  0  0  0  0  0  0  0  0
   10.9715   13.2818   22.2430 N   0  0  0  0  0  0  0  0  0  0  0  0
   10.6373   15.1116   23.6329 O   0  0  0  0  0  0  0  0  0  0  0  0
    6.2954    9.8370   24.7000 F   0  0  0  0  0  0  0  0  0  0  0  0
   10.1505    8.3086   22.0893 F   0  0  0  0  0  0  0  0  0  0  0  0
   10.8626   10.1635   21.2197 F   0  0  0  0  0  0  0  0  0  0  0  0
   11.7700    9.4020   23.0433 F   0  0  0  0  0  0  0  0  0  0  0  0
   11.6094   14.7236   20.0064 Cl  0  0  0  0  0  0  0  0  0  0  0  0
    9.1332   13.3467   24.7505 H   0  0  0  0  0  0  0  0  0  0  0  0
    6.9991   12.2666   25.3736 H   0  0  0  0  0  0  0  0  0  0  0  0
    8.1621    8.7093   23.2717 H   0  0  0  0  0  0  0  0  0  0  0  0
   11.5822   12.8203   24.1532 H   0  0  0  0  0  0  0  0  0  0  0  0
   11.8919   11.5798   22.9378 H   0  0  0  0  0  0  0  0  0  0  0  0
    9.5732   15.5165   20.8979 H   0  0  0  0  0  0  0  0  0  0  0  0
   10.9650   16.4705   21.4665 H   0  0  0  0  0  0  0  0  0  0  0  0
   11.0289   12.9778   21.2738 H   0  0  0  0  0  0  0  0  0  0  0  0
  1  2  2  0  0  0  0
  1  4  1  0  0  0  0
  2  6  1  0  0  0  0
  3  5  1  0  0  0  0
  3  6  2  0  0  0  0
  4  5  2  0  0  0  0
  4  8  1  0  0  0  0
  5 10  1  0  0  0  0
  6 13  1  0  0  0  0
  7  9  1  0  0  0  0
  7 11  1  0  0  0  0
  7 12  2  0  0  0  0
  8 11  1  0  0  0  0
  9 17  1  0  0  0  0
 10 14  1  0  0  0  0
 10 15  1  0  0  0  0
 10 16  1  0  0  0  0
  1 18  1  0  0  0  0
  2 19  1  0  0  0  0
  3 20  1  0  0  0  0
  8 21  1  0  0  0  0
  8 22  1  0  0  0  0
  9 23  1  0  0  0  0
  9 24  1  0  0  0  0
 11 25  1  0  0  0  0
M  END
> <Catalog ID>
Z561870288

> <MW>
269.023

> <MW (desalted)>
269.623

> <ClogP>
2.589

> <logS>
-3.363

> <HBD>
1

> <HBA>
1

> <TPSA>
29.1

> <RotBonds>
4

> <ROCS_ShapeQuery>
A71EV2A-x0451_0A_A71EV2A-x0310_0A_A71EV2A-x0416_0A_peptide

> <ROCS_TanimotoCombo>
0.419 

> <ROCS_ShapeTanimoto>
0.289 

> <ROCS_ColorTanimoto>
0.130 

> <ROCS_RefTversky>
0.259 

> <ROCS_RefColorTversky>
0.132 

> <ROCS_RefTverskyCombo>
0.391 

> <ROCS_FitTversky>
1.676 

> <ROCS_FitColorTversky>
0.900 

> <ROCS_FitTverskyCombo>
2.576 

> <ROCS_ColorScore>
-3.992

> <ROCS_Overlap>
1793.540

> <ROCS_Rank>
358                 

$$$$
untitled-dbase-597_163
  -OEChem-11112315393D

 31 32  0     1  0  0  0  0  0999 V2000
    5.9668   10.5265   26.1775 C   0  0  0  0  0  0  0  0  0  0  0  0
    6.9001   11.1241   27.0194 C   0  0  0  0  0  0  0  0  0  0  0  0
    6.2635   10.3385   24.8273 C   0  0  0  0  0  0  0  0  0  0  0  0
    8.1336   11.5361   26.5142 C   0  0  0  0  0  0  0  0  0  0  0  0
    7.8156   10.5656   22.9453 C   0  0  0  0  0  0  0  0  0  0  0  0
    9.0490   10.9777   22.4401 C   0  0  0  0  0  0  0  0  0  0  0  0
    9.6857   11.7634   24.6321 C   0  0  0  0  0  0  0  0  0  0  0  0
    7.5001   10.7470   24.3017 C   0  0  0  0  0  0  0  0  0  0  0  0
    8.4491   11.3548   25.1578 C   0  0  0  0  0  0  0  0  0  0  0  0
    9.9823   11.5753   23.2819 C   0  0  0  0  0  0  0  0  0  0  0  0
   10.8933   14.4526   22.9247 C   0  0  0  0  0  0  0  0  0  0  0  0
   12.4346   11.9450   23.7734 C   0  0  0  0  0  0  0  0  0  0  0  0
   10.9165   15.7328   22.1292 C   0  0  0  0  0  0  0  0  0  0  0  0
   11.3006   12.0150   22.7400 C   0  0  2  0  0  0  0  0  0  0  0  0
   11.2393   13.3502   22.1702 N   0  0  0  0  0  0  0  0  0  0  0  0
   10.6072   14.4371   24.1206 O   0  0  0  0  0  0  0  0  0  0  0  0
   12.1390   15.5628   20.8597 Cl  0  0  0  0  0  0  0  0  0  0  0  0
    5.0069   10.2064   26.5716 H   0  0  0  0  0  0  0  0  0  0  0  0
    6.6682   11.2706   28.0702 H   0  0  0  0  0  0  0  0  0  0  0  0
    5.5186    9.8687   24.1880 H   0  0  0  0  0  0  0  0  0  0  0  0
    8.8479   12.0014   27.1906 H   0  0  0  0  0  0  0  0  0  0  0  0
    7.1010   10.1009   22.2688 H   0  0  0  0  0  0  0  0  0  0  0  0
    9.2720   10.8278   21.3870 H   0  0  0  0  0  0  0  0  0  0  0  0
   10.4249   12.2320   25.2800 H   0  0  0  0  0  0  0  0  0  0  0  0
   12.2028   12.5669   24.6450 H   0  0  0  0  0  0  0  0  0  0  0  0
   12.5922   10.9179   24.1216 H   0  0  0  0  0  0  0  0  0  0  0  0
   13.3857   12.2920   23.3541 H   0  0  0  0  0  0  0  0  0  0  0  0
    9.9541   15.9539   21.6612 H   0  0  0  0  0  0  0  0  0  0  0  0
   11.1940   16.5628   22.7847 H   0  0  0  0  0  0  0  0  0  0  0  0
   11.6003   11.3695   21.8956 H   0  0  0  0  0  0  0  0  0  0  0  0
   11.4568   13.4755   21.1905 H   0  0  0  0  0  0  0  0  0  0  0  0
  1  2  1  0  0  0  0
  1  3  2  0  0  0  0
  2  4  2  0  0  0  0
  3  8  1  0  0  0  0
  4  9  1  0  0  0  0
  5  6  2  0  0  0  0
  5  8  1  0  0  0  0
  6 10  1  0  0  0  0
  7  9  1  0  0  0  0
  7 10  2  0  0  0  0
  8  9  2  0  0  0  0
 10 14  1  0  0  0  0
 11 13  1  0  0  0  0
 11 15  1  0  0  0  0
 11 16  2  0  0  0  0
 12 14  1  0  0  0  0
 13 17  1  0  0  0  0
 14 15  1  0  0  0  0
  1 18  1  0  0  0  0
  2 19  1  0  0  0  0
  3 20  1  0  0  0  0
  4 21  1  0  0  0  0
  5 22  1  0  0  0  0
  6 23  1  0  0  0  0
  7 24  1  0  0  0  0
 12 25  1  0  0  0  0
 12 26  1  0  0  0  0
 12 27  1  0  0  0  0
 13 28  1  0  0  0  0
 13 29  1  0  0  0  0
 14 30  1  0  0  0  0
 15 31  1  0  0  0  0
M  END
> <Catalog ID>
Z56347358

> <MW>
247.076

> <MW (desalted)>
247.72

> <ClogP>
3.046

> <logS>
-4.24

> <HBD>
1

> <HBA>
1

> <TPSA>
29.1

> <RotBonds>
3

> <ROCS_ShapeQuery>
A71EV2A-x0451_0A_A71EV2A-x0310_0A_A71EV2A-x0416_0A_peptide

> <ROCS_TanimotoCombo>
0.419 

> <ROCS_ShapeTanimoto>
0.265 

> <ROCS_ColorTanimoto>
0.153 

> <ROCS_RefTversky>
0.242 

> <ROCS_RefColorTversky>
0.157 

> <ROCS_RefTverskyCombo>
0.399 

> <ROCS_FitTversky>
1.569 

> <ROCS_FitColorTversky>
0.881 

> <ROCS_FitTverskyCombo>
2.450 

> <ROCS_ColorScore>
-4.749

> <ROCS_Overlap>
1678.349

> <ROCS_Rank>
359                 

$$$$
untitled-dbase-936_7
  -OEChem-11112315393D

 19 19  0     0  0  0  0  0  0999 V2000
    7.4275   10.1622   24.8112 C   0  0  0  0  0  0  0  0  0  0  0  0
    8.3425    9.5022   23.9910 C   0  0  0  0  0  0  0  0  0  0  0  0
    8.4596   12.2763   24.2614 C   0  0  0  0  0  0  0  0  0  0  0  0
    9.3746   11.6164   23.4413 C   0  0  0  0  0  0  0  0  0  0  0  0
    7.4860   11.5493   24.9464 C   0  0  0  0  0  0  0  0  0  0  0  0
    9.3161   10.2292   23.3060 C   0  0  0  0  0  0  0  0  0  0  0  0
   10.9224   13.5398   23.1812 C   0  0  0  0  0  0  0  0  0  0  0  0
   11.9434   14.0522   22.1920 C   0  0  0  0  0  0  0  0  0  0  0  0
   10.3483   12.3462   22.7587 N   0  0  0  0  0  0  0  0  0  0  0  0
   10.6769   14.1777   24.2014 O   0  0  0  0  0  0  0  0  0  0  0  0
    6.6081   12.1829   25.7350 F   0  0  0  0  0  0  0  0  0  0  0  0
   10.1902    9.5844   22.5202 F   0  0  0  0  0  0  0  0  0  0  0  0
   11.4470   13.5185   20.5782 Cl  0  0  0  0  0  0  0  0  0  0  0  0
    6.6693    9.5968   25.3449 H   0  0  0  0  0  0  0  0  0  0  0  0
    8.2970    8.4222   23.8855 H   0  0  0  0  0  0  0  0  0  0  0  0
    8.4963   13.3567   24.3759 H   0  0  0  0  0  0  0  0  0  0  0  0
   12.9511   13.6796   22.3924 H   0  0  0  0  0  0  0  0  0  0  0  0
   11.9589   15.1454   22.2181 H   0  0  0  0  0  0  0  0  0  0  0  0
   10.6681   11.9697   21.8683 H   0  0  0  0  0  0  0  0  0  0  0  0
  1  2  2  0  0  0  0
  1  5  1  0  0  0  0
  2  6  1  0  0  0  0
  3  4  1  0  0  0  0
  3  5  2  0  0  0  0
  4  6  2  0  0  0  0
  4  9  1  0  0  0  0
  5 11  1  0  0  0  0
  6 12  1  0  0  0  0
  7  8  1  0  0  0  0
  7  9  1  0  0  0  0
  7 10  2  0  0  0  0
  8 13  1  0  0  0  0
  1 14  1  0  0  0  0
  2 15  1  0  0  0  0
  3 16  1  0  0  0  0
  8 17  1  0  0  0  0
  8 18  1  0  0  0  0
  9 19  1  0  0  0  0
M  END
> <Catalog ID>
Z56889139

> <MW>
205.011

> <MW (desalted)>
205.589

> <ClogP>
1.808

> <logS>
-2.76

> <HBD>
1

> <HBA>
1

> <TPSA>
29.1

> <RotBonds>
2

> <ROCS_ShapeQuery>
A71EV2A-x0451_0A_A71EV2A-x0310_0A_A71EV2A-x0416_0A_peptide

> <ROCS_TanimotoCombo>
0.419 

> <ROCS_ShapeTanimoto>
0.279 

> <ROCS_ColorTanimoto>
0.140 

> <ROCS_RefTversky>
0.246 

> <ROCS_RefColorTversky>
0.141 

> <ROCS_RefTverskyCombo>
0.387 

> <ROCS_FitTversky>
1.905 

> <ROCS_FitColorTversky>
0.960 

> <ROCS_FitTverskyCombo>
2.864 

> <ROCS_ColorScore>
-4.258

> <ROCS_Overlap>
1704.953

> <ROCS_Rank>
360                 

$$$$
untitled-dbase-897_25
  -OEChem-11112315393D

 31 32  0     1  0  0  0  0  0999 V2000
    9.8683    9.3812   23.8417 C   0  0  0  0  0  0  0  0  0  0  0  0
   12.4374   14.3306   22.3262 C   0  0  0  0  0  0  0  0  0  0  0  0
   11.7842   13.1865   22.5394 C   0  0  0  0  0  0  0  0  0  0  0  0
   10.7409   13.1442   23.5861 C   0  0  0  0  0  0  0  0  0  0  0  0
   10.6924   10.6210   23.5430 C   0  0  0  0  0  0  0  0  0  0  0  0
    6.3003   11.5317   25.6916 C   0  0  0  0  0  0  0  0  0  0  0  0
    7.5370   11.3247   26.5511 C   0  0  0  0  0  0  0  0  0  0  0  0
    6.4327   10.8541   24.3266 C   0  0  0  0  0  0  0  0  0  0  0  0
    8.7926   11.9075   25.8999 C   0  0  0  0  0  0  0  0  0  0  0  0
    7.8635   10.8423   23.7638 C   0  0  1  0  0  0  0  0  0  0  0  0
    8.7239   11.9550   24.3596 C   0  0  2  0  0  0  0  0  0  0  0  0
    8.5123    9.5599   23.9715 N   0  0  0  0  0  0  0  0  0  0  0  0
   10.0760   11.9297   23.7833 N   0  0  0  0  0  0  0  0  0  0  0  0
   10.3983    8.2701   23.8883 O   0  0  0  0  0  0  0  0  0  0  0  0
   10.5197   14.1770   24.2201 O   0  0  0  0  0  0  0  0  0  0  0  0
   13.2126   14.4236   21.5730 H   0  0  0  0  0  0  0  0  0  0  0  0
   12.2007   15.2104   22.9153 H   0  0  0  0  0  0  0  0  0  0  0  0
   11.9916   12.2884   21.9724 H   0  0  0  0  0  0  0  0  0  0  0  0
   11.5972   10.5693   24.1558 H   0  0  0  0  0  0  0  0  0  0  0  0
   10.9759   10.5695   22.4881 H   0  0  0  0  0  0  0  0  0  0  0  0
    5.4166   11.1395   26.2142 H   0  0  0  0  0  0  0  0  0  0  0  0
    6.1260   12.6067   25.5486 H   0  0  0  0  0  0  0  0  0  0  0  0
    7.3863   11.7972   27.5311 H   0  0  0  0  0  0  0  0  0  0  0  0
    7.6853   10.2538   26.7370 H   0  0  0  0  0  0  0  0  0  0  0  0
    6.0400    9.8245   24.3851 H   0  0  0  0  0  0  0  0  0  0  0  0
    5.7771   11.3762   23.6077 H   0  0  0  0  0  0  0  0  0  0  0  0
    8.9588   12.9255   26.2976 H   0  0  0  0  0  0  0  0  0  0  0  0
    9.6677   11.3145   26.2254 H   0  0  0  0  0  0  0  0  0  0  0  0
    7.8118   10.9725   22.6710 H   0  0  0  0  0  0  0  0  0  0  0  0
    8.2634   12.9146   24.0868 H   0  0  0  0  0  0  0  0  0  0  0  0
    7.9425    8.7649   24.2223 H   0  0  0  0  0  0  0  0  0  0  0  0
  1  5  1  0  0  0  0
  1 12  1  0  0  0  0
  1 14  2  0  0  0  0
  2  3  2  0  0  0  0
  3  4  1  0  0  0  0
  4 13  1  0  0  0  0
  4 15  2  0  0  0  0
  5 13  1  0  0  0  0
  6  7  1  0  0  0  0
  6  8  1  0  0  0  0
  7  9  1  0  0  0  0
  8 10  1  0  0  0  0
  9 11  1  0  0  0  0
 10 11  1  0  0  0  0
 10 12  1  0  0  0  0
 11 13  1  0  0  0  0
  2 16  1  0  0  0  0
  2 17  1  0  0  0  0
  3 18  1  0  0  0  0
  5 19  1  0  0  0  0
  5 20  1  0  0  0  0
  6 21  1  0  0  0  0
  6 22  1  0  0  0  0
  7 23  1  0  0  0  0
  7 24  1  0  0  0  0
  8 25  1  0  0  0  0
  8 26  1  0  0  0  0
  9 27  1  0  0  0  0
  9 28  1  0  0  0  0
 10 29  1  0  0  0  0
 11 30  1  0  0  0  0
 12 31  1  0  0  0  0
M  END
> <Catalog ID>
Z2737376702

> <MW>
208.257

> <MW (desalted)>
208.257

> <ClogP>
1.115

> <logS>
-1.91

> <HBD>
1

> <HBA>
2

> <TPSA>
49.41

> <RotBonds>
1

> <ROCS_ShapeQuery>
A71EV2A-x0451_0A_A71EV2A-x0310_0A_A71EV2A-x0416_0A_peptide

> <ROCS_TanimotoCombo>
0.419 

> <ROCS_ShapeTanimoto>
0.279 

> <ROCS_ColorTanimoto>
0.140 

> <ROCS_RefTversky>
0.249 

> <ROCS_RefColorTversky>
0.152 

> <ROCS_RefTverskyCombo>
0.401 

> <ROCS_FitTversky>
1.750 

> <ROCS_FitColorTversky>
0.634 

> <ROCS_FitTverskyCombo>
2.384 

> <ROCS_ColorScore>
-4.627

> <ROCS_Overlap>
1725.482

> <ROCS_Rank>
361                 

$$$$
untitled-dbase-12_69
  -OEChem-11112315393D

 36 37  0     1  0  0  0  0  0999 V2000
    7.6937   10.2110   24.5558 C   0  0  0  0  0  0  0  0  0  0  0  0
    7.7733   11.5824   24.6135 C   0  0  0  0  0  0  0  0  0  0  0  0
    9.4752   10.9602   23.4969 C   0  0  0  0  0  0  0  0  0  0  0  0
   10.1898   15.0603   20.1990 C   0  0  0  0  0  0  0  0  0  0  0  0
    9.7009   14.9030   21.4309 C   0  0  0  0  0  0  0  0  0  0  0  0
   10.6221   14.5256   22.5206 C   0  0  0  0  0  0  0  0  0  0  0  0
   12.6263   12.0792   24.0575 C   0  0  0  0  0  0  0  0  0  0  0  0
   12.0900   10.7659   23.4728 C   0  0  0  0  0  0  0  0  0  0  0  0
   12.6371   13.1997   23.0249 C   0  0  0  0  0  0  0  0  0  0  0  0
   10.8773   12.1105   21.7097 C   0  0  0  0  0  0  0  0  0  0  0  0
   10.7660   10.9175   22.6848 C   0  0  2  0  0  0  0  0  0  0  0  0
    9.1460    8.4666   23.5077 C   0  0  0  0  0  0  0  0  0  0  0  0
    6.8481   12.5213   25.2667 C   0  0  0  0  0  0  0  0  0  0  0  0
    8.8843   12.0426   23.9521 N   0  0  0  0  0  0  0  0  0  0  0  0
    8.7904    9.8268   23.8370 N   0  0  0  0  0  0  0  0  0  0  0  0
   11.3187   13.3267   22.4056 N   0  0  0  0  0  0  0  0  0  0  0  0
   10.7176   15.3002   23.4748 O   0  0  0  0  0  0  0  0  0  0  0  0
    5.7789   11.9238   25.8899 F   0  0  0  0  0  0  0  0  0  0  0  0
    7.4225   13.2929   26.2481 F   0  0  0  0  0  0  0  0  0  0  0  0
    6.2849   13.4243   24.3995 F   0  0  0  0  0  0  0  0  0  0  0  0
    6.9791    9.5009   24.9488 H   0  0  0  0  0  0  0  0  0  0  0  0
    9.5630   15.3368   19.3578 H   0  0  0  0  0  0  0  0  0  0  0  0
   11.2477   14.9115   20.0102 H   0  0  0  0  0  0  0  0  0  0  0  0
    8.6522   15.0429   21.6585 H   0  0  0  0  0  0  0  0  0  0  0  0
   12.0097   12.3730   24.9171 H   0  0  0  0  0  0  0  0  0  0  0  0
   13.6447   11.9191   24.4396 H   0  0  0  0  0  0  0  0  0  0  0  0
   12.8656   10.3137   22.8204 H   0  0  0  0  0  0  0  0  0  0  0  0
   11.9520   10.0360   24.2991 H   0  0  0  0  0  0  0  0  0  0  0  0
   12.8773   14.1592   23.4963 H   0  0  0  0  0  0  0  0  0  0  0  0
   13.4067   12.9997   22.2736 H   0  0  0  0  0  0  0  0  0  0  0  0
   11.5270   11.8559   20.8640 H   0  0  0  0  0  0  0  0  0  0  0  0
    9.8939   12.3353   21.2642 H   0  0  0  0  0  0  0  0  0  0  0  0
   10.6686    9.9887   22.0175 H   0  0  0  0  0  0  0  0  0  0  0  0
    8.6772    8.2174   22.5521 H   0  0  0  0  0  0  0  0  0  0  0  0
   10.2338    8.3824   23.4334 H   0  0  0  0  0  0  0  0  0  0  0  0
    8.7881    7.7986   24.2961 H   0  0  0  0  0  0  0  0  0  0  0  0
  1  2  2  0  0  0  0
  1 15  1  0  0  0  0
  2 13  1  0  0  0  0
  2 14  1  0  0  0  0
  3 11  1  0  0  0  0
  3 14  2  0  0  0  0
  3 15  1  0  0  0  0
  4  5  2  0  0  0  0
  5  6  1  0  0  0  0
  6 16  1  0  0  0  0
  6 17  2  0  0  0  0
  7  8  1  0  0  0  0
  7  9  1  0  0  0  0
  8 11  1  0  0  0  0
  9 16  1  0  0  0  0
 10 11  1  0  0  0  0
 10 16  1  0  0  0  0
 12 15  1  0  0  0  0
 13 18  1  0  0  0  0
 13 19  1  0  0  0  0
 13 20  1  0  0  0  0
  1 21  1  0  0  0  0
  4 22  1  0  0  0  0
  4 23  1  0  0  0  0
  5 24  1  0  0  0  0
  7 25  1  0  0  0  0
  7 26  1  0  0  0  0
  8 27  1  0  0  0  0
  8 28  1  0  0  0  0
  9 29  1  0  0  0  0
  9 30  1  0  0  0  0
 10 31  1  0  0  0  0
 10 32  1  0  0  0  0
 11 33  1  0  0  0  0
 12 34  1  0  0  0  0
 12 35  1  0  0  0  0
 12 36  1  0  0  0  0
M  END
> <Catalog ID>
Z2867490848

> <MW>
287.281

> <MW (desalted)>
287.281

> <ClogP>
1.181

> <logS>
-2.182

> <HBD>
0

> <HBA>
2

> <TPSA>
38.13

> <RotBonds>
3

> <ROCS_ShapeQuery>
A71EV2A-x0451_0A_A71EV2A-x0310_0A_A71EV2A-x0416_0A_peptide

> <ROCS_TanimotoCombo>
0.418 

> <ROCS_ShapeTanimoto>
0.337 

> <ROCS_ColorTanimoto>
0.082 

> <ROCS_RefTversky>
0.296 

> <ROCS_RefColorTversky>
0.094 

> <ROCS_RefTverskyCombo>
0.390 

> <ROCS_FitTversky>
1.691 

> <ROCS_FitColorTversky>
0.391 

> <ROCS_FitTverskyCombo>
2.082 

> <ROCS_ColorScore>
-2.849

> <ROCS_Overlap>
2054.532

> <ROCS_Rank>
362                 

$$$$
untitled-dbase-726_278
  -OEChem-11112315393D

 22 22  0     0  0  0  0  0  0999 V2000
    8.1333    9.6957   24.5748 C   0  0  0  0  0  0  0  0  0  0  0  0
    6.9911   11.8202   24.7117 C   0  0  0  0  0  0  0  0  0  0  0  0
    9.1581   10.2939   23.8416 C   0  0  0  0  0  0  0  0  0  0  0  0
    9.0994   11.6553   23.5434 C   0  0  0  0  0  0  0  0  0  0  0  0
    7.0498   10.4589   25.0098 C   0  0  0  0  0  0  0  0  0  0  0  0
    8.0159   12.4185   23.9785 C   0  0  0  0  0  0  0  0  0  0  0  0
   10.2745    9.4644   23.4037 C   0  0  0  0  0  0  0  0  0  0  0  0
   10.9457   13.2855   23.2330 C   0  0  0  0  0  0  0  0  0  0  0  0
   11.9566   13.6714   22.1782 C   0  0  0  0  0  0  0  0  0  0  0  0
   10.1336   12.2455   22.8057 N   0  0  0  0  0  0  0  0  0  0  0  0
   11.4316    9.8572   23.2377 O   0  0  0  0  0  0  0  0  0  0  0  0
   10.9076   13.8890   24.3018 O   0  0  0  0  0  0  0  0  0  0  0  0
    9.9059    8.1730   23.1900 O   0  0  0  0  0  0  0  0  0  0  0  0
    5.7841    9.7203   25.9124 Cl  0  0  0  0  0  0  0  0  0  0  0  0
    7.9001   14.1081   23.6336 Cl  0  0  0  0  0  0  0  0  0  0  0  0
   11.6826   15.3711   21.7638 Cl  0  0  0  0  0  0  0  0  0  0  0  0
    8.1798    8.6331   24.8044 H   0  0  0  0  0  0  0  0  0  0  0  0
    6.1444   12.4126   25.0522 H   0  0  0  0  0  0  0  0  0  0  0  0
   11.8722   13.0689   21.2703 H   0  0  0  0  0  0  0  0  0  0  0  0
   12.9663   13.5605   22.5836 H   0  0  0  0  0  0  0  0  0  0  0  0
   10.3041   11.8789   21.8738 H   0  0  0  0  0  0  0  0  0  0  0  0
    8.9538    8.0129   23.3639 H   0  0  0  0  0  0  0  0  0  0  0  0
  1  3  1  0  0  0  0
  1  5  2  0  0  0  0
  2  5  1  0  0  0  0
  2  6  2  0  0  0  0
  3  4  2  0  0  0  0
  3  7  1  0  0  0  0
  4  6  1  0  0  0  0
  4 10  1  0  0  0  0
  5 14  1  0  0  0  0
  6 15  1  0  0  0  0
  7 11  2  0  0  0  0
  7 13  1  0  0  0  0
  8  9  1  0  0  0  0
  8 10  1  0  0  0  0
  8 12  2  0  0  0  0
  9 16  1  0  0  0  0
  1 17  1  0  0  0  0
  2 18  1  0  0  0  0
  9 19  1  0  0  0  0
  9 20  1  0  0  0  0
 10 21  1  0  0  0  0
 13 22  1  0  0  0  0
M  END
> <Catalog ID>
Z56914803

> <MW>
280.941

> <MW (desalted)>
282.508

> <ClogP>
3.179

> <logS>
-3.81

> <HBD>
2

> <HBA>
3

> <TPSA>
66.4

> <RotBonds>
3

> <ROCS_ShapeQuery>
A71EV2A-x0451_0A_A71EV2A-x0310_0A_A71EV2A-x0416_0A_peptide

> <ROCS_TanimotoCombo>
0.418 

> <ROCS_ShapeTanimoto>
0.299 

> <ROCS_ColorTanimoto>
0.119 

> <ROCS_RefTversky>
0.264 

> <ROCS_RefColorTversky>
0.132 

> <ROCS_RefTverskyCombo>
0.396 

> <ROCS_FitTversky>
1.813 

> <ROCS_FitColorTversky>
0.551 

> <ROCS_FitTverskyCombo>
2.365 

> <ROCS_ColorScore>
-4.022

> <ROCS_Overlap>
1827.198

> <ROCS_Rank>
363                 

$$$$
untitled-dbase-612_688
  -OEChem-11112315393D

 30 30  0     0  0  0  0  0  0999 V2000
   11.6247   15.7838   19.9428 C   0  0  0  0  0  0  0  0  0  0  0  0
   10.6474   15.5821   20.8318 C   0  0  0  0  0  0  0  0  0  0  0  0
   10.9112   14.8178   22.0802 C   0  0  0  0  0  0  0  0  0  0  0  0
    9.1589   12.2916   22.8541 C   0  0  0  0  0  0  0  0  0  0  0  0
   10.5976   11.0793   24.5812 C   0  0  0  0  0  0  0  0  0  0  0  0
    7.8681   12.1030   23.6415 C   0  0  0  0  0  0  0  0  0  0  0  0
    9.4257   10.7932   25.5116 C   0  0  0  0  0  0  0  0  0  0  0  0
   10.4171   12.3577   23.7399 C   0  0  0  0  0  0  0  0  0  0  0  0
   11.6537   12.5863   22.8641 C   0  0  0  0  0  0  0  0  0  0  0  0
   11.3415   13.5128   21.8310 N   0  0  0  0  0  0  0  0  0  0  0  0
   10.7568   15.3030   23.1964 O   0  0  0  0  0  0  0  0  0  0  0  0
    6.8124   10.6852   25.5701 O   0  0  0  0  0  0  0  0  0  0  0  0
    8.0290    9.4844   23.7158 O   0  0  0  0  0  0  0  0  0  0  0  0
   10.2912   13.4834   24.6125 O   0  0  0  0  0  0  0  0  0  0  0  0
    7.9008   10.6150   24.6145 S   0  0  0  0  0  0  0  0  0  0  0  0
   11.4243   16.3414   19.0339 H   0  0  0  0  0  0  0  0  0  0  0  0
   12.6325   15.4101   20.0874 H   0  0  0  0  0  0  0  0  0  0  0  0
    9.6526   15.9736   20.6490 H   0  0  0  0  0  0  0  0  0  0  0  0
    9.2644   11.4780   22.1255 H   0  0  0  0  0  0  0  0  0  0  0  0
    9.0642   13.2246   22.2839 H   0  0  0  0  0  0  0  0  0  0  0  0
   11.4974   11.1729   25.2021 H   0  0  0  0  0  0  0  0  0  0  0  0
   10.7542   10.2209   23.9158 H   0  0  0  0  0  0  0  0  0  0  0  0
    7.6907   12.9394   24.3249 H   0  0  0  0  0  0  0  0  0  0  0  0
    7.0113   12.0263   22.9649 H   0  0  0  0  0  0  0  0  0  0  0  0
    9.5872    9.8599   26.0601 H   0  0  0  0  0  0  0  0  0  0  0  0
    9.2875   11.5986   26.2399 H   0  0  0  0  0  0  0  0  0  0  0  0
   12.4338   12.9776   23.5123 H   0  0  0  0  0  0  0  0  0  0  0  0
   11.9307   11.6211   22.4478 H   0  0  0  0  0  0  0  0  0  0  0  0
   11.4057   13.2013   20.8549 H   0  0  0  0  0  0  0  0  0  0  0  0
   10.2156   14.2622   24.0418 H   0  0  0  0  0  0  0  0  0  0  0  0
  1  2  2  0  0  0  0
  2  3  1  0  0  0  0
  3 10  1  0  0  0  0
  3 11  2  0  0  0  0
  4  6  1  0  0  0  0
  4  8  1  0  0  0  0
  5  7  1  0  0  0  0
  5  8  1  0  0  0  0
  6 15  1  0  0  0  0
  7 15  1  0  0  0  0
  8  9  1  0  0  0  0
  8 14  1  0  0  0  0
  9 10  1  0  0  0  0
 12 15  2  0  0  0  0
 13 15  2  0  0  0  0
  1 16  1  0  0  0  0
  1 17  1  0  0  0  0
  2 18  1  0  0  0  0
  4 19  1  0  0  0  0
  4 20  1  0  0  0  0
  5 21  1  0  0  0  0
  5 22  1  0  0  0  0
  6 23  1  0  0  0  0
  6 24  1  0  0  0  0
  7 25  1  0  0  0  0
  7 26  1  0  0  0  0
  9 27  1  0  0  0  0
  9 28  1  0  0  0  0
 10 29  1  0  0  0  0
 14 30  1  0  0  0  0
M  END
> <Catalog ID>
Z2285377603

> <MW>
233.285

> <MW (desalted)>
233.285

> <ClogP>
-2.785

> <logS>
-0.93

> <HBD>
2

> <HBA>
4

> <TPSA>
83.47

> <RotBonds>
3

> <ROCS_ShapeQuery>
A71EV2A-x0451_0A_A71EV2A-x0310_0A_A71EV2A-x0416_0A_peptide

> <ROCS_TanimotoCombo>
0.418 

> <ROCS_ShapeTanimoto>
0.249 

> <ROCS_ColorTanimoto>
0.170 

> <ROCS_RefTversky>
0.226 

> <ROCS_RefColorTversky>
0.189 

> <ROCS_RefTverskyCombo>
0.415 

> <ROCS_FitTversky>
1.656 

> <ROCS_FitColorTversky>
0.627 

> <ROCS_FitTverskyCombo>
2.283 

> <ROCS_ColorScore>
-5.758

> <ROCS_Overlap>
1568.063

> <ROCS_Rank>
364                 

$$$$
untitled-dbase-776_179
  -OEChem-11112315393D

 23 24  0     0  0  0  0  0  0999 V2000
    6.9080    9.5744   24.9555 C   0  0  0  0  0  0  0  0  0  0  0  0
    8.9774   12.4160   24.1021 C   0  0  0  0  0  0  0  0  0  0  0  0
    6.0577   10.3951   25.6593 C   0  0  0  0  0  0  0  0  0  0  0  0
    7.9794   10.3268   24.3855 C   0  0  0  0  0  0  0  0  0  0  0  0
    7.9056   11.6636   24.6716 C   0  0  0  0  0  0  0  0  0  0  0  0
    9.8272   11.5951   23.3979 C   0  0  0  0  0  0  0  0  0  0  0  0
   10.6287   16.8797   22.7927 C   0  0  0  0  0  0  0  0  0  0  0  0
   10.7664   15.7056   22.1692 C   0  0  0  0  0  0  0  0  0  0  0  0
   10.8381   14.4422   22.9507 C   0  0  0  0  0  0  0  0  0  0  0  0
   11.0692   11.9919   22.6534 C   0  0  0  0  0  0  0  0  0  0  0  0
   10.9800   13.3359   22.1305 N   0  0  0  0  0  0  0  0  0  0  0  0
   10.7731   14.4189   24.1756 O   0  0  0  0  0  0  0  0  0  0  0  0
    6.5136   12.0464   25.6531 S   0  0  0  0  0  0  0  0  0  0  0  0
    9.3713    9.9439   23.4037 S   0  0  0  0  0  0  0  0  0  0  0  0
    6.7726    8.5054   24.8548 H   0  0  0  0  0  0  0  0  0  0  0  0
    9.1091   13.4855   24.2057 H   0  0  0  0  0  0  0  0  0  0  0  0
    5.1652   10.0987   26.1923 H   0  0  0  0  0  0  0  0  0  0  0  0
   10.5782   17.7973   22.2159 H   0  0  0  0  0  0  0  0  0  0  0  0
   10.5626   16.9641   23.8718 H   0  0  0  0  0  0  0  0  0  0  0  0
   10.8283   15.6650   21.0872 H   0  0  0  0  0  0  0  0  0  0  0  0
   11.9450   11.9427   23.3096 H   0  0  0  0  0  0  0  0  0  0  0  0
   11.2553   11.3168   21.8115 H   0  0  0  0  0  0  0  0  0  0  0  0
   10.9934   13.4488   21.1210 H   0  0  0  0  0  0  0  0  0  0  0  0
  1  3  2  0  0  0  0
  1  4  1  0  0  0  0
  2  5  1  0  0  0  0
  2  6  2  0  0  0  0
  3 13  1  0  0  0  0
  4  5  2  0  0  0  0
  4 14  1  0  0  0  0
  5 13  1  0  0  0  0
  6 10  1  0  0  0  0
  6 14  1  0  0  0  0
  7  8  2  0  0  0  0
  8  9  1  0  0  0  0
  9 11  1  0  0  0  0
  9 12  2  0  0  0  0
 10 11  1  0  0  0  0
  1 15  1  0  0  0  0
  2 16  1  0  0  0  0
  3 17  1  0  0  0  0
  7 18  1  0  0  0  0
  7 19  1  0  0  0  0
  8 20  1  0  0  0  0
 10 21  1  0  0  0  0
 10 22  1  0  0  0  0
 11 23  1  0  0  0  0
M  END
> <Catalog ID>
Z2285377725

> <MW>
223.315

> <MW (desalted)>
223.315

> <ClogP>
2.116

> <logS>
-3.33

> <HBD>
1

> <HBA>
1

> <TPSA>
29.1

> <RotBonds>
3

> <ROCS_ShapeQuery>
A71EV2A-x0451_0A_A71EV2A-x0310_0A_A71EV2A-x0416_0A_peptide

> <ROCS_TanimotoCombo>
0.418 

> <ROCS_ShapeTanimoto>
0.267 

> <ROCS_ColorTanimoto>
0.151 

> <ROCS_RefTversky>
0.239 

> <ROCS_RefColorTversky>
0.159 

> <ROCS_RefTverskyCombo>
0.397 

> <ROCS_FitTversky>
1.795 

> <ROCS_FitColorTversky>
0.758 

> <ROCS_FitTverskyCombo>
2.553 

> <ROCS_ColorScore>
-4.823

> <ROCS_Overlap>
1652.186

> <ROCS_Rank>
365                 

$$$$
untitled-dbase-800_32
  -OEChem-11112315393D

 27 27  0     0  0  0  0  0  0999 V2000
    8.9843   10.0808   23.4919 C   0  0  0  0  0  0  0  0  0  0  0  0
    7.8990    9.9680   24.3779 C   0  0  0  0  0  0  0  0  0  0  0  0
    9.2618   11.4221   23.4859 C   0  0  0  0  0  0  0  0  0  0  0  0
   10.8022   13.3562   23.2642 C   0  0  0  0  0  0  0  0  0  0  0  0
    8.1093    7.4839   24.7395 C   0  0  0  0  0  0  0  0  0  0  0  0
    5.9720    8.4442   23.8196 C   0  0  0  0  0  0  0  0  0  0  0  0
    6.5578    8.7455   26.2170 C   0  0  0  0  0  0  0  0  0  0  0  0
   11.8052   13.9036   22.2753 C   0  0  0  0  0  0  0  0  0  0  0  0
    7.1478    8.6910   24.7895 C   0  0  0  0  0  0  0  0  0  0  0  0
    7.5314   11.1490   24.8828 N   0  0  0  0  0  0  0  0  0  0  0  0
   10.2024   12.1607   22.8257 N   0  0  0  0  0  0  0  0  0  0  0  0
   10.5736   13.9589   24.3094 O   0  0  0  0  0  0  0  0  0  0  0  0
    8.4015   12.0703   24.3121 O   0  0  0  0  0  0  0  0  0  0  0  0
   11.2620   15.5185   21.7931 Cl  0  0  0  0  0  0  0  0  0  0  0  0
    9.4902    9.3025   22.9393 H   0  0  0  0  0  0  0  0  0  0  0  0
    7.5976    6.5587   25.0292 H   0  0  0  0  0  0  0  0  0  0  0  0
    8.5196    7.3219   23.7367 H   0  0  0  0  0  0  0  0  0  0  0  0
    8.9555    7.6251   25.4223 H   0  0  0  0  0  0  0  0  0  0  0  0
    5.4063    7.5416   24.0752 H   0  0  0  0  0  0  0  0  0  0  0  0
    5.2640    9.2811   23.8357 H   0  0  0  0  0  0  0  0  0  0  0  0
    6.3284    8.3284   22.7892 H   0  0  0  0  0  0  0  0  0  0  0  0
    6.0333    7.8144   26.4635 H   0  0  0  0  0  0  0  0  0  0  0  0
    7.3404    8.8833   26.9723 H   0  0  0  0  0  0  0  0  0  0  0  0
    5.8329    9.5610   26.3232 H   0  0  0  0  0  0  0  0  0  0  0  0
   11.9010   13.2821   21.3815 H   0  0  0  0  0  0  0  0  0  0  0  0
   12.7840   13.9844   22.7564 H   0  0  0  0  0  0  0  0  0  0  0  0
   10.5058   11.8038   21.9069 H   0  0  0  0  0  0  0  0  0  0  0  0
  1  2  1  0  0  0  0
  1  3  2  0  0  0  0
  2  9  1  0  0  0  0
  2 10  2  0  0  0  0
  3 11  1  0  0  0  0
  3 13  1  0  0  0  0
  4  8  1  0  0  0  0
  4 11  1  0  0  0  0
  4 12  2  0  0  0  0
  5  9  1  0  0  0  0
  6  9  1  0  0  0  0
  7  9  1  0  0  0  0
  8 14  1  0  0  0  0
 10 13  1  0  0  0  0
  1 15  1  0  0  0  0
  5 16  1  0  0  0  0
  5 17  1  0  0  0  0
  5 18  1  0  0  0  0
  6 19  1  0  0  0  0
  6 20  1  0  0  0  0
  6 21  1  0  0  0  0
  7 22  1  0  0  0  0
  7 23  1  0  0  0  0
  7 24  1  0  0  0  0
  8 25  1  0  0  0  0
  8 26  1  0  0  0  0
 11 27  1  0  0  0  0
M  END
> <Catalog ID>
Z90122381

> <MW>
216.067

> <MW (desalted)>
216.665

> <ClogP>
2.154

> <logS>
-2.1

> <HBD>
1

> <HBA>
2

> <TPSA>
55.13

> <RotBonds>
3

> <ROCS_ShapeQuery>
A71EV2A-x0451_0A_A71EV2A-x0310_0A_A71EV2A-x0416_0A_peptide

> <ROCS_TanimotoCombo>
0.418 

> <ROCS_ShapeTanimoto>
0.253 

> <ROCS_ColorTanimoto>
0.165 

> <ROCS_RefTversky>
0.229 

> <ROCS_RefColorTversky>
0.171 

> <ROCS_RefTverskyCombo>
0.400 

> <ROCS_FitTversky>
1.711 

> <ROCS_FitColorTversky>
0.820 

> <ROCS_FitTverskyCombo>
2.531 

> <ROCS_ColorScore>
-5.195

> <ROCS_Overlap>
1585.609

> <ROCS_Rank>
366                 

$$$$
untitled-dbase-722_107
  -OEChem-11112315393D

 22 22  0     0  0  0  0  0  0999 V2000
    8.2566    9.5263   24.0389 C   0  0  0  0  0  0  0  0  0  0  0  0
    7.3524   10.2067   24.8544 C   0  0  0  0  0  0  0  0  0  0  0  0
    9.2422   10.2325   23.3494 C   0  0  0  0  0  0  0  0  0  0  0  0
    8.4192   12.2999   24.2906 C   0  0  0  0  0  0  0  0  0  0  0  0
    7.4337   11.5935   24.9802 C   0  0  0  0  0  0  0  0  0  0  0  0
    9.3235   11.6193   23.4752 C   0  0  0  0  0  0  0  0  0  0  0  0
    6.4904   12.3017   25.8307 C   0  0  0  0  0  0  0  0  0  0  0  0
   10.9048   13.5127   23.1968 C   0  0  0  0  0  0  0  0  0  0  0  0
   11.9342   13.9978   22.2027 C   0  0  0  0  0  0  0  0  0  0  0  0
   10.3095   12.3256   22.7855 N   0  0  0  0  0  0  0  0  0  0  0  0
    5.9537   11.8409   26.8436 O   0  0  0  0  0  0  0  0  0  0  0  0
   10.6711   14.1642   24.2112 O   0  0  0  0  0  0  0  0  0  0  0  0
    6.2437   13.5671   25.3937 O   0  0  0  0  0  0  0  0  0  0  0  0
   11.9845   15.7654   22.2964 Cl  0  0  0  0  0  0  0  0  0  0  0  0
    8.1937    8.4464   23.9411 H   0  0  0  0  0  0  0  0  0  0  0  0
    6.5881    9.6459   25.3859 H   0  0  0  0  0  0  0  0  0  0  0  0
    9.9414    9.6920   22.7161 H   0  0  0  0  0  0  0  0  0  0  0  0
    8.4820   13.3818   24.3879 H   0  0  0  0  0  0  0  0  0  0  0  0
   11.7015   13.7055   21.1756 H   0  0  0  0  0  0  0  0  0  0  0  0
   12.9161   13.5974   22.4704 H   0  0  0  0  0  0  0  0  0  0  0  0
   10.6223   11.9353   21.8986 H   0  0  0  0  0  0  0  0  0  0  0  0
    5.6088   14.0538   25.9615 H   0  0  0  0  0  0  0  0  0  0  0  0
  1  2  2  0  0  0  0
  1  3  1  0  0  0  0
  2  5  1  0  0  0  0
  3  6  2  0  0  0  0
  4  5  2  0  0  0  0
  4  6  1  0  0  0  0
  5  7  1  0  0  0  0
  6 10  1  0  0  0  0
  7 11  2  0  0  0  0
  7 13  1  0  0  0  0
  8  9  1  0  0  0  0
  8 10  1  0  0  0  0
  8 12  2  0  0  0  0
  9 14  1  0  0  0  0
  1 15  1  0  0  0  0
  2 16  1  0  0  0  0
  3 17  1  0  0  0  0
  4 18  1  0  0  0  0
  9 19  1  0  0  0  0
  9 20  1  0  0  0  0
 10 21  1  0  0  0  0
 13 22  1  0  0  0  0
M  END
> <Catalog ID>
Z56922085

> <MW>
213.019

> <MW (desalted)>
213.618

> <ClogP>
1.811

> <logS>
-2.32

> <HBD>
2

> <HBA>
3

> <TPSA>
66.4

> <RotBonds>
3

> <ROCS_ShapeQuery>
A71EV2A-x0451_0A_A71EV2A-x0310_0A_A71EV2A-x0416_0A_peptide

> <ROCS_TanimotoCombo>
0.418 

> <ROCS_ShapeTanimoto>
0.288 

> <ROCS_ColorTanimoto>
0.129 

> <ROCS_RefTversky>
0.254 

> <ROCS_RefColorTversky>
0.142 

> <ROCS_RefTverskyCombo>
0.396 

> <ROCS_FitTversky>
1.879 

> <ROCS_FitColorTversky>
0.592 

> <ROCS_FitTverskyCombo>
2.471 

> <ROCS_ColorScore>
-4.320

> <ROCS_Overlap>
1759.366

> <ROCS_Rank>
367                 

$$$$
untitled-dbase-610_130
  -OEChem-11112315393D

 33 35  0     1  0  0  0  0  0999 V2000
   11.9155   15.4416   19.0984 C   0  0  0  0  0  0  0  0  0  0  0  0
    9.1519   10.3799   23.4308 C   0  0  0  0  0  0  0  0  0  0  0  0
   12.7428   14.9450   20.1338 C   0  0  0  0  0  0  0  0  0  0  0  0
    8.0087    9.9059   24.1175 C   0  0  0  0  0  0  0  0  0  0  0  0
   10.6211   15.1887   19.4892 C   0  0  0  0  0  0  0  0  0  0  0  0
    9.3581   11.6655   23.8742 C   0  0  0  0  0  0  0  0  0  0  0  0
   11.8950   14.4243   21.0837 C   0  0  0  0  0  0  0  0  0  0  0  0
    7.5980   10.9356   24.9319 C   0  0  0  0  0  0  0  0  0  0  0  0
   10.3879   12.6695   23.5273 C   0  0  0  0  0  0  0  0  0  0  0  0
   11.9186   15.7343   23.9748 C   0  0  0  0  0  0  0  0  0  0  0  0
   11.4747   12.3769   22.5217 C   0  0  0  0  0  0  0  0  0  0  0  0
   12.1263   13.7482   22.4217 C   0  0  2  0  0  0  0  0  0  0  0  0
    6.4888   11.0824   25.8849 C   0  0  0  0  0  0  0  0  0  0  0  0
   11.6378   15.9998   25.4336 C   0  0  0  0  0  0  0  0  0  0  0  0
   10.4463   13.8458   24.0743 N   0  0  0  0  0  0  0  0  0  0  0  0
   11.4952   14.5058   23.5033 N   0  0  0  0  0  0  0  0  0  0  0  0
   12.4898   16.5787   23.2833 O   0  0  0  0  0  0  0  0  0  0  0  0
   10.6000   14.5690   20.6983 O   0  0  0  0  0  0  0  0  0  0  0  0
    8.4154   12.0118   24.7895 O   0  0  0  0  0  0  0  0  0  0  0  0
   10.0684   16.7922   25.5070 Cl  0  0  0  0  0  0  0  0  0  0  0  0
   12.2239   15.9231   18.1818 H   0  0  0  0  0  0  0  0  0  0  0  0
    9.7487    9.8483   22.7034 H   0  0  0  0  0  0  0  0  0  0  0  0
   13.8224   14.9653   20.1789 H   0  0  0  0  0  0  0  0  0  0  0  0
    7.5437    8.9345   24.0275 H   0  0  0  0  0  0  0  0  0  0  0  0
    9.6555   15.3775   19.0435 H   0  0  0  0  0  0  0  0  0  0  0  0
   12.1552   11.6358   22.9534 H   0  0  0  0  0  0  0  0  0  0  0  0
   11.0495   11.9978   21.5879 H   0  0  0  0  0  0  0  0  0  0  0  0
   13.2218   13.6999   22.6023 H   0  0  0  0  0  0  0  0  0  0  0  0
    6.7851   10.7658   26.9009 H   0  0  0  0  0  0  0  0  0  0  0  0
    6.1313   12.1263   25.9559 H   0  0  0  0  0  0  0  0  0  0  0  0
    5.6055   10.4825   25.5969 H   0  0  0  0  0  0  0  0  0  0  0  0
   12.4060   16.6568   25.8241 H   0  0  0  0  0  0  0  0  0  0  0  0
   11.6033   15.0540   25.9611 H   0  0  0  0  0  0  0  0  0  0  0  0
  1  3  1  0  0  0  0
  1  5  2  0  0  0  0
  2  4  1  0  0  0  0
  2  6  2  0  0  0  0
  3  7  2  0  0  0  0
  4  8  2  0  0  0  0
  5 18  1  0  0  0  0
  6  9  1  0  0  0  0
  6 19  1  0  0  0  0
  7 12  1  0  0  0  0
  7 18  1  0  0  0  0
  8 13  1  0  0  0  0
  8 19  1  0  0  0  0
  9 11  1  0  0  0  0
  9 15  2  0  0  0  0
 10 14  1  0  0  0  0
 10 16  1  0  0  0  0
 10 17  2  0  0  0  0
 11 12  1  0  0  0  0
 12 16  1  0  0  0  0
 14 20  1  0  0  0  0
 15 16  1  0  0  0  0
  1 21  1  0  0  0  0
  2 22  1  0  0  0  0
  3 23  1  0  0  0  0
  4 24  1  0  0  0  0
  5 25  1  0  0  0  0
 11 26  1  0  0  0  0
 11 27  1  0  0  0  0
 12 28  1  0  0  0  0
 13 29  1  0  0  0  0
 13 30  1  0  0  0  0
 13 31  1  0  0  0  0
 14 32  1  0  0  0  0
 14 33  1  0  0  0  0
M  END
> <Catalog ID>
Z57054220

> <MW>
292.061

> <MW (desalted)>
292.718

> <ClogP>
2.121

> <logS>
-3.54

> <HBD>
0

> <HBA>
2

> <TPSA>
58.95

> <RotBonds>
3

> <ROCS_ShapeQuery>
A71EV2A-x0451_0A_A71EV2A-x0310_0A_A71EV2A-x0416_0A_peptide

> <ROCS_TanimotoCombo>
0.417 

> <ROCS_ShapeTanimoto>
0.301 

> <ROCS_ColorTanimoto>
0.117 

> <ROCS_RefTversky>
0.272 

> <ROCS_RefColorTversky>
0.133 

> <ROCS_RefTverskyCombo>
0.405 

> <ROCS_FitTversky>
1.533 

> <ROCS_FitColorTversky>
0.491 

> <ROCS_FitTverskyCombo>
2.023 

> <ROCS_ColorScore>
-4.040

> <ROCS_Overlap>
1891.040

> <ROCS_Rank>
368                 

$$$$
untitled-dbase-265_1102
  -OEChem-11112315393D

 44 45  0     0  0  0  0  0  0999 V2000
   14.5696   16.3370   19.0150 C   0  0  0  0  0  0  0  0  0  0  0  0
   13.4474   16.6295   19.6756 C   0  0  0  0  0  0  0  0  0  0  0  0
   12.2800   15.7379   19.5281 C   0  0  0  0  0  0  0  0  0  0  0  0
   10.5341   13.0656   23.5262 C   0  0  0  0  0  0  0  0  0  0  0  0
    6.8471    9.0656   24.4812 C   0  0  0  0  0  0  0  0  0  0  0  0
   10.9894   12.8373   21.0858 C   0  0  0  0  0  0  0  0  0  0  0  0
   12.7051   13.9320   22.6182 C   0  0  0  0  0  0  0  0  0  0  0  0
   10.6295   14.2309   20.5700 C   0  0  0  0  0  0  0  0  0  0  0  0
   12.2868   15.2850   22.0429 C   0  0  0  0  0  0  0  0  0  0  0  0
    8.1159   12.3983   23.9522 C   0  0  0  0  0  0  0  0  0  0  0  0
    9.7359   10.7726   23.0439 C   0  0  0  0  0  0  0  0  0  0  0  0
    7.6459   11.3582   24.9658 C   0  0  0  0  0  0  0  0  0  0  0  0
    9.2659    9.7327   24.0575 C   0  0  0  0  0  0  0  0  0  0  0  0
   11.6091   12.8674   22.4878 C   0  0  0  0  0  0  0  0  0  0  0  0
    5.8151    9.2157   25.5701 C   0  0  0  0  0  0  0  0  0  0  0  0
   11.7816   15.1263   20.6744 N   0  0  0  0  0  0  0  0  0  0  0  0
    9.5002   12.1310   23.5395 N   0  0  0  0  0  0  0  0  0  0  0  0
    7.8815    9.9999   24.4696 N   0  0  0  0  0  0  0  0  0  0  0  0
   11.8194   15.5853   18.3954 O   0  0  0  0  0  0  0  0  0  0  0  0
   10.6108   14.0241   24.2991 O   0  0  0  0  0  0  0  0  0  0  0  0
    6.7373    8.1443   23.6683 O   0  0  0  0  0  0  0  0  0  0  0  0
   15.4597   16.9534   19.0832 H   0  0  0  0  0  0  0  0  0  0  0  0
   14.6150   15.4567   18.3824 H   0  0  0  0  0  0  0  0  0  0  0  0
   13.3637   17.4979   20.3160 H   0  0  0  0  0  0  0  0  0  0  0  0
   10.0935   12.2058   21.0743 H   0  0  0  0  0  0  0  0  0  0  0  0
   11.7094   12.3809   20.3952 H   0  0  0  0  0  0  0  0  0  0  0  0
   13.5976   13.5832   22.0842 H   0  0  0  0  0  0  0  0  0  0  0  0
   12.9909   14.0593   23.6688 H   0  0  0  0  0  0  0  0  0  0  0  0
   10.2823   14.1581   19.5344 H   0  0  0  0  0  0  0  0  0  0  0  0
    9.8130   14.6673   21.1570 H   0  0  0  0  0  0  0  0  0  0  0  0
   11.4749   15.7212   22.6366 H   0  0  0  0  0  0  0  0  0  0  0  0
   13.1175   15.9887   22.1031 H   0  0  0  0  0  0  0  0  0  0  0  0
    7.4950   12.3605   23.0491 H   0  0  0  0  0  0  0  0  0  0  0  0
    8.0037   13.3957   24.3808 H   0  0  0  0  0  0  0  0  0  0  0  0
   10.7968   10.6190   22.8226 H   0  0  0  0  0  0  0  0  0  0  0  0
    9.1852   10.6669   22.1016 H   0  0  0  0  0  0  0  0  0  0  0  0
    8.1973   11.4636   25.9078 H   0  0  0  0  0  0  0  0  0  0  0  0
    6.5852   11.5118   25.1876 H   0  0  0  0  0  0  0  0  0  0  0  0
    9.3785    8.7351   23.6295 H   0  0  0  0  0  0  0  0  0  0  0  0
    9.8863    9.7712   24.9609 H   0  0  0  0  0  0  0  0  0  0  0  0
   12.0437   11.8832   22.7011 H   0  0  0  0  0  0  0  0  0  0  0  0
    5.0162    9.8588   25.2159 H   0  0  0  0  0  0  0  0  0  0  0  0
    6.2833    9.6540   26.4457 H   0  0  0  0  0  0  0  0  0  0  0  0
    5.4194    8.2370   25.8218 H   0  0  0  0  0  0  0  0  0  0  0  0
  1  2  2  0  0  0  0
  2  3  1  0  0  0  0
  3 16  1  0  0  0  0
  3 19  2  0  0  0  0
  4 14  1  0  0  0  0
  4 17  1  0  0  0  0
  4 20  2  0  0  0  0
  5 15  1  0  0  0  0
  5 18  1  0  0  0  0
  5 21  2  0  0  0  0
  6  8  1  0  0  0  0
  6 14  1  0  0  0  0
  7  9  1  0  0  0  0
  7 14  1  0  0  0  0
  8 16  1  0  0  0  0
  9 16  1  0  0  0  0
 10 12  1  0  0  0  0
 10 17  1  0  0  0  0
 11 13  1  0  0  0  0
 11 17  1  0  0  0  0
 12 18  1  0  0  0  0
 13 18  1  0  0  0  0
  1 22  1  0  0  0  0
  1 23  1  0  0  0  0
  2 24  1  0  0  0  0
  6 25  1  0  0  0  0
  6 26  1  0  0  0  0
  7 27  1  0  0  0  0
  7 28  1  0  0  0  0
  8 29  1  0  0  0  0
  8 30  1  0  0  0  0
  9 31  1  0  0  0  0
  9 32  1  0  0  0  0
 10 33  1  0  0  0  0
 10 34  1  0  0  0  0
 11 35  1  0  0  0  0
 11 36  1  0  0  0  0
 12 37  1  0  0  0  0
 12 38  1  0  0  0  0
 13 39  1  0  0  0  0
 13 40  1  0  0  0  0
 14 41  1  0  0  0  0
 15 42  1  0  0  0  0
 15 43  1  0  0  0  0
 15 44  1  0  0  0  0
M  END
> <Catalog ID>
Z1492364162

> <MW>
293.361

> <MW (desalted)>
293.361

> <ClogP>
-1.529

> <logS>
-1.784

> <HBD>
0

> <HBA>
3

> <TPSA>
60.93

> <RotBonds>
2

> <ROCS_ShapeQuery>
A71EV2A-x0451_0A_A71EV2A-x0310_0A_A71EV2A-x0416_0A_peptide

> <ROCS_TanimotoCombo>
0.417 

> <ROCS_ShapeTanimoto>
0.318 

> <ROCS_ColorTanimoto>
0.100 

> <ROCS_RefTversky>
0.284 

> <ROCS_RefColorTversky>
0.112 

> <ROCS_RefTverskyCombo>
0.396 

> <ROCS_FitTversky>
1.599 

> <ROCS_FitColorTversky>
0.469 

> <ROCS_FitTverskyCombo>
2.068 

> <ROCS_ColorScore>
-3.417

> <ROCS_Overlap>
1971.296

> <ROCS_Rank>
369                 

$$$$
untitled-dbase-534_10
  -OEChem-11112315393D

 19 19  0     0  0  0  0  0  0999 V2000
    9.3266   10.2359   23.2894 C   0  0  0  0  0  0  0  0  0  0  0  0
    8.4641   12.2731   24.2604 C   0  0  0  0  0  0  0  0  0  0  0  0
    7.4402   10.1515   24.7965 C   0  0  0  0  0  0  0  0  0  0  0  0
    9.3804   11.6221   23.4343 C   0  0  0  0  0  0  0  0  0  0  0  0
    8.3565    9.5006   23.9705 C   0  0  0  0  0  0  0  0  0  0  0  0
    7.4940   11.5378   24.9415 C   0  0  0  0  0  0  0  0  0  0  0  0
   10.9225   13.5507   23.1787 C   0  0  0  0  0  0  0  0  0  0  0  0
   11.9392   14.0703   22.1889 C   0  0  0  0  0  0  0  0  0  0  0  0
   10.3501   12.3577   22.7523 N   0  0  0  0  0  0  0  0  0  0  0  0
   10.6785   14.1832   24.2026 O   0  0  0  0  0  0  0  0  0  0  0  0
    8.3046    8.1693   23.8307 F   0  0  0  0  0  0  0  0  0  0  0  0
    6.6140   12.1630   25.7345 F   0  0  0  0  0  0  0  0  0  0  0  0
   11.4394   13.5430   20.5741 Cl  0  0  0  0  0  0  0  0  0  0  0  0
   10.0353    9.7175   22.6486 H   0  0  0  0  0  0  0  0  0  0  0  0
    8.4959   13.3530   24.3807 H   0  0  0  0  0  0  0  0  0  0  0  0
    6.6852    9.5785   25.3265 H   0  0  0  0  0  0  0  0  0  0  0  0
   12.9485   13.6993   22.3845 H   0  0  0  0  0  0  0  0  0  0  0  0
   11.9521   15.1635   22.2201 H   0  0  0  0  0  0  0  0  0  0  0  0
   10.6683   11.9861   21.8592 H   0  0  0  0  0  0  0  0  0  0  0  0
  1  4  2  0  0  0  0
  1  5  1  0  0  0  0
  2  4  1  0  0  0  0
  2  6  2  0  0  0  0
  3  5  2  0  0  0  0
  3  6  1  0  0  0  0
  4  9  1  0  0  0  0
  5 11  1  0  0  0  0
  6 12  1  0  0  0  0
  7  8  1  0  0  0  0
  7  9  1  0  0  0  0
  7 10  2  0  0  0  0
  8 13  1  0  0  0  0
  1 14  1  0  0  0  0
  2 15  1  0  0  0  0
  3 16  1  0  0  0  0
  8 17  1  0  0  0  0
  8 18  1  0  0  0  0
  9 19  1  0  0  0  0
M  END
> <Catalog ID>
Z199423790

> <MW>
205.011

> <MW (desalted)>
205.589

> <ClogP>
2.408

> <logS>
-2.76

> <HBD>
1

> <HBA>
1

> <TPSA>
29.1

> <RotBonds>
2

> <ROCS_ShapeQuery>
A71EV2A-x0451_0A_A71EV2A-x0310_0A_A71EV2A-x0416_0A_peptide

> <ROCS_TanimotoCombo>
0.417 

> <ROCS_ShapeTanimoto>
0.278 

> <ROCS_ColorTanimoto>
0.140 

> <ROCS_RefTversky>
0.245 

> <ROCS_RefColorTversky>
0.141 

> <ROCS_RefTverskyCombo>
0.386 

> <ROCS_FitTversky>
1.901 

> <ROCS_FitColorTversky>
0.960 

> <ROCS_FitTverskyCombo>
2.861 

> <ROCS_ColorScore>
-4.256

> <ROCS_Overlap>
1698.643

> <ROCS_Rank>
370                 

$$$$
untitled-dbase-716_8
  -OEChem-11112315393D

 34 36  0     0  0  0  0  0  0999 V2000
    5.5948   10.7181   28.2386 C   0  0  0  0  0  0  0  0  0  0  0  0
    6.0785    9.4683   27.8671 C   0  0  0  0  0  0  0  0  0  0  0  0
    5.8590   11.8441   27.4541 C   0  0  0  0  0  0  0  0  0  0  0  0
    6.8376    9.3067   26.7040 C   0  0  0  0  0  0  0  0  0  0  0  0
    7.0636   12.6206   25.2857 C   0  0  0  0  0  0  0  0  0  0  0  0
    6.6229   11.7058   26.2773 C   0  0  0  0  0  0  0  0  0  0  0  0
    7.1010   10.4410   25.9176 C   0  0  0  0  0  0  0  0  0  0  0  0
    7.8000   11.9218   24.3524 C   0  0  0  0  0  0  0  0  0  0  0  0
   13.2235   13.2597   23.1933 C   0  0  0  0  0  0  0  0  0  0  0  0
   12.3013   12.5397   23.8355 C   0  0  0  0  0  0  0  0  0  0  0  0
   10.8951   12.9910   23.8051 C   0  0  0  0  0  0  0  0  0  0  0  0
    8.5035   12.4138   23.1334 C   0  0  0  0  0  0  0  0  0  0  0  0
    9.9605    9.7078   23.8451 C   0  0  0  0  0  0  0  0  0  0  0  0
    8.4474    9.5329   23.9813 C   0  0  0  0  0  0  0  0  0  0  0  0
   10.3637   10.7891   22.8392 C   0  0  0  0  0  0  0  0  0  0  0  0
    7.8035   10.5974   24.7368 N   0  0  0  0  0  0  0  0  0  0  0  0
    9.9420   12.1317   23.2536 N   0  0  0  0  0  0  0  0  0  0  0  0
   10.6475   14.1071   24.2658 O   0  0  0  0  0  0  0  0  0  0  0  0
    5.0072   10.8215   29.1467 H   0  0  0  0  0  0  0  0  0  0  0  0
    5.8635    8.6028   28.4886 H   0  0  0  0  0  0  0  0  0  0  0  0
    5.4777   12.8158   27.7555 H   0  0  0  0  0  0  0  0  0  0  0  0
    7.2052    8.3235   26.4305 H   0  0  0  0  0  0  0  0  0  0  0  0
    6.8731   13.6853   25.2611 H   0  0  0  0  0  0  0  0  0  0  0  0
   14.2714   12.9794   23.1795 H   0  0  0  0  0  0  0  0  0  0  0  0
   12.9368   14.1600   22.6600 H   0  0  0  0  0  0  0  0  0  0  0  0
   12.5482   11.6363   24.3778 H   0  0  0  0  0  0  0  0  0  0  0  0
    8.1158   11.9199   22.2349 H   0  0  0  0  0  0  0  0  0  0  0  0
    8.3361   13.4846   22.9893 H   0  0  0  0  0  0  0  0  0  0  0  0
   10.4138    9.9167   24.8221 H   0  0  0  0  0  0  0  0  0  0  0  0
   10.3834    8.7571   23.4975 H   0  0  0  0  0  0  0  0  0  0  0  0
    7.9570    9.4889   23.0018 H   0  0  0  0  0  0  0  0  0  0  0  0
    8.2439    8.5827   24.4828 H   0  0  0  0  0  0  0  0  0  0  0  0
   11.4525   10.7651   22.7201 H   0  0  0  0  0  0  0  0  0  0  0  0
    9.9360   10.5828   21.8510 H   0  0  0  0  0  0  0  0  0  0  0  0
  1  2  1  0  0  0  0
  1  3  2  0  0  0  0
  2  4  2  0  0  0  0
  3  6  1  0  0  0  0
  4  7  1  0  0  0  0
  5  6  1  0  0  0  0
  5  8  2  0  0  0  0
  6  7  2  0  0  0  0
  7 16  1  0  0  0  0
  8 12  1  0  0  0  0
  8 16  1  0  0  0  0
  9 10  2  0  0  0  0
 10 11  1  0  0  0  0
 11 17  1  0  0  0  0
 11 18  2  0  0  0  0
 12 17  1  0  0  0  0
 13 14  1  0  0  0  0
 13 15  1  0  0  0  0
 14 16  1  0  0  0  0
 15 17  1  0  0  0  0
  1 19  1  0  0  0  0
  2 20  1  0  0  0  0
  3 21  1  0  0  0  0
  4 22  1  0  0  0  0
  5 23  1  0  0  0  0
  9 24  1  0  0  0  0
  9 25  1  0  0  0  0
 10 26  1  0  0  0  0
 12 27  1  0  0  0  0
 12 28  1  0  0  0  0
 13 29  1  0  0  0  0
 13 30  1  0  0  0  0
 14 31  1  0  0  0  0
 14 32  1  0  0  0  0
 15 33  1  0  0  0  0
 15 34  1  0  0  0  0
M  END
> <Catalog ID>
Z2867490856

> <MW>
240.3

> <MW (desalted)>
240.3

> <ClogP>
1.752

> <logS>
-3.116

> <HBD>
0

> <HBA>
1

> <TPSA>
25.24

> <RotBonds>
1

> <ROCS_ShapeQuery>
A71EV2A-x0451_0A_A71EV2A-x0310_0A_A71EV2A-x0416_0A_peptide

> <ROCS_TanimotoCombo>
0.417 

> <ROCS_ShapeTanimoto>
0.287 

> <ROCS_ColorTanimoto>
0.130 

> <ROCS_RefTversky>
0.260 

> <ROCS_RefColorTversky>
0.139 

> <ROCS_RefTverskyCombo>
0.399 

> <ROCS_FitTversky>
1.574 

> <ROCS_FitColorTversky>
0.665 

> <ROCS_FitTverskyCombo>
2.240 

> <ROCS_ColorScore>
-4.230

> <ROCS_Overlap>
1803.137

> <ROCS_Rank>
371                 

$$$$
untitled-dbase-9_434
  -OEChem-11112315393D

 40 42  0     0  0  0  0  0  0999 V2000
   10.4016   11.6098   22.8766 C   0  0  0  0  0  0  0  0  0  0  0  0
    9.7888   10.3775   23.1055 C   0  0  0  0  0  0  0  0  0  0  0  0
    8.7437   12.6990   24.2590 C   0  0  0  0  0  0  0  0  0  0  0  0
    9.8830   12.7679   23.4566 C   0  0  0  0  0  0  0  0  0  0  0  0
    8.6572   10.3058   23.9185 C   0  0  0  0  0  0  0  0  0  0  0  0
    8.1222   11.4691   24.4773 C   0  0  0  0  0  0  0  0  0  0  0  0
   13.3123   15.8242   18.7346 C   0  0  0  0  0  0  0  0  0  0  0  0
   11.7604   14.0279   19.6408 C   0  0  0  0  0  0  0  0  0  0  0  0
   13.5028   15.0255   21.0666 C   0  0  0  0  0  0  0  0  0  0  0  0
   10.7839   14.1209   20.8148 C   0  0  0  0  0  0  0  0  0  0  0  0
   12.4923   15.1051   22.2104 C   0  0  0  0  0  0  0  0  0  0  0  0
    7.1957    9.0589   25.2207 C   0  0  0  0  0  0  0  0  0  0  0  0
    6.2597   10.2483   25.1302 C   0  0  0  0  0  0  0  0  0  0  0  0
   10.5493   14.0911   23.2136 C   0  0  0  0  0  0  0  0  0  0  0  0
   14.7637   16.2261   18.8109 C   0  0  0  0  0  0  0  0  0  0  0  0
   12.8336   15.0184   19.7667 N   0  0  0  0  0  0  0  0  0  0  0  0
   11.4941   14.0315   22.0990 N   0  0  0  0  0  0  0  0  0  0  0  0
   12.6275   16.2118   17.7846 O   0  0  0  0  0  0  0  0  0  0  0  0
    8.1120    9.0650   24.1224 O   0  0  0  0  0  0  0  0  0  0  0  0
    6.9951   11.4684   25.2570 O   0  0  0  0  0  0  0  0  0  0  0  0
   14.8179   17.7549   19.6813 Cl  0  0  0  0  0  0  0  0  0  0  0  0
   11.2865   11.6575   22.2473 H   0  0  0  0  0  0  0  0  0  0  0  0
   10.2042    9.4797   22.6561 H   0  0  0  0  0  0  0  0  0  0  0  0
    8.3348   13.6025   24.7049 H   0  0  0  0  0  0  0  0  0  0  0  0
   12.2379   13.0405   19.6169 H   0  0  0  0  0  0  0  0  0  0  0  0
   11.2094   14.1433   18.7054 H   0  0  0  0  0  0  0  0  0  0  0  0
   14.2061   15.8618   21.1359 H   0  0  0  0  0  0  0  0  0  0  0  0
   14.0887   14.1004   21.1338 H   0  0  0  0  0  0  0  0  0  0  0  0
   10.2133   15.0566   20.7449 H   0  0  0  0  0  0  0  0  0  0  0  0
   10.0677   13.2947   20.7305 H   0  0  0  0  0  0  0  0  0  0  0  0
   13.0378   15.0060   23.1566 H   0  0  0  0  0  0  0  0  0  0  0  0
   12.0119   16.0926   22.2114 H   0  0  0  0  0  0  0  0  0  0  0  0
    7.7693    9.0659   26.1558 H   0  0  0  0  0  0  0  0  0  0  0  0
    6.6285    8.1241   25.1759 H   0  0  0  0  0  0  0  0  0  0  0  0
    5.7163   10.2638   24.1771 H   0  0  0  0  0  0  0  0  0  0  0  0
    5.5251   10.2167   25.9409 H   0  0  0  0  0  0  0  0  0  0  0  0
    9.8053   14.8617   22.9842 H   0  0  0  0  0  0  0  0  0  0  0  0
   11.0987   14.4233   24.1007 H   0  0  0  0  0  0  0  0  0  0  0  0
   15.1455   16.3568   17.8048 H   0  0  0  0  0  0  0  0  0  0  0  0
   15.3103   15.4665   19.3579 H   0  0  0  0  0  0  0  0  0  0  0  0
  1  2  2  0  0  0  0
  1  4  1  0  0  0  0
  2  5  1  0  0  0  0
  3  4  2  0  0  0  0
  3  6  1  0  0  0  0
  4 14  1  0  0  0  0
  5  6  2  0  0  0  0
  5 19  1  0  0  0  0
  6 20  1  0  0  0  0
  7 15  1  0  0  0  0
  7 16  1  0  0  0  0
  7 18  2  0  0  0  0
  8 10  1  0  0  0  0
  8 16  1  0  0  0  0
  9 11  1  0  0  0  0
  9 16  1  0  0  0  0
 10 17  1  0  0  0  0
 11 17  1  0  0  0  0
 12 13  1  0  0  0  0
 12 19  1  0  0  0  0
 13 20  1  0  0  0  0
 14 17  1  0  0  0  0
 15 21  1  0  0  0  0
  1 22  1  0  0  0  0
  2 23  1  0  0  0  0
  3 24  1  0  0  0  0
  8 25  1  0  0  0  0
  8 26  1  0  0  0  0
  9 27  1  0  0  0  0
  9 28  1  0  0  0  0
 10 29  1  0  0  0  0
 10 30  1  0  0  0  0
 11 31  1  0  0  0  0
 11 32  1  0  0  0  0
 12 33  1  0  0  0  0
 12 34  1  0  0  0  0
 13 35  1  0  0  0  0
 13 36  1  0  0  0  0
 14 37  1  0  0  0  0
 14 38  1  0  0  0  0
 15 39  1  0  0  0  0
 15 40  1  0  0  0  0
M  END
> <Catalog ID>
Z89267037

> <MW>
310.108

> <MW (desalted)>
310.776

> <ClogP>
2.007

> <logS>
-2.56

> <HBD>
0

> <HBA>
4

> <TPSA>
42.01

> <RotBonds>
3

> <ROCS_ShapeQuery>
A71EV2A-x0451_0A_A71EV2A-x0310_0A_A71EV2A-x0416_0A_peptide

> <ROCS_TanimotoCombo>
0.417 

> <ROCS_ShapeTanimoto>
0.329 

> <ROCS_ColorTanimoto>
0.088 

> <ROCS_RefTversky>
0.292 

> <ROCS_RefColorTversky>
0.103 

> <ROCS_RefTverskyCombo>
0.395 

> <ROCS_FitTversky>
1.621 

> <ROCS_FitColorTversky>
0.381 

> <ROCS_FitTverskyCombo>
2.002 

> <ROCS_ColorScore>
-3.141

> <ROCS_Overlap>
2027.755

> <ROCS_Rank>
372                 

$$$$
untitled-dbase-520_2180
  -OEChem-11112315393D

 39 40  0     1  0  0  0  0  0999 V2000
    9.8113   14.9522   21.2732 C   0  0  0  0  0  0  0  0  0  0  0  0
   11.0831   15.3122   21.0878 C   0  0  0  0  0  0  0  0  0  0  0  0
   11.9985   15.3180   22.2461 C   0  0  0  0  0  0  0  0  0  0  0  0
   14.0618   13.4078   24.4400 C   0  0  0  0  0  0  0  0  0  0  0  0
   13.6101   11.9672   24.1953 C   0  0  0  0  0  0  0  0  0  0  0  0
   14.0164   14.2404   23.1621 C   0  0  0  0  0  0  0  0  0  0  0  0
    9.3321   10.1197   23.8941 C   0  0  0  0  0  0  0  0  0  0  0  0
    8.4086   12.3467   23.4027 C   0  0  0  0  0  0  0  0  0  0  0  0
   12.2807   12.7778   22.1992 C   0  0  0  0  0  0  0  0  0  0  0  0
    8.3753   10.0384   25.0744 C   0  0  0  0  0  0  0  0  0  0  0  0
    7.4894   12.1754   24.6030 C   0  0  0  0  0  0  0  0  0  0  0  0
   12.2809   11.8844   23.4399 C   0  0  2  0  0  0  0  0  0  0  0  0
   12.7004   14.1486   22.5270 N   0  0  0  0  0  0  0  0  0  0  0  0
    9.6493   11.5458   23.6013 N   0  0  0  0  0  0  0  0  0  0  0  0
   12.0830   16.3600   22.8986 O   0  0  0  0  0  0  0  0  0  0  0  0
   11.0876   11.5342   25.7378 O   0  0  0  0  0  0  0  0  0  0  0  0
   10.7319   13.7053   24.4947 O   0  0  0  0  0  0  0  0  0  0  0  0
    7.1902   10.7918   24.8052 O   0  0  0  0  0  0  0  0  0  0  0  0
   10.9094   12.2666   24.4995 S   0  0  0  0  0  0  0  0  0  0  0  0
    9.0917   14.9283   20.4616 H   0  0  0  0  0  0  0  0  0  0  0  0
    9.4641   14.6699   22.2615 H   0  0  0  0  0  0  0  0  0  0  0  0
   11.4666   15.5998   20.1177 H   0  0  0  0  0  0  0  0  0  0  0  0
   13.4249   13.8729   25.2018 H   0  0  0  0  0  0  0  0  0  0  0  0
   15.0815   13.4068   24.8417 H   0  0  0  0  0  0  0  0  0  0  0  0
   14.3810   11.4595   23.6014 H   0  0  0  0  0  0  0  0  0  0  0  0
   13.5479   11.4351   25.1516 H   0  0  0  0  0  0  0  0  0  0  0  0
   14.2706   15.2798   23.3924 H   0  0  0  0  0  0  0  0  0  0  0  0
   14.7560   13.8751   22.4397 H   0  0  0  0  0  0  0  0  0  0  0  0
   10.2673    9.5866   24.1230 H   0  0  0  0  0  0  0  0  0  0  0  0
    8.8698    9.6527   23.0132 H   0  0  0  0  0  0  0  0  0  0  0  0
    7.8913   12.0121   22.4927 H   0  0  0  0  0  0  0  0  0  0  0  0
    8.6839   13.4052   23.2803 H   0  0  0  0  0  0  0  0  0  0  0  0
   13.0107   12.3969   21.4736 H   0  0  0  0  0  0  0  0  0  0  0  0
   11.3115   12.7479   21.7003 H   0  0  0  0  0  0  0  0  0  0  0  0
    8.1014    9.0010   25.3007 H   0  0  0  0  0  0  0  0  0  0  0  0
    8.8450   10.4624   25.9674 H   0  0  0  0  0  0  0  0  0  0  0  0
    7.9814   12.5461   25.5075 H   0  0  0  0  0  0  0  0  0  0  0  0
    6.5540   12.7336   24.4776 H   0  0  0  0  0  0  0  0  0  0  0  0
   12.1120   10.8452   23.1333 H   0  0  0  0  0  0  0  0  0  0  0  0
  1  2  2  0  0  0  0
  2  3  1  0  0  0  0
  3 13  1  0  0  0  0
  3 15  2  0  0  0  0
  4  5  1  0  0  0  0
  4  6  1  0  0  0  0
  5 12  1  0  0  0  0
  6 13  1  0  0  0  0
  7 10  1  0  0  0  0
  7 14  1  0  0  0  0
  8 11  1  0  0  0  0
  8 14  1  0  0  0  0
  9 12  1  0  0  0  0
  9 13  1  0  0  0  0
 10 18  1  0  0  0  0
 11 18  1  0  0  0  0
 12 19  1  0  0  0  0
 14 19  1  0  0  0  0
 16 19  2  0  0  0  0
 17 19  2  0  0  0  0
  1 20  1  0  0  0  0
  1 21  1  0  0  0  0
  2 22  1  0  0  0  0
  4 23  1  0  0  0  0
  4 24  1  0  0  0  0
  5 25  1  0  0  0  0
  5 26  1  0  0  0  0
  6 27  1  0  0  0  0
  6 28  1  0  0  0  0
  7 29  1  0  0  0  0
  7 30  1  0  0  0  0
  8 31  1  0  0  0  0
  8 32  1  0  0  0  0
  9 33  1  0  0  0  0
  9 34  1  0  0  0  0
 10 35  1  0  0  0  0
 10 36  1  0  0  0  0
 11 37  1  0  0  0  0
 11 38  1  0  0  0  0
 12 39  1  0  0  0  0
M  END
> <Catalog ID>
Z2737383371

> <MW>
288.363

> <MW (desalted)>
288.363

> <ClogP>
0.598

> <logS>
-2.03

> <HBD>
0

> <HBA>
4

> <TPSA>
66.92

> <RotBonds>
2

> <ROCS_ShapeQuery>
A71EV2A-x0451_0A_A71EV2A-x0310_0A_A71EV2A-x0416_0A_peptide

> <ROCS_TanimotoCombo>
0.417 

> <ROCS_ShapeTanimoto>
0.264 

> <ROCS_ColorTanimoto>
0.153 

> <ROCS_RefTversky>
0.243 

> <ROCS_RefColorTversky>
0.168 

> <ROCS_RefTverskyCombo>
0.411 

> <ROCS_FitTversky>
1.499 

> <ROCS_FitColorTversky>
0.623 

> <ROCS_FitTverskyCombo>
2.122 

> <ROCS_ColorScore>
-5.131

> <ROCS_Overlap>
1685.344

> <ROCS_Rank>
373                 

$$$$
untitled-dbase-32_25
  -OEChem-11112315393D

 35 36  0     1  0  0  0  0  0999 V2000
   10.5033   13.2421   23.4423 C   0  0  0  0  0  0  0  0  0  0  0  0
    6.4216   11.1237   26.2097 C   0  0  0  0  0  0  0  0  0  0  0  0
    7.4478   12.1641   26.6446 C   0  0  0  0  0  0  0  0  0  0  0  0
    6.1879   11.1479   24.6994 C   0  0  0  0  0  0  0  0  0  0  0  0
    8.7533   12.0453   25.8604 C   0  0  0  0  0  0  0  0  0  0  0  0
    9.5992    9.5874   23.6682 C   0  0  0  0  0  0  0  0  0  0  0  0
   10.1005   10.8066   22.9103 C   0  0  0  0  0  0  0  0  0  0  0  0
    7.4892   11.0402   23.8799 C   0  0  2  0  0  0  0  0  0  0  0  0
    8.0800    9.6053   23.9008 C   0  0  1  0  0  0  0  0  0  0  0  0
    8.4961   12.1128   24.3451 C   0  0  2  0  0  0  0  0  0  0  0  0
    7.3746    8.7192   22.8653 C   0  0  0  0  0  0  0  0  0  0  0  0
   11.2287   13.4309   22.1327 C   0  0  0  0  0  0  0  0  0  0  0  0
    9.7555   12.0662   23.5794 N   0  0  0  0  0  0  0  0  0  0  0  0
   10.5974   14.1075   24.3166 O   0  0  0  0  0  0  0  0  0  0  0  0
   10.5759   14.8929   21.4025 Cl  0  0  0  0  0  0  0  0  0  0  0  0
    6.7506   10.1232   26.5224 H   0  0  0  0  0  0  0  0  0  0  0  0
    5.4710   11.3118   26.7274 H   0  0  0  0  0  0  0  0  0  0  0  0
    7.0304   13.1698   26.5027 H   0  0  0  0  0  0  0  0  0  0  0  0
    7.6514   12.0555   27.7170 H   0  0  0  0  0  0  0  0  0  0  0  0
    5.4774   10.3622   24.4224 H   0  0  0  0  0  0  0  0  0  0  0  0
    5.6938   12.0952   24.4417 H   0  0  0  0  0  0  0  0  0  0  0  0
    9.4246   12.8534   26.1642 H   0  0  0  0  0  0  0  0  0  0  0  0
    9.2386   11.1042   26.1326 H   0  0  0  0  0  0  0  0  0  0  0  0
    9.8828    8.6761   23.1157 H   0  0  0  0  0  0  0  0  0  0  0  0
   10.1223    9.5306   24.6363 H   0  0  0  0  0  0  0  0  0  0  0  0
   11.1926   10.7764   22.8142 H   0  0  0  0  0  0  0  0  0  0  0  0
    9.6966   10.7911   21.8917 H   0  0  0  0  0  0  0  0  0  0  0  0
    7.2148   11.2607   22.8378 H   0  0  0  0  0  0  0  0  0  0  0  0
    7.8758    9.1453   24.8891 H   0  0  0  0  0  0  0  0  0  0  0  0
    8.0092   13.0834   24.1560 H   0  0  0  0  0  0  0  0  0  0  0  0
    7.5388    9.1210   21.8683 H   0  0  0  0  0  0  0  0  0  0  0  0
    6.3073    8.6949   23.0720 H   0  0  0  0  0  0  0  0  0  0  0  0
    7.7741    7.7090   22.9164 H   0  0  0  0  0  0  0  0  0  0  0  0
   11.0313   12.5763   21.4962 H   0  0  0  0  0  0  0  0  0  0  0  0
   12.2866   13.5543   22.3326 H   0  0  0  0  0  0  0  0  0  0  0  0
  1 12  1  0  0  0  0
  1 13  1  0  0  0  0
  1 14  2  0  0  0  0
  2  3  1  0  0  0  0
  2  4  1  0  0  0  0
  3  5  1  0  0  0  0
  4  8  1  0  0  0  0
  5 10  1  0  0  0  0
  6  7  1  0  0  0  0
  6  9  1  0  0  0  0
  7 13  1  0  0  0  0
  8  9  1  0  0  0  0
  8 10  1  0  0  0  0
  9 11  1  0  0  0  0
 10 13  1  0  0  0  0
 12 15  1  0  0  0  0
  2 16  1  0  0  0  0
  2 17  1  0  0  0  0
  3 18  1  0  0  0  0
  3 19  1  0  0  0  0
  4 20  1  0  0  0  0
  4 21  1  0  0  0  0
  5 22  1  0  0  0  0
  5 23  1  0  0  0  0
  6 24  1  0  0  0  0
  6 25  1  0  0  0  0
  7 26  1  0  0  0  0
  7 27  1  0  0  0  0
  8 28  1  0  0  0  0
  9 29  1  0  0  0  0
 10 30  1  0  0  0  0
 11 31  1  0  0  0  0
 11 32  1  0  0  0  0
 11 33  1  0  0  0  0
 12 34  1  0  0  0  0
 12 35  1  0  0  0  0
M  END
> <Catalog ID>
Z561109264

> <MW>
229.123

> <MW (desalted)>
229.746

> <ClogP>
2.545

> <logS>
-3.098

> <HBD>
0

> <HBA>
1

> <TPSA>
20.31

> <RotBonds>
1

> <ROCS_ShapeQuery>
A71EV2A-x0451_0A_A71EV2A-x0310_0A_A71EV2A-x0416_0A_peptide

> <ROCS_TanimotoCombo>
0.417 

> <ROCS_ShapeTanimoto>
0.278 

> <ROCS_ColorTanimoto>
0.139 

> <ROCS_RefTversky>
0.248 

> <ROCS_RefColorTversky>
0.140 

> <ROCS_RefTverskyCombo>
0.388 

> <ROCS_FitTversky>
1.789 

> <ROCS_FitColorTversky>
0.952 

> <ROCS_FitTverskyCombo>
2.741 

> <ROCS_ColorScore>
-4.233

> <ROCS_Overlap>
1716.708

> <ROCS_Rank>
374                 

$$$$
untitled-dbase-830_14
  -OEChem-11112315393D

 26 26  0     0  0  0  0  0  0999 V2000
    7.6910   11.1548   24.6145 C   0  0  0  0  0  0  0  0  0  0  0  0
    8.7477    9.3758   23.3673 C   0  0  0  0  0  0  0  0  0  0  0  0
    8.5936   12.0703   24.0735 C   0  0  0  0  0  0  0  0  0  0  0  0
    9.6504   10.2913   22.8263 C   0  0  0  0  0  0  0  0  0  0  0  0
    7.7680    9.8075   24.2615 C   0  0  0  0  0  0  0  0  0  0  0  0
    9.5733   11.6386   23.1794 C   0  0  0  0  0  0  0  0  0  0  0  0
    5.8236    9.1351   25.7077 C   0  0  0  0  0  0  0  0  0  0  0  0
   10.9313   13.7154   23.2520 C   0  0  0  0  0  0  0  0  0  0  0  0
    5.0734    7.8723   26.0497 C   0  0  0  0  0  0  0  0  0  0  0  0
   11.9039   14.4694   22.3751 C   0  0  0  0  0  0  0  0  0  0  0  0
    6.8656    8.8916   24.8028 N   0  0  0  0  0  0  0  0  0  0  0  0
   10.4763   12.5540   22.6381 N   0  0  0  0  0  0  0  0  0  0  0  0
    5.4998   10.2110   26.2001 O   0  0  0  0  0  0  0  0  0  0  0  0
   10.6204   14.1603   24.3536 O   0  0  0  0  0  0  0  0  0  0  0  0
   11.4696   14.1503   20.6883 Cl  0  0  0  0  0  0  0  0  0  0  0  0
    6.9318   11.5028   25.3103 H   0  0  0  0  0  0  0  0  0  0  0  0
    8.8167    8.3283   23.0850 H   0  0  0  0  0  0  0  0  0  0  0  0
    8.5240   13.1177   24.3565 H   0  0  0  0  0  0  0  0  0  0  0  0
   10.4100    9.9437   22.1312 H   0  0  0  0  0  0  0  0  0  0  0  0
    5.5321    7.3933   26.9193 H   0  0  0  0  0  0  0  0  0  0  0  0
    5.1091    7.1800   25.2038 H   0  0  0  0  0  0  0  0  0  0  0  0
    4.0279    8.1073   26.2699 H   0  0  0  0  0  0  0  0  0  0  0  0
   12.9416   14.1661   22.5357 H   0  0  0  0  0  0  0  0  0  0  0  0
   11.8147   15.5417   22.5706 H   0  0  0  0  0  0  0  0  0  0  0  0
    6.9725    7.9153   24.5040 H   0  0  0  0  0  0  0  0  0  0  0  0
   10.8355   12.3528   21.7067 H   0  0  0  0  0  0  0  0  0  0  0  0
  1  3  2  0  0  0  0
  1  5  1  0  0  0  0
  2  4  1  0  0  0  0
  2  5  2  0  0  0  0
  3  6  1  0  0  0  0
  4  6  2  0  0  0  0
  5 11  1  0  0  0  0
  6 12  1  0  0  0  0
  7  9  1  0  0  0  0
  7 11  1  0  0  0  0
  7 13  2  0  0  0  0
  8 10  1  0  0  0  0
  8 12  1  0  0  0  0
  8 14  2  0  0  0  0
 10 15  1  0  0  0  0
  1 16  1  0  0  0  0
  2 17  1  0  0  0  0
  3 18  1  0  0  0  0
  4 19  1  0  0  0  0
  9 20  1  0  0  0  0
  9 21  1  0  0  0  0
  9 22  1  0  0  0  0
 10 23  1  0  0  0  0
 10 24  1  0  0  0  0
 11 25  1  0  0  0  0
 12 26  1  0  0  0  0
M  END
> <Catalog ID>
Z56823002

> <MW>
226.051

> <MW (desalted)>
226.66

> <ClogP>
0.793

> <logS>
-2.33

> <HBD>
2

> <HBA>
2

> <TPSA>
58.2

> <RotBonds>
3

> <ROCS_ShapeQuery>
A71EV2A-x0451_0A_A71EV2A-x0310_0A_A71EV2A-x0416_0A_peptide

> <ROCS_TanimotoCombo>
0.417 

> <ROCS_ShapeTanimoto>
0.261 

> <ROCS_ColorTanimoto>
0.156 

> <ROCS_RefTversky>
0.236 

> <ROCS_RefColorTversky>
0.163 

> <ROCS_RefTverskyCombo>
0.399 

> <ROCS_FitTversky>
1.682 

> <ROCS_FitColorTversky>
0.782 

> <ROCS_FitTverskyCombo>
2.464 

> <ROCS_ColorScore>
-4.953

> <ROCS_Overlap>
1635.666

> <ROCS_Rank>
375                 

$$$$
untitled-dbase-634_39
  -OEChem-11112315393D

 32 33  0     0  0  0  0  0  0999 V2000
    7.4830   11.5884   24.9535 C   0  0  0  0  0  0  0  0  0  0  0  0
    8.4665   12.2915   24.2578 C   0  0  0  0  0  0  0  0  0  0  0  0
    7.4048   10.2004   24.8386 C   0  0  0  0  0  0  0  0  0  0  0  0
    9.2934   10.2187   23.3321 C   0  0  0  0  0  0  0  0  0  0  0  0
    9.3717   11.6066   23.4471 C   0  0  0  0  0  0  0  0  0  0  0  0
    8.3100    9.5156   24.0279 C   0  0  0  0  0  0  0  0  0  0  0  0
   10.9210   13.5283   23.1836 C   0  0  0  0  0  0  0  0  0  0  0  0
   11.6422    9.6053   22.7686 C   0  0  0  0  0  0  0  0  0  0  0  0
    9.7585    8.7349   21.3848 C   0  0  0  0  0  0  0  0  0  0  0  0
   12.3826    9.3893   21.4510 C   0  0  0  0  0  0  0  0  0  0  0  0
   10.7829    7.6320   21.1294 C   0  0  0  0  0  0  0  0  0  0  0  0
   11.9439   14.0371   22.1945 C   0  0  0  0  0  0  0  0  0  0  0  0
   10.1996    9.5440   22.5231 N   0  0  0  0  0  0  0  0  0  0  0  0
   10.3490   12.3353   22.7624 N   0  0  0  0  0  0  0  0  0  0  0  0
   10.6741   14.1696   24.2014 O   0  0  0  0  0  0  0  0  0  0  0  0
   12.0867    8.1341   20.8415 O   0  0  0  0  0  0  0  0  0  0  0  0
    8.1735    7.7966   23.9157 Cl  0  0  0  0  0  0  0  0  0  0  0  0
   11.1043   15.0844   21.0396 Cl  0  0  0  0  0  0  0  0  0  0  0  0
    6.7783   12.1217   25.5849 H   0  0  0  0  0  0  0  0  0  0  0  0
    8.5175   13.3730   24.3564 H   0  0  0  0  0  0  0  0  0  0  0  0
    6.6321    9.6680   25.3876 H   0  0  0  0  0  0  0  0  0  0  0  0
   11.9496    8.8409   23.4882 H   0  0  0  0  0  0  0  0  0  0  0  0
   11.8980   10.5902   23.1735 H   0  0  0  0  0  0  0  0  0  0  0  0
    9.6793    9.3725   20.4979 H   0  0  0  0  0  0  0  0  0  0  0  0
    8.7805    8.2858   21.5795 H   0  0  0  0  0  0  0  0  0  0  0  0
   12.0976   10.1808   20.7341 H   0  0  0  0  0  0  0  0  0  0  0  0
   13.4784    9.4837   21.5878 H   0  0  0  0  0  0  0  0  0  0  0  0
   10.8383    6.9314   21.9864 H   0  0  0  0  0  0  0  0  0  0  0  0
   10.4627    7.0261   20.2625 H   0  0  0  0  0  0  0  0  0  0  0  0
   12.4389   13.2320   21.6455 H   0  0  0  0  0  0  0  0  0  0  0  0
   12.7016   14.6225   22.7229 H   0  0  0  0  0  0  0  0  0  0  0  0
   10.6702   11.9570   21.8747 H   0  0  0  0  0  0  0  0  0  0  0  0
  1  2  2  0  0  0  0
  1  3  1  0  0  0  0
  2  5  1  0  0  0  0
  3  6  2  0  0  0  0
  4  5  2  0  0  0  0
  4  6  1  0  0  0  0
  4 13  1  0  0  0  0
  5 14  1  0  0  0  0
  6 17  1  0  0  0  0
  7 12  1  0  0  0  0
  7 14  1  0  0  0  0
  7 15  2  0  0  0  0
  8 10  1  0  0  0  0
  8 13  1  0  0  0  0
  9 11  1  0  0  0  0
  9 13  1  0  0  0  0
 10 16  1  0  0  0  0
 11 16  1  0  0  0  0
 12 18  1  0  0  0  0
  1 19  1  0  0  0  0
  2 20  1  0  0  0  0
  3 21  1  0  0  0  0
  8 22  1  0  0  0  0
  8 23  1  0  0  0  0
  9 24  1  0  0  0  0
  9 25  1  0  0  0  0
 10 26  1  0  0  0  0
 10 27  1  0  0  0  0
 11 28  1  0  0  0  0
 11 29  1  0  0  0  0
 12 30  1  0  0  0  0
 12 31  1  0  0  0  0
 14 32  1  0  0  0  0
M  END
> <Catalog ID>
Z258588696

> <MW>
288.043

> <MW (desalted)>
289.158

> <ClogP>
2.252

> <logS>
-3.318

> <HBD>
1

> <HBA>
3

> <TPSA>
41.57

> <RotBonds>
3

> <ROCS_ShapeQuery>
A71EV2A-x0451_0A_A71EV2A-x0310_0A_A71EV2A-x0416_0A_peptide

> <ROCS_TanimotoCombo>
0.417 

> <ROCS_ShapeTanimoto>
0.285 

> <ROCS_ColorTanimoto>
0.131 

> <ROCS_RefTversky>
0.257 

> <ROCS_RefColorTversky>
0.140 

> <ROCS_RefTverskyCombo>
0.398 

> <ROCS_FitTversky>
1.617 

> <ROCS_FitColorTversky>
0.673 

> <ROCS_FitTverskyCombo>
2.290 

> <ROCS_ColorScore>
-4.264

> <ROCS_Overlap>
1785.381

> <ROCS_Rank>
376                 

$$$$
untitled-dbase-723_37
  -OEChem-11112315393D

 24 24  0     0  0  0  0  0  0999 V2000
    8.4550   12.3122   24.2078 C   0  0  0  0  0  0  0  0  0  0  0  0
    7.4735   11.5779   24.8733 C   0  0  0  0  0  0  0  0  0  0  0  0
    9.3762   10.2673   23.3097 C   0  0  0  0  0  0  0  0  0  0  0  0
    9.4064   11.6569   23.4259 C   0  0  0  0  0  0  0  0  0  0  0  0
    7.4433   10.1882   24.7571 C   0  0  0  0  0  0  0  0  0  0  0  0
    8.3947    9.5329   23.9753 C   0  0  0  0  0  0  0  0  0  0  0  0
   11.8372   15.2421   21.5257 C   0  0  0  0  0  0  0  0  0  0  0  0
   11.9822   14.0730   22.1572 C   0  0  0  0  0  0  0  0  0  0  0  0
   10.9623   13.6114   23.1432 C   0  0  0  0  0  0  0  0  0  0  0  0
    5.5441   10.2084   26.1883 C   0  0  0  0  0  0  0  0  0  0  0  0
   10.3882   12.3914   22.7602 N   0  0  0  0  0  0  0  0  0  0  0  0
   10.7052   14.2675   24.1457 O   0  0  0  0  0  0  0  0  0  0  0  0
    6.4846    9.4733   25.4067 O   0  0  0  0  0  0  0  0  0  0  0  0
    8.3702    8.1981   23.8591 F   0  0  0  0  0  0  0  0  0  0  0  0
    8.4701   13.3948   24.3062 H   0  0  0  0  0  0  0  0  0  0  0  0
    6.7349   12.0939   25.4805 H   0  0  0  0  0  0  0  0  0  0  0  0
   10.1122    9.7462   22.7031 H   0  0  0  0  0  0  0  0  0  0  0  0
   12.5572   15.6100   20.8033 H   0  0  0  0  0  0  0  0  0  0  0  0
   10.9720   15.8646   21.7289 H   0  0  0  0  0  0  0  0  0  0  0  0
   12.8466   13.4500   21.9545 H   0  0  0  0  0  0  0  0  0  0  0  0
    4.8357    9.5176   26.6520 H   0  0  0  0  0  0  0  0  0  0  0  0
    5.0125   10.9174   25.5486 H   0  0  0  0  0  0  0  0  0  0  0  0
    6.0800   10.7549   26.9679 H   0  0  0  0  0  0  0  0  0  0  0  0
   10.7329   11.9882   21.8806 H   0  0  0  0  0  0  0  0  0  0  0  0
  1  2  2  0  0  0  0
  1  4  1  0  0  0  0
  2  5  1  0  0  0  0
  3  4  2  0  0  0  0
  3  6  1  0  0  0  0
  4 11  1  0  0  0  0
  5  6  2  0  0  0  0
  5 13  1  0  0  0  0
  6 14  1  0  0  0  0
  7  8  2  0  0  0  0
  8  9  1  0  0  0  0
  9 11  1  0  0  0  0
  9 12  2  0  0  0  0
 10 13  1  0  0  0  0
  1 15  1  0  0  0  0
  2 16  1  0  0  0  0
  3 17  1  0  0  0  0
  7 18  1  0  0  0  0
  7 19  1  0  0  0  0
  8 20  1  0  0  0  0
 10 21  1  0  0  0  0
 10 22  1  0  0  0  0
 10 23  1  0  0  0  0
 11 24  1  0  0  0  0
M  END
> <Catalog ID>
Z440634776

> <MW>
195.07

> <MW (desalted)>
195.19

> <ClogP>
1.632

> <logS>
-2.55

> <HBD>
1

> <HBA>
2

> <TPSA>
38.33

> <RotBonds>
3

> <ROCS_ShapeQuery>
A71EV2A-x0451_0A_A71EV2A-x0310_0A_A71EV2A-x0416_0A_peptide

> <ROCS_TanimotoCombo>
0.417 

> <ROCS_ShapeTanimoto>
0.284 

> <ROCS_ColorTanimoto>
0.132 

> <ROCS_RefTversky>
0.252 

> <ROCS_RefColorTversky>
0.141 

> <ROCS_RefTverskyCombo>
0.393 

> <ROCS_FitTversky>
1.846 

> <ROCS_FitColorTversky>
0.678 

> <ROCS_FitTverskyCombo>
2.523 

> <ROCS_ColorScore>
-4.294

> <ROCS_Overlap>
1742.448

> <ROCS_Rank>
377                 

$$$$
untitled-dbase-635_80
  -OEChem-11112315393D

 34 36  0     1  0  0  0  0  0999 V2000
    6.5589   12.0299   26.0740 C   0  0  0  0  0  0  0  0  0  0  0  0
    6.2919   10.6817   25.8627 C   0  0  0  0  0  0  0  0  0  0  0  0
    7.6225   12.6550   25.4166 C   0  0  0  0  0  0  0  0  0  0  0  0
    7.0779    9.9234   24.9914 C   0  0  0  0  0  0  0  0  0  0  0  0
    8.4325   11.9117   24.5309 C   0  0  0  0  0  0  0  0  0  0  0  0
    8.1447   10.5576   24.3345 C   0  0  0  0  0  0  0  0  0  0  0  0
   10.0327   11.4270   23.0917 C   0  0  0  0  0  0  0  0  0  0  0  0
   11.5289   15.3007   22.4774 C   0  0  0  0  0  0  0  0  0  0  0  0
   13.1737   12.3151   23.6864 C   0  0  0  0  0  0  0  0  0  0  0  0
   12.5596   11.1897   22.8577 C   0  0  0  0  0  0  0  0  0  0  0  0
   13.2761   13.6026   22.8794 C   0  0  0  0  0  0  0  0  0  0  0  0
   11.3236   12.9678   21.4919 C   0  0  0  0  0  0  0  0  0  0  0  0
   11.2428   11.5880   22.1706 C   0  0  2  0  0  0  0  0  0  0  0  0
   10.1838   15.6299   21.8797 C   0  0  0  0  0  0  0  0  0  0  0  0
    9.5166   12.3948   23.8125 N   0  0  0  0  0  0  0  0  0  0  0  0
   11.9814   13.9889   22.3183 N   0  0  0  0  0  0  0  0  0  0  0  0
   12.1552   16.1822   23.0713 O   0  0  0  0  0  0  0  0  0  0  0  0
    9.2779    9.8970   23.2155 S   0  0  0  0  0  0  0  0  0  0  0  0
   10.4868   16.2081   20.2451 Cl  0  0  0  0  0  0  0  0  0  0  0  0
    5.9368   12.6035   26.7555 H   0  0  0  0  0  0  0  0  0  0  0  0
    5.4614   10.2100   26.3813 H   0  0  0  0  0  0  0  0  0  0  0  0
    7.8213   13.7091   25.5885 H   0  0  0  0  0  0  0  0  0  0  0  0
    6.8626    8.8715   24.8305 H   0  0  0  0  0  0  0  0  0  0  0  0
   12.5639   12.4869   24.5815 H   0  0  0  0  0  0  0  0  0  0  0  0
   14.1718   12.0169   24.0325 H   0  0  0  0  0  0  0  0  0  0  0  0
   13.2947   10.8492   22.1005 H   0  0  0  0  0  0  0  0  0  0  0  0
   12.3925   10.3090   23.5124 H   0  0  0  0  0  0  0  0  0  0  0  0
   13.6165   14.4312   23.5175 H   0  0  0  0  0  0  0  0  0  0  0  0
   14.0252   13.4827   22.0856 H   0  0  0  0  0  0  0  0  0  0  0  0
   11.8166   12.8664   20.5067 H   0  0  0  0  0  0  0  0  0  0  0  0
   10.3068   13.3510   21.2626 H   0  0  0  0  0  0  0  0  0  0  0  0
   11.0686   10.8237   21.3363 H   0  0  0  0  0  0  0  0  0  0  0  0
    9.7183   16.4107   22.4703 H   0  0  0  0  0  0  0  0  0  0  0  0
    9.5822   14.7287   21.8503 H   0  0  0  0  0  0  0  0  0  0  0  0
  1  2  1  0  0  0  0
  1  3  2  0  0  0  0
  2  4  2  0  0  0  0
  3  5  1  0  0  0  0
  4  6  1  0  0  0  0
  5  6  2  0  0  0  0
  5 15  1  0  0  0  0
  6 18  1  0  0  0  0
  7 13  1  0  0  0  0
  7 15  2  0  0  0  0
  7 18  1  0  0  0  0
  8 14  1  0  0  0  0
  8 16  1  0  0  0  0
  8 17  2  0  0  0  0
  9 10  1  0  0  0  0
  9 11  1  0  0  0  0
 10 13  1  0  0  0  0
 11 16  1  0  0  0  0
 12 13  1  0  0  0  0
 12 16  1  0  0  0  0
 14 19  1  0  0  0  0
  1 20  1  0  0  0  0
  2 21  1  0  0  0  0
  3 22  1  0  0  0  0
  4 23  1  0  0  0  0
  9 24  1  0  0  0  0
  9 25  1  0  0  0  0
 10 26  1  0  0  0  0
 10 27  1  0  0  0  0
 11 28  1  0  0  0  0
 11 29  1  0  0  0  0
 12 30  1  0  0  0  0
 12 31  1  0  0  0  0
 13 32  1  0  0  0  0
 14 33  1  0  0  0  0
 14 34  1  0  0  0  0
M  END
> <Catalog ID>
Z147647764

> <MW>
294.059

> <MW (desalted)>
294.8

> <ClogP>
2.09

> <logS>
-3.5

> <HBD>
0

> <HBA>
2

> <TPSA>
33.2

> <RotBonds>
2

> <ROCS_ShapeQuery>
A71EV2A-x0451_0A_A71EV2A-x0310_0A_A71EV2A-x0416_0A_peptide

> <ROCS_TanimotoCombo>
0.417 

> <ROCS_ShapeTanimoto>
0.307 

> <ROCS_ColorTanimoto>
0.110 

> <ROCS_RefTversky>
0.274 

> <ROCS_RefColorTversky>
0.120 

> <ROCS_RefTverskyCombo>
0.393 

> <ROCS_FitTversky>
1.652 

> <ROCS_FitColorTversky>
0.573 

> <ROCS_FitTverskyCombo>
2.225 

> <ROCS_ColorScore>
-3.639

> <ROCS_Overlap>
1898.511

> <ROCS_Rank>
378                 

$$$$
untitled-dbase-379_7
  -OEChem-11112315393D

 19 19  0     0  0  0  0  0  0999 V2000
    8.3441    9.5018   23.9908 C   0  0  0  0  0  0  0  0  0  0  0  0
    7.4282   10.1609   24.8108 C   0  0  0  0  0  0  0  0  0  0  0  0
    8.4588   12.2760   24.2620 C   0  0  0  0  0  0  0  0  0  0  0  0
    9.3748   11.6169   23.4420 C   0  0  0  0  0  0  0  0  0  0  0  0
    9.3174   10.2298   23.3065 C   0  0  0  0  0  0  0  0  0  0  0  0
    7.4855   11.5479   24.9463 C   0  0  0  0  0  0  0  0  0  0  0  0
   10.9208   13.5414   23.1801 C   0  0  0  0  0  0  0  0  0  0  0  0
   11.9412   14.0539   22.1904 C   0  0  0  0  0  0  0  0  0  0  0  0
   10.3478   12.3471   22.7586 N   0  0  0  0  0  0  0  0  0  0  0  0
   10.6749   14.1800   24.1998 O   0  0  0  0  0  0  0  0  0  0  0  0
   10.1924    9.5855   22.5209 F   0  0  0  0  0  0  0  0  0  0  0  0
    6.3552   12.3610   25.9582 Cl  0  0  0  0  0  0  0  0  0  0  0  0
   11.4451   13.5184   20.5771 Cl  0  0  0  0  0  0  0  0  0  0  0  0
    8.2993    8.4217   23.8860 H   0  0  0  0  0  0  0  0  0  0  0  0
    6.6755    9.5800   25.3378 H   0  0  0  0  0  0  0  0  0  0  0  0
    8.5056   13.3578   24.3665 H   0  0  0  0  0  0  0  0  0  0  0  0
   12.9493   13.6823   22.3909 H   0  0  0  0  0  0  0  0  0  0  0  0
   11.9559   15.1472   22.2155 H   0  0  0  0  0  0  0  0  0  0  0  0
   10.6679   11.9701   21.8685 H   0  0  0  0  0  0  0  0  0  0  0  0
  1  2  2  0  0  0  0
  1  5  1  0  0  0  0
  2  6  1  0  0  0  0
  3  4  1  0  0  0  0
  3  6  2  0  0  0  0
  4  5  2  0  0  0  0
  4  9  1  0  0  0  0
  5 11  1  0  0  0  0
  6 12  1  0  0  0  0
  7  8  1  0  0  0  0
  7  9  1  0  0  0  0
  7 10  2  0  0  0  0
  8 13  1  0  0  0  0
  1 14  1  0  0  0  0
  2 15  1  0  0  0  0
  3 16  1  0  0  0  0
  8 17  1  0  0  0  0
  8 18  1  0  0  0  0
  9 19  1  0  0  0  0
M  END
> <Catalog ID>
Z56347419

> <MW>
220.981

> <MW (desalted)>
222.044

> <ClogP>
2.378

> <logS>
-3.23

> <HBD>
1

> <HBA>
1

> <TPSA>
29.1

> <RotBonds>
2

> <ROCS_ShapeQuery>
A71EV2A-x0451_0A_A71EV2A-x0310_0A_A71EV2A-x0416_0A_peptide

> <ROCS_TanimotoCombo>
0.417 

> <ROCS_ShapeTanimoto>
0.277 

> <ROCS_ColorTanimoto>
0.140 

> <ROCS_RefTversky>
0.244 

> <ROCS_RefColorTversky>
0.141 

> <ROCS_RefTverskyCombo>
0.385 

> <ROCS_FitTversky>
1.914 

> <ROCS_FitColorTversky>
0.960 

> <ROCS_FitTverskyCombo>
2.874 

> <ROCS_ColorScore>
-4.257

> <ROCS_Overlap>
1692.398

> <ROCS_Rank>
379                 

$$$$
untitled-dbase-58_6
  -OEChem-11112315393D

 23 23  0     0  0  0  0  0  0999 V2000
    7.4635   11.5424   24.9338 C   0  0  0  0  0  0  0  0  0  0  0  0
    8.4415   12.2678   24.2533 C   0  0  0  0  0  0  0  0  0  0  0  0
    7.4119   10.1540   24.8094 C   0  0  0  0  0  0  0  0  0  0  0  0
    9.3162   10.2164   23.3239 C   0  0  0  0  0  0  0  0  0  0  0  0
    9.3678   11.6048   23.4483 C   0  0  0  0  0  0  0  0  0  0  0  0
    8.3383    9.4911   24.0044 C   0  0  0  0  0  0  0  0  0  0  0  0
   11.7687   15.2160   21.5592 C   0  0  0  0  0  0  0  0  0  0  0  0
   11.9235   14.0368   22.1695 C   0  0  0  0  0  0  0  0  0  0  0  0
   10.9216   13.5612   23.1671 C   0  0  0  0  0  0  0  0  0  0  0  0
   10.2973    9.4831   22.4676 C   0  0  0  0  0  0  0  0  0  0  0  0
   10.3396   12.3493   22.7749 N   0  0  0  0  0  0  0  0  0  0  0  0
   10.6845   14.2019   24.1844 O   0  0  0  0  0  0  0  0  0  0  0  0
    8.2798    8.1566   23.8918 F   0  0  0  0  0  0  0  0  0  0  0  0
    6.7421   12.0585   25.5606 H   0  0  0  0  0  0  0  0  0  0  0  0
    8.4714   13.3494   24.3584 H   0  0  0  0  0  0  0  0  0  0  0  0
    6.6506    9.5891   25.3391 H   0  0  0  0  0  0  0  0  0  0  0  0
   12.4756   15.5942   20.8292 H   0  0  0  0  0  0  0  0  0  0  0  0
   10.9085   15.8364   21.7884 H   0  0  0  0  0  0  0  0  0  0  0  0
   12.7829   13.4159   21.9407 H   0  0  0  0  0  0  0  0  0  0  0  0
   11.1777    9.2014   23.0562 H   0  0  0  0  0  0  0  0  0  0  0  0
    9.8521    8.5739   22.0461 H   0  0  0  0  0  0  0  0  0  0  0  0
   10.6238   10.1011   21.6224 H   0  0  0  0  0  0  0  0  0  0  0  0
   10.6671   11.9602   21.8834 H   0  0  0  0  0  0  0  0  0  0  0  0
  1  2  2  0  0  0  0
  1  3  1  0  0  0  0
  2  5  1  0  0  0  0
  3  6  2  0  0  0  0
  4  5  2  0  0  0  0
  4  6  1  0  0  0  0
  4 10  1  0  0  0  0
  5 11  1  0  0  0  0
  6 13  1  0  0  0  0
  7  8  2  0  0  0  0
  8  9  1  0  0  0  0
  9 11  1  0  0  0  0
  9 12  2  0  0  0  0
  1 14  1  0  0  0  0
  2 15  1  0  0  0  0
  3 16  1  0  0  0  0
  7 17  1  0  0  0  0
  7 18  1  0  0  0  0
  8 19  1  0  0  0  0
 10 20  1  0  0  0  0
 10 21  1  0  0  0  0
 10 22  1  0  0  0  0
 11 23  1  0  0  0  0
M  END
> <Catalog ID>
Z838919236

> <MW>
179.075

> <MW (desalted)>
179.191

> <ClogP>
1.666

> <logS>
-2.8

> <HBD>
1

> <HBA>
1

> <TPSA>
29.1

> <RotBonds>
2

> <ROCS_ShapeQuery>
A71EV2A-x0451_0A_A71EV2A-x0310_0A_A71EV2A-x0416_0A_peptide

> <ROCS_TanimotoCombo>
0.416 

> <ROCS_ShapeTanimoto>
0.282 

> <ROCS_ColorTanimoto>
0.135 

> <ROCS_RefTversky>
0.249 

> <ROCS_RefColorTversky>
0.140 

> <ROCS_RefTverskyCombo>
0.388 

> <ROCS_FitTversky>
1.910 

> <ROCS_FitColorTversky>
0.786 

> <ROCS_FitTverskyCombo>
2.697 

> <ROCS_ColorScore>
-4.235

> <ROCS_Overlap>
1720.986

> <ROCS_Rank>
380                 

$$$$
untitled-dbase-616_22
  -OEChem-11112315393D

 23 23  0     0  0  0  0  0  0999 V2000
    9.9244    9.2460   22.6345 C   0  0  0  0  0  0  0  0  0  0  0  0
    9.1570   10.1686   23.4138 C   0  0  0  0  0  0  0  0  0  0  0  0
    8.0734    9.8136   24.2681 C   0  0  0  0  0  0  0  0  0  0  0  0
    7.5244   10.9125   24.8915 C   0  0  0  0  0  0  0  0  0  0  0  0
    9.3949   11.5256   23.4166 C   0  0  0  0  0  0  0  0  0  0  0  0
   10.8922   13.4932   23.1944 C   0  0  0  0  0  0  0  0  0  0  0  0
    7.5859    8.4250   24.4690 C   0  0  0  0  0  0  0  0  0  0  0  0
    6.3945   10.9727   25.8453 C   0  0  0  0  0  0  0  0  0  0  0  0
   11.8834   14.0620   22.2057 C   0  0  0  0  0  0  0  0  0  0  0  0
   10.5469    8.4978   22.0024 N   0  0  0  0  0  0  0  0  0  0  0  0
   10.3215   12.2862   22.7549 N   0  0  0  0  0  0  0  0  0  0  0  0
   10.6497   14.0914   24.2391 O   0  0  0  0  0  0  0  0  0  0  0  0
    8.3146   12.3651   24.4464 S   0  0  0  0  0  0  0  0  0  0  0  0
   11.3715   13.5695   20.5837 Cl  0  0  0  0  0  0  0  0  0  0  0  0
    8.1143    7.9454   25.3048 H   0  0  0  0  0  0  0  0  0  0  0  0
    6.5079    8.4022   24.6866 H   0  0  0  0  0  0  0  0  0  0  0  0
    7.7362    7.8095   23.5698 H   0  0  0  0  0  0  0  0  0  0  0  0
    6.7494   10.8715   26.8825 H   0  0  0  0  0  0  0  0  0  0  0  0
    5.8427   11.9234   25.7677 H   0  0  0  0  0  0  0  0  0  0  0  0
    5.6586   10.1736   25.6599 H   0  0  0  0  0  0  0  0  0  0  0  0
   12.9029   13.7075   22.3768 H   0  0  0  0  0  0  0  0  0  0  0  0
   11.8737   15.1539   22.2676 H   0  0  0  0  0  0  0  0  0  0  0  0
   10.6333   11.9367   21.8377 H   0  0  0  0  0  0  0  0  0  0  0  0
  1  2  1  0  0  0  0
  1 10  3  0  0  0  0
  2  3  1  0  0  0  0
  2  5  2  0  0  0  0
  3  4  2  0  0  0  0
  3  7  1  0  0  0  0
  4  8  1  0  0  0  0
  4 13  1  0  0  0  0
  5 11  1  0  0  0  0
  5 13  1  0  0  0  0
  6  9  1  0  0  0  0
  6 11  1  0  0  0  0
  6 12  2  0  0  0  0
  9 14  1  0  0  0  0
  7 15  1  0  0  0  0
  7 16  1  0  0  0  0
  7 17  1  0  0  0  0
  8 18  1  0  0  0  0
  8 19  1  0  0  0  0
  8 20  1  0  0  0  0
  9 21  1  0  0  0  0
  9 22  1  0  0  0  0
 11 23  1  0  0  0  0
M  END
> <Catalog ID>
Z56887746

> <MW>
228.012

> <MW (desalted)>
228.699

> <ClogP>
1.933

> <logS>
-3.43

> <HBD>
1

> <HBA>
2

> <TPSA>
52.89

> <RotBonds>
2

> <ROCS_ShapeQuery>
A71EV2A-x0451_0A_A71EV2A-x0310_0A_A71EV2A-x0416_0A_peptide

> <ROCS_TanimotoCombo>
0.416 

> <ROCS_ShapeTanimoto>
0.277 

> <ROCS_ColorTanimoto>
0.139 

> <ROCS_RefTversky>
0.246 

> <ROCS_RefColorTversky>
0.144 

> <ROCS_RefTverskyCombo>
0.390 

> <ROCS_FitTversky>
1.862 

> <ROCS_FitColorTversky>
0.810 

> <ROCS_FitTverskyCombo>
2.672 

> <ROCS_ColorScore>
-4.365

> <ROCS_Overlap>
1700.960

> <ROCS_Rank>
381                 

$$$$
untitled-dbase-154_22
  -OEChem-11112315393D

 27 28  0     0  0  0  0  0  0999 V2000
    8.1423   13.5339   24.5962 C   0  0  0  0  0  0  0  0  0  0  0  0
    8.3256   12.1424   24.3174 C   0  0  0  0  0  0  0  0  0  0  0  0
    7.5106   11.0888   24.8297 C   0  0  0  0  0  0  0  0  0  0  0  0
    7.9339    9.8562   24.3696 C   0  0  0  0  0  0  0  0  0  0  0  0
    9.3309   11.6716   23.5003 C   0  0  0  0  0  0  0  0  0  0  0  0
   10.9446   13.5291   23.1710 C   0  0  0  0  0  0  0  0  0  0  0  0
    6.3226   11.2382   25.7288 C   0  0  0  0  0  0  0  0  0  0  0  0
    7.3155    8.5432   24.7354 C   0  0  0  0  0  0  0  0  0  0  0  0
    5.9284    9.9027   26.3790 C   0  0  0  0  0  0  0  0  0  0  0  0
    5.9264    8.7554   25.3582 C   0  0  0  0  0  0  0  0  0  0  0  0
   11.9980   13.9574   22.1759 C   0  0  0  0  0  0  0  0  0  0  0  0
    7.9936   14.6624   24.8224 N   0  0  0  0  0  0  0  0  0  0  0  0
   10.3203   12.3219   22.8124 N   0  0  0  0  0  0  0  0  0  0  0  0
   10.7031   14.2261   24.1528 O   0  0  0  0  0  0  0  0  0  0  0  0
    9.2924    9.9662   23.3496 S   0  0  0  0  0  0  0  0  0  0  0  0
   12.0728   15.7265   22.1963 Cl  0  0  0  0  0  0  0  0  0  0  0  0
    6.5231   11.9742   26.5155 H   0  0  0  0  0  0  0  0  0  0  0  0
    5.4800   11.6132   25.1345 H   0  0  0  0  0  0  0  0  0  0  0  0
    7.2254    7.8914   23.8592 H   0  0  0  0  0  0  0  0  0  0  0  0
    7.9635    8.0367   25.4609 H   0  0  0  0  0  0  0  0  0  0  0  0
    6.6340    9.6638   27.1850 H   0  0  0  0  0  0  0  0  0  0  0  0
    4.9382    9.9977   26.8382 H   0  0  0  0  0  0  0  0  0  0  0  0
    5.2006    8.9830   24.5667 H   0  0  0  0  0  0  0  0  0  0  0  0
    5.5957    7.8274   25.8381 H   0  0  0  0  0  0  0  0  0  0  0  0
   11.7787   13.6253   21.1580 H   0  0  0  0  0  0  0  0  0  0  0  0
   12.9691   13.5549   22.4776 H   0  0  0  0  0  0  0  0  0  0  0  0
   10.6411   11.8795   21.9395 H   0  0  0  0  0  0  0  0  0  0  0  0
  1  2  1  0  0  0  0
  1 12  3  0  0  0  0
  2  3  1  0  0  0  0
  2  5  2  0  0  0  0
  3  4  2  0  0  0  0
  3  7  1  0  0  0  0
  4  8  1  0  0  0  0
  4 15  1  0  0  0  0
  5 13  1  0  0  0  0
  5 15  1  0  0  0  0
  6 11  1  0  0  0  0
  6 13  1  0  0  0  0
  6 14  2  0  0  0  0
  7  9  1  0  0  0  0
  8 10  1  0  0  0  0
  9 10  1  0  0  0  0
 11 16  1  0  0  0  0
  7 17  1  0  0  0  0
  7 18  1  0  0  0  0
  8 19  1  0  0  0  0
  8 20  1  0  0  0  0
  9 21  1  0  0  0  0
  9 22  1  0  0  0  0
 10 23  1  0  0  0  0
 10 24  1  0  0  0  0
 11 25  1  0  0  0  0
 11 26  1  0  0  0  0
 13 27  1  0  0  0  0
M  END
> <Catalog ID>
Z56844954

> <MW>
254.028

> <MW (desalted)>
254.736

> <ClogP>
2.417

> <logS>
-4.1

> <HBD>
1

> <HBA>
2

> <TPSA>
52.89

> <RotBonds>
2

> <ROCS_ShapeQuery>
A71EV2A-x0451_0A_A71EV2A-x0310_0A_A71EV2A-x0416_0A_peptide

> <ROCS_TanimotoCombo>
0.416 

> <ROCS_ShapeTanimoto>
0.282 

> <ROCS_ColorTanimoto>
0.134 

> <ROCS_RefTversky>
0.252 

> <ROCS_RefColorTversky>
0.143 

> <ROCS_RefTverskyCombo>
0.395 

> <ROCS_FitTversky>
1.737 

> <ROCS_FitColorTversky>
0.685 

> <ROCS_FitTverskyCombo>
2.422 

> <ROCS_ColorScore>
-4.348

> <ROCS_Overlap>
1745.620

> <ROCS_Rank>
382                 

$$$$
untitled-dbase-557_17
  -OEChem-11112315393D

 24 24  0     0  0  0  0  0  0999 V2000
    8.7752   11.8009   24.8267 C   0  0  0  0  0  0  0  0  0  0  0  0
    7.9506   10.6852   25.0522 C   0  0  0  0  0  0  0  0  0  0  0  0
    9.3614   11.5336   23.6179 C   0  0  0  0  0  0  0  0  0  0  0  0
   10.8364   13.4782   23.1641 C   0  0  0  0  0  0  0  0  0  0  0  0
    5.8612    9.5335   25.8654 C   0  0  0  0  0  0  0  0  0  0  0  0
    6.5717   11.7252   26.8883 C   0  0  0  0  0  0  0  0  0  0  0  0
   11.7924   13.9554   22.0956 C   0  0  0  0  0  0  0  0  0  0  0  0
    7.0491   10.4214   26.2439 C   0  0  0  0  0  0  0  0  0  0  0  0
    8.0200    9.7941   24.0593 N   0  0  0  0  0  0  0  0  0  0  0  0
   10.2593   12.2307   22.8604 N   0  0  0  0  0  0  0  0  0  0  0  0
   10.6216   14.1714   24.1547 O   0  0  0  0  0  0  0  0  0  0  0  0
    8.9187   10.3387   23.1498 O   0  0  0  0  0  0  0  0  0  0  0  0
   10.8643   14.9092   20.9275 Cl  0  0  0  0  0  0  0  0  0  0  0  0
    8.9220   12.6708   25.4502 H   0  0  0  0  0  0  0  0  0  0  0  0
    5.2262   10.0004   25.1046 H   0  0  0  0  0  0  0  0  0  0  0  0
    5.2360    9.3328   26.7423 H   0  0  0  0  0  0  0  0  0  0  0  0
    6.2028    8.5704   25.4697 H   0  0  0  0  0  0  0  0  0  0  0  0
    5.9850   12.3203   26.1795 H   0  0  0  0  0  0  0  0  0  0  0  0
    7.4261   12.3315   27.2082 H   0  0  0  0  0  0  0  0  0  0  0  0
    5.9462   11.5423   27.7689 H   0  0  0  0  0  0  0  0  0  0  0  0
   12.2834   13.1332   21.5689 H   0  0  0  0  0  0  0  0  0  0  0  0
   12.5575   14.5916   22.5493 H   0  0  0  0  0  0  0  0  0  0  0  0
    7.6260    9.8793   27.0050 H   0  0  0  0  0  0  0  0  0  0  0  0
   10.5453   11.7961   21.9699 H   0  0  0  0  0  0  0  0  0  0  0  0
  1  2  1  0  0  0  0
  1  3  2  0  0  0  0
  2  8  1  0  0  0  0
  2  9  2  0  0  0  0
  3 10  1  0  0  0  0
  3 12  1  0  0  0  0
  4  7  1  0  0  0  0
  4 10  1  0  0  0  0
  4 11  2  0  0  0  0
  5  8  1  0  0  0  0
  6  8  1  0  0  0  0
  7 13  1  0  0  0  0
  9 12  1  0  0  0  0
  1 14  1  0  0  0  0
  5 15  1  0  0  0  0
  5 16  1  0  0  0  0
  5 17  1  0  0  0  0
  6 18  1  0  0  0  0
  6 19  1  0  0  0  0
  6 20  1  0  0  0  0
  7 21  1  0  0  0  0
  7 22  1  0  0  0  0
  8 23  1  0  0  0  0
 10 24  1  0  0  0  0
M  END
> <Catalog ID>
Z56987689

> <MW>
202.051

> <MW (desalted)>
202.638

> <ClogP>
1.755

> <logS>
-2.18

> <HBD>
1

> <HBA>
2

> <TPSA>
55.13

> <RotBonds>
3

> <ROCS_ShapeQuery>
A71EV2A-x0451_0A_A71EV2A-x0310_0A_A71EV2A-x0416_0A_peptide

> <ROCS_TanimotoCombo>
0.416 

> <ROCS_ShapeTanimoto>
0.250 

> <ROCS_ColorTanimoto>
0.166 

> <ROCS_RefTversky>
0.226 

> <ROCS_RefColorTversky>
0.172 

> <ROCS_RefTverskyCombo>
0.398 

> <ROCS_FitTversky>
1.765 

> <ROCS_FitColorTversky>
0.826 

> <ROCS_FitTverskyCombo>
2.591 

> <ROCS_ColorScore>
-5.231

> <ROCS_Overlap>
1561.398

> <ROCS_Rank>
383                 

$$$$
untitled-dbase-543_13
  -OEChem-11112315393D

 25 26  0     0  0  0  0  0  0999 V2000
    8.3083    9.5139   24.0295 C   0  0  0  0  0  0  0  0  0  0  0  0
    7.4043   10.1991   24.8413 C   0  0  0  0  0  0  0  0  0  0  0  0
    8.4662   12.2897   24.2591 C   0  0  0  0  0  0  0  0  0  0  0  0
   11.4815    9.0457   21.0028 C   0  0  0  0  0  0  0  0  0  0  0  0
   10.6111    8.2369   22.7190 C   0  0  0  0  0  0  0  0  0  0  0  0
    9.2913   10.2166   23.3326 C   0  0  0  0  0  0  0  0  0  0  0  0
    9.3702   11.6045   23.4474 C   0  0  0  0  0  0  0  0  0  0  0  0
    7.4832   11.5870   24.9560 C   0  0  0  0  0  0  0  0  0  0  0  0
   10.9164   13.5282   23.1803 C   0  0  0  0  0  0  0  0  0  0  0  0
   11.9368   14.0380   22.1891 C   0  0  0  0  0  0  0  0  0  0  0  0
   11.4452    7.9096   21.7595 N   0  0  0  0  0  0  0  0  0  0  0  0
   10.7223   10.0553   21.4337 N   0  0  0  0  0  0  0  0  0  0  0  0
   10.1764    9.5121   22.5324 N   0  0  0  0  0  0  0  0  0  0  0  0
   10.3456   12.3345   22.7604 N   0  0  0  0  0  0  0  0  0  0  0  0
   10.6705   14.1696   24.1983 O   0  0  0  0  0  0  0  0  0  0  0  0
    6.3669   12.4328   25.9564 Cl  0  0  0  0  0  0  0  0  0  0  0  0
   13.1624   14.9421   23.0925 Cl  0  0  0  0  0  0  0  0  0  0  0  0
    8.2345    8.4319   23.9507 H   0  0  0  0  0  0  0  0  0  0  0  0
    6.6449    9.6384   25.3803 H   0  0  0  0  0  0  0  0  0  0  0  0
    8.5296   13.3724   24.3478 H   0  0  0  0  0  0  0  0  0  0  0  0
   12.0786    9.1402   20.1081 H   0  0  0  0  0  0  0  0  0  0  0  0
   10.2991    7.6066   23.5407 H   0  0  0  0  0  0  0  0  0  0  0  0
   11.5005   14.6946   21.4322 H   0  0  0  0  0  0  0  0  0  0  0  0
   12.4139   13.1903   21.6892 H   0  0  0  0  0  0  0  0  0  0  0  0
   10.6658   11.9564   21.8725 H   0  0  0  0  0  0  0  0  0  0  0  0
  1  2  2  0  0  0  0
  1  6  1  0  0  0  0
  2  8  1  0  0  0  0
  3  7  1  0  0  0  0
  3  8  2  0  0  0  0
  4 11  1  0  0  0  0
  4 12  2  0  0  0  0
  5 11  2  0  0  0  0
  5 13  1  0  0  0  0
  6  7  2  0  0  0  0
  6 13  1  0  0  0  0
  7 14  1  0  0  0  0
  8 16  1  0  0  0  0
  9 10  1  0  0  0  0
  9 14  1  0  0  0  0
  9 15  2  0  0  0  0
 10 17  1  0  0  0  0
 12 13  1  0  0  0  0
  1 18  1  0  0  0  0
  2 19  1  0  0  0  0
  3 20  1  0  0  0  0
  4 21  1  0  0  0  0
  5 22  1  0  0  0  0
 10 23  1  0  0  0  0
 10 24  1  0  0  0  0
 14 25  1  0  0  0  0
M  END
> <Catalog ID>
Z57040453

> <MW>
270.008

> <MW (desalted)>
271.103

> <ClogP>
1.932

> <logS>
-3.48

> <HBD>
1

> <HBA>
3

> <TPSA>
59.81

> <RotBonds>
3

> <ROCS_ShapeQuery>
A71EV2A-x0451_0A_A71EV2A-x0310_0A_A71EV2A-x0416_0A_peptide

> <ROCS_TanimotoCombo>
0.416 

> <ROCS_ShapeTanimoto>
0.289 

> <ROCS_ColorTanimoto>
0.127 

> <ROCS_RefTversky>
0.259 

> <ROCS_RefColorTversky>
0.140 

> <ROCS_RefTverskyCombo>
0.399 

> <ROCS_FitTversky>
1.650 

> <ROCS_FitColorTversky>
0.584 

> <ROCS_FitTverskyCombo>
2.235 

> <ROCS_ColorScore>
-4.264

> <ROCS_Overlap>
1796.986

> <ROCS_Rank>
384                 

$$$$
untitled-dbase-893_1091
  -OEChem-11112315393D

 25 25  0     0  0  0  0  0  0999 V2000
    6.3104   11.3777   25.6428 C   0  0  0  0  0  0  0  0  0  0  0  0
    7.0124   10.1724   25.6523 C   0  0  0  0  0  0  0  0  0  0  0  0
    6.8819   12.5132   25.0686 C   0  0  0  0  0  0  0  0  0  0  0  0
    8.2859   10.1026   25.0876 C   0  0  0  0  0  0  0  0  0  0  0  0
    8.1554   12.4434   24.5039 C   0  0  0  0  0  0  0  0  0  0  0  0
    8.8575   11.2381   24.5134 C   0  0  0  0  0  0  0  0  0  0  0  0
   11.9961   15.2038   22.1144 C   0  0  0  0  0  0  0  0  0  0  0  0
   10.7511   13.3608   23.1835 C   0  0  0  0  0  0  0  0  0  0  0  0
   10.2275   11.1638   23.9060 C   0  0  0  0  0  0  0  0  0  0  0  0
   12.6737   15.5403   20.8101 C   0  0  0  0  0  0  0  0  0  0  0  0
   11.4210   13.9347   22.1118 N   0  0  0  0  0  0  0  0  0  0  0  0
   11.9897   15.9871   23.0621 O   0  0  0  0  0  0  0  0  0  0  0  0
   10.5696   13.8824   24.2787 O   0  0  0  0  0  0  0  0  0  0  0  0
   10.3170   12.1124   22.8370 O   0  0  0  0  0  0  0  0  0  0  0  0
   11.4675   16.2785   19.7451 Cl  0  0  0  0  0  0  0  0  0  0  0  0
    5.3182   11.4315   26.0814 H   0  0  0  0  0  0  0  0  0  0  0  0
    6.5671    9.2879   26.0984 H   0  0  0  0  0  0  0  0  0  0  0  0
    6.3352   13.4515   25.0601 H   0  0  0  0  0  0  0  0  0  0  0  0
    8.8256    9.1593   25.0997 H   0  0  0  0  0  0  0  0  0  0  0  0
    8.5928   13.3332   24.0589 H   0  0  0  0  0  0  0  0  0  0  0  0
   10.9988   11.3904   24.6500 H   0  0  0  0  0  0  0  0  0  0  0  0
   10.4235   10.1603   23.5131 H   0  0  0  0  0  0  0  0  0  0  0  0
   13.0464   14.6224   20.3473 H   0  0  0  0  0  0  0  0  0  0  0  0
   13.5049   16.2384   20.9353 H   0  0  0  0  0  0  0  0  0  0  0  0
   11.4870   13.3716   21.2683 H   0  0  0  0  0  0  0  0  0  0  0  0
  1  2  1  0  0  0  0
  1  3  2  0  0  0  0
  2  4  2  0  0  0  0
  3  5  1  0  0  0  0
  4  6  1  0  0  0  0
  5  6  2  0  0  0  0
  6  9  1  0  0  0  0
  7 10  1  0  0  0  0
  7 11  1  0  0  0  0
  7 12  2  0  0  0  0
  8 11  1  0  0  0  0
  8 13  2  0  0  0  0
  8 14  1  0  0  0  0
  9 14  1  0  0  0  0
 10 15  1  0  0  0  0
  1 16  1  0  0  0  0
  2 17  1  0  0  0  0
  3 18  1  0  0  0  0
  4 19  1  0  0  0  0
  5 20  1  0  0  0  0
  9 21  1  0  0  0  0
  9 22  1  0  0  0  0
 10 23  1  0  0  0  0
 10 24  1  0  0  0  0
 11 25  1  0  0  0  0
M  END
> <Catalog ID>
Z107334158

> <MW>
227.035

> <MW (desalted)>
227.644

> <ClogP>
2.268

> <logS>
-2.55

> <HBD>
1

> <HBA>
2

> <TPSA>
55.4

> <RotBonds>
4

> <ROCS_ShapeQuery>
A71EV2A-x0451_0A_A71EV2A-x0310_0A_A71EV2A-x0416_0A_peptide

> <ROCS_TanimotoCombo>
0.416 

> <ROCS_ShapeTanimoto>
0.267 

> <ROCS_ColorTanimoto>
0.149 

> <ROCS_RefTversky>
0.240 

> <ROCS_RefColorTversky>
0.153 

> <ROCS_RefTverskyCombo>
0.393 

> <ROCS_FitTversky>
1.712 

> <ROCS_FitColorTversky>
0.862 

> <ROCS_FitTverskyCombo>
2.574 

> <ROCS_ColorScore>
-4.643

> <ROCS_Overlap>
1662.320

> <ROCS_Rank>
385                 

$$$$
untitled-dbase-292_1028
  -OEChem-11112315393D

 34 35  0     0  0  0  0  0  0999 V2000
    8.6863    9.7556   23.4123 C   0  0  0  0  0  0  0  0  0  0  0  0
    7.6698   10.0324   24.3265 C   0  0  0  0  0  0  0  0  0  0  0  0
    9.6346   10.7319   23.1070 C   0  0  0  0  0  0  0  0  0  0  0  0
    8.5499   12.2619   24.6299 C   0  0  0  0  0  0  0  0  0  0  0  0
    7.6015   11.2856   24.9352 C   0  0  0  0  0  0  0  0  0  0  0  0
    9.5664   11.9850   23.7158 C   0  0  0  0  0  0  0  0  0  0  0  0
   15.4705   12.1844   26.5954 C   0  0  0  0  0  0  0  0  0  0  0  0
   13.1782   11.4392   26.0336 C   0  0  0  0  0  0  0  0  0  0  0  0
   14.5981   12.2895   24.2080 C   0  0  0  0  0  0  0  0  0  0  0  0
   12.0288   12.3210   25.5587 C   0  0  0  0  0  0  0  0  0  0  0  0
   13.4516   13.1725   23.7246 C   0  0  0  0  0  0  0  0  0  0  0  0
   15.4874   11.2077   27.7440 C   0  0  0  0  0  0  0  0  0  0  0  0
   14.4683   12.0093   25.6427 N   0  0  0  0  0  0  0  0  0  0  0  0
   12.1475   12.5382   24.0852 N   0  0  0  0  0  0  0  0  0  0  0  0
   16.3244   13.0734   26.5465 O   0  0  0  0  0  0  0  0  0  0  0  0
   10.9639   13.2158   21.8977 O   0  0  0  0  0  0  0  0  0  0  0  0
   10.4017   14.4319   24.0314 O   0  0  0  0  0  0  0  0  0  0  0  0
    6.6251   11.5512   25.8129 F   0  0  0  0  0  0  0  0  0  0  0  0
   10.7680   13.2197   23.3313 S   0  0  0  0  0  0  0  0  0  0  0  0
   14.5072   11.9164   29.0225 Cl  0  0  0  0  0  0  0  0  0  0  0  0
    8.7388    8.7798   22.9384 H   0  0  0  0  0  0  0  0  0  0  0  0
    6.9312    9.2724   24.5642 H   0  0  0  0  0  0  0  0  0  0  0  0
   10.4229   10.5052   22.3939 H   0  0  0  0  0  0  0  0  0  0  0  0
    8.4863   13.2347   25.1102 H   0  0  0  0  0  0  0  0  0  0  0  0
   13.1793   11.3714   27.1294 H   0  0  0  0  0  0  0  0  0  0  0  0
   13.0416   10.4263   25.6476 H   0  0  0  0  0  0  0  0  0  0  0  0
   14.6233   11.3619   23.6301 H   0  0  0  0  0  0  0  0  0  0  0  0
   15.5593   12.7963   24.0670 H   0  0  0  0  0  0  0  0  0  0  0  0
   11.0627   11.8585   25.7897 H   0  0  0  0  0  0  0  0  0  0  0  0
   12.0846   13.2867   26.0718 H   0  0  0  0  0  0  0  0  0  0  0  0
   13.5257   14.1509   24.2122 H   0  0  0  0  0  0  0  0  0  0  0  0
   13.5057   13.3205   22.6394 H   0  0  0  0  0  0  0  0  0  0  0  0
   16.5091   11.0828   28.0842 H   0  0  0  0  0  0  0  0  0  0  0  0
   15.0508   10.2714   27.4156 H   0  0  0  0  0  0  0  0  0  0  0  0
  1  2  2  0  0  0  0
  1  3  1  0  0  0  0
  2  5  1  0  0  0  0
  3  6  2  0  0  0  0
  4  5  2  0  0  0  0
  4  6  1  0  0  0  0
  5 18  1  0  0  0  0
  6 19  1  0  0  0  0
  7 12  1  0  0  0  0
  7 13  1  0  0  0  0
  7 15  2  0  0  0  0
  8 10  1  0  0  0  0
  8 13  1  0  0  0  0
  9 11  1  0  0  0  0
  9 13  1  0  0  0  0
 10 14  1  0  0  0  0
 11 14  1  0  0  0  0
 12 20  1  0  0  0  0
 14 19  1  0  0  0  0
 16 19  2  0  0  0  0
 17 19  2  0  0  0  0
  1 21  1  0  0  0  0
  2 22  1  0  0  0  0
  3 23  1  0  0  0  0
  4 24  1  0  0  0  0
  8 25  1  0  0  0  0
  8 26  1  0  0  0  0
  9 27  1  0  0  0  0
  9 28  1  0  0  0  0
 10 29  1  0  0  0  0
 10 30  1  0  0  0  0
 11 31  1  0  0  0  0
 11 32  1  0  0  0  0
 12 33  1  0  0  0  0
 12 34  1  0  0  0  0
M  END
> <Catalog ID>
Z147647642

> <MW>
320.04

> <MW (desalted)>
320.768

> <ClogP>
1.62

> <logS>
-3.06

> <HBD>
0

> <HBA>
3

> <TPSA>
57.69

> <RotBonds>
2

> <ROCS_ShapeQuery>
A71EV2A-x0451_0A_A71EV2A-x0310_0A_A71EV2A-x0416_0A_peptide

> <ROCS_TanimotoCombo>
0.416 

> <ROCS_ShapeTanimoto>
0.293 

> <ROCS_ColorTanimoto>
0.123 

> <ROCS_RefTversky>
0.265 

> <ROCS_RefColorTversky>
0.133 

> <ROCS_RefTverskyCombo>
0.397 

> <ROCS_FitTversky>
1.566 

> <ROCS_FitColorTversky>
0.636 

> <ROCS_FitTverskyCombo>
2.202 

> <ROCS_ColorScore>
-4.030

> <ROCS_Overlap>
1836.526

> <ROCS_Rank>
386                 

$$$$
untitled-dbase-208_2
  -OEChem-11112315393D

 24 24  0     0  0  0  0  0  0999 V2000
    8.4810   12.2895   24.2381 C   0  0  0  0  0  0  0  0  0  0  0  0
    7.5007   11.5723   24.9238 C   0  0  0  0  0  0  0  0  0  0  0  0
    8.3517    9.5140   23.9877 C   0  0  0  0  0  0  0  0  0  0  0  0
    9.3320   10.2312   23.3019 C   0  0  0  0  0  0  0  0  0  0  0  0
    9.3966   11.6189   23.4270 C   0  0  0  0  0  0  0  0  0  0  0  0
    7.4361   10.1846   24.7987 C   0  0  0  0  0  0  0  0  0  0  0  0
   10.9349   13.5508   23.1741 C   0  0  0  0  0  0  0  0  0  0  0  0
   10.2996    9.4872   22.4397 C   0  0  0  0  0  0  0  0  0  0  0  0
   11.9583   14.0685   22.1901 C   0  0  0  0  0  0  0  0  0  0  0  0
   10.3711   12.3549   22.7483 N   0  0  0  0  0  0  0  0  0  0  0  0
    6.4378    9.4550   25.4968 N   0  3  0  0  0  0  0  0  0  0  0  0
    5.6238   10.0779   26.2208 O   0  5  0  0  0  0  0  0  0  0  0  0
   10.6805   14.1879   24.1927 O   0  0  0  0  0  0  0  0  0  0  0  0
    6.3970    8.2071   25.3711 O   0  0  0  0  0  0  0  0  0  0  0  0
   11.4206   15.6636   21.6407 Cl  0  0  0  0  0  0  0  0  0  0  0  0
    8.5214   13.3708   24.3434 H   0  0  0  0  0  0  0  0  0  0  0  0
    6.7936   12.1073   25.5530 H   0  0  0  0  0  0  0  0  0  0  0  0
    8.3034    8.4316   23.8879 H   0  0  0  0  0  0  0  0  0  0  0  0
    9.9092    9.4008   21.4194 H   0  0  0  0  0  0  0  0  0  0  0  0
   11.2693    9.9979   22.4018 H   0  0  0  0  0  0  0  0  0  0  0  0
   10.4838    8.4793   22.8309 H   0  0  0  0  0  0  0  0  0  0  0  0
   12.0766   13.4172   21.3204 H   0  0  0  0  0  0  0  0  0  0  0  0
   12.9256   14.1698   22.6901 H   0  0  0  0  0  0  0  0  0  0  0  0
   10.6978   11.9804   21.8605 H   0  0  0  0  0  0  0  0  0  0  0  0
  1  2  2  0  0  0  0
  1  5  1  0  0  0  0
  2  6  1  0  0  0  0
  3  4  1  0  0  0  0
  3  6  2  0  0  0  0
  4  5  2  0  0  0  0
  4  8  1  0  0  0  0
  5 10  1  0  0  0  0
  6 11  1  0  0  0  0
  7  9  1  0  0  0  0
  7 10  1  0  0  0  0
  7 13  2  0  0  0  0
  9 15  1  0  0  0  0
 11 12  1  0  0  0  0
 11 14  2  0  0  0  0
  1 16  1  0  0  0  0
  2 17  1  0  0  0  0
  3 18  1  0  0  0  0
  8 19  1  0  0  0  0
  8 20  1  0  0  0  0
  8 21  1  0  0  0  0
  9 22  1  0  0  0  0
  9 23  1  0  0  0  0
 10 24  1  0  0  0  0
M  CHG  2  11   1  12  -1
M  END
> <Catalog ID>
Z56346811

> <MW>
228.03

> <MW (desalted)>
228.632

> <ClogP>
1.918

> <logS>
-3.18

> <HBD>
1

> <HBA>
3

> <TPSA>
72.24

> <RotBonds>
3

> <ROCS_ShapeQuery>
A71EV2A-x0451_0A_A71EV2A-x0310_0A_A71EV2A-x0416_0A_peptide

> <ROCS_TanimotoCombo>
0.416 

> <ROCS_ShapeTanimoto>
0.284 

> <ROCS_ColorTanimoto>
0.132 

> <ROCS_RefTversky>
0.253 

> <ROCS_RefColorTversky>
0.141 

> <ROCS_RefTverskyCombo>
0.393 

> <ROCS_FitTversky>
1.782 

> <ROCS_FitColorTversky>
0.673 

> <ROCS_FitTverskyCombo>
2.455 

> <ROCS_ColorScore>
-4.275

> <ROCS_Overlap>
1750.357

> <ROCS_Rank>
387                 

$$$$
untitled-dbase-320_33
  -OEChem-11112315393D

 34 35  0     0  0  0  0  0  0999 V2000
    7.3985   10.1991   24.8392 C   0  0  0  0  0  0  0  0  0  0  0  0
    7.4781   11.5866   24.9574 C   0  0  0  0  0  0  0  0  0  0  0  0
    8.3033    9.5152   24.0271 C   0  0  0  0  0  0  0  0  0  0  0  0
    8.4624   12.2904   24.2634 C   0  0  0  0  0  0  0  0  0  0  0  0
    9.2876   10.2190   23.3332 C   0  0  0  0  0  0  0  0  0  0  0  0
    9.3672   11.6066   23.4513 C   0  0  0  0  0  0  0  0  0  0  0  0
   10.9192   13.5255   23.1838 C   0  0  0  0  0  0  0  0  0  0  0  0
   11.6031    7.0267   22.6720 C   0  0  0  0  0  0  0  0  0  0  0  0
   12.0583    8.2570   23.4602 C   0  0  0  0  0  0  0  0  0  0  0  0
   10.1048    7.0819   22.3649 C   0  0  0  0  0  0  0  0  0  0  0  0
   11.6265    9.5448   22.7590 C   0  0  0  0  0  0  0  0  0  0  0  0
    9.7174    8.4028   21.6931 C   0  0  0  0  0  0  0  0  0  0  0  0
   11.9417   14.0316   22.1929 C   0  0  0  0  0  0  0  0  0  0  0  0
   10.1793    9.5167   22.5293 N   0  0  0  0  0  0  0  0  0  0  0  0
   10.3445   12.3328   22.7648 N   0  0  0  0  0  0  0  0  0  0  0  0
   10.6747   14.1682   24.2013 O   0  0  0  0  0  0  0  0  0  0  0  0
   11.1023   15.0790   21.0381 Cl  0  0  0  0  0  0  0  0  0  0  0  0
    6.6323    9.6511   25.3798 H   0  0  0  0  0  0  0  0  0  0  0  0
    6.7734   12.1182   25.5901 H   0  0  0  0  0  0  0  0  0  0  0  0
    8.2306    8.4338   23.9436 H   0  0  0  0  0  0  0  0  0  0  0  0
    8.5144   13.3717   24.3631 H   0  0  0  0  0  0  0  0  0  0  0  0
   12.1711    6.9599   21.7315 H   0  0  0  0  0  0  0  0  0  0  0  0
   11.8313    6.1152   23.2430 H   0  0  0  0  0  0  0  0  0  0  0  0
   11.6319    8.2258   24.4665 H   0  0  0  0  0  0  0  0  0  0  0  0
   13.1450    8.2418   23.5656 H   0  0  0  0  0  0  0  0  0  0  0  0
    9.8341    6.2459   21.7116 H   0  0  0  0  0  0  0  0  0  0  0  0
    9.5340    6.9614   23.2930 H   0  0  0  0  0  0  0  0  0  0  0  0
   11.8981   10.3964   23.3882 H   0  0  0  0  0  0  0  0  0  0  0  0
   12.1533    9.6423   21.8056 H   0  0  0  0  0  0  0  0  0  0  0  0
   10.1721    8.4627   20.7036 H   0  0  0  0  0  0  0  0  0  0  0  0
    8.6332    8.4329   21.5798 H   0  0  0  0  0  0  0  0  0  0  0  0
   12.4347   13.2251   21.6442 H   0  0  0  0  0  0  0  0  0  0  0  0
   12.7010   14.6164   22.7198 H   0  0  0  0  0  0  0  0  0  0  0  0
   10.6640   11.9529   21.8770 H   0  0  0  0  0  0  0  0  0  0  0  0
  1  2  1  0  0  0  0
  1  3  2  0  0  0  0
  2  4  2  0  0  0  0
  3  5  1  0  0  0  0
  4  6  1  0  0  0  0
  5  6  2  0  0  0  0
  5 14  1  0  0  0  0
  6 15  1  0  0  0  0
  7 13  1  0  0  0  0
  7 15  1  0  0  0  0
  7 16  2  0  0  0  0
  8  9  1  0  0  0  0
  8 10  1  0  0  0  0
  9 11  1  0  0  0  0
 10 12  1  0  0  0  0
 11 14  1  0  0  0  0
 12 14  1  0  0  0  0
 13 17  1  0  0  0  0
  1 18  1  0  0  0  0
  2 19  1  0  0  0  0
  3 20  1  0  0  0  0
  4 21  1  0  0  0  0
  8 22  1  0  0  0  0
  8 23  1  0  0  0  0
  9 24  1  0  0  0  0
  9 25  1  0  0  0  0
 10 26  1  0  0  0  0
 10 27  1  0  0  0  0
 11 28  1  0  0  0  0
 11 29  1  0  0  0  0
 12 30  1  0  0  0  0
 12 31  1  0  0  0  0
 13 32  1  0  0  0  0
 13 33  1  0  0  0  0
 15 34  1  0  0  0  0
M  END
> <Catalog ID>
Z7106533855

> <MW>
289.201

> <MW (desalted)>
252.74

> <ClogP>
2.612

> <logS>
-3.615

> <HBD>
1

> <HBA>
2

> <TPSA>
32.34

> <RotBonds>
3

> <ROCS_ShapeQuery>
A71EV2A-x0451_0A_A71EV2A-x0310_0A_A71EV2A-x0416_0A_peptide

> <ROCS_TanimotoCombo>
0.416 

> <ROCS_ShapeTanimoto>
0.280 

> <ROCS_ColorTanimoto>
0.136 

> <ROCS_RefTversky>
0.252 

> <ROCS_RefColorTversky>
0.141 

> <ROCS_RefTverskyCombo>
0.393 

> <ROCS_FitTversky>
1.648 

> <ROCS_FitColorTversky>
0.791 

> <ROCS_FitTverskyCombo>
2.439 

> <ROCS_ColorScore>
-4.262

> <ROCS_Overlap>
1749.405

> <ROCS_Rank>
388                 

$$$$
untitled-dbase-131_153
  -OEChem-11112315393D

 22 22  0     0  0  0  0  0  0999 V2000
    8.4658   12.2882   24.2581 C   0  0  0  0  0  0  0  0  0  0  0  0
    7.4835   11.5814   24.9517 C   0  0  0  0  0  0  0  0  0  0  0  0
    8.3177    9.5122   24.0243 C   0  0  0  0  0  0  0  0  0  0  0  0
    9.3000   10.2191   23.3307 C   0  0  0  0  0  0  0  0  0  0  0  0
    9.3740   11.6071   23.4476 C   0  0  0  0  0  0  0  0  0  0  0  0
    7.4094   10.1934   24.8348 C   0  0  0  0  0  0  0  0  0  0  0  0
   10.2347    9.4776   22.4933 C   0  0  0  0  0  0  0  0  0  0  0  0
   10.9209   13.5305   23.1823 C   0  0  0  0  0  0  0  0  0  0  0  0
   11.9436   14.0393   22.1929 C   0  0  0  0  0  0  0  0  0  0  0  0
   10.3503   12.3360   22.7626 N   0  0  0  0  0  0  0  0  0  0  0  0
    9.9854    8.4184   21.9124 O   0  0  0  0  0  0  0  0  0  0  0  0
   10.6729   14.1727   24.1992 O   0  0  0  0  0  0  0  0  0  0  0  0
   11.4483   10.0855   22.4094 O   0  0  0  0  0  0  0  0  0  0  0  0
    6.1970    9.3230   25.6917 Cl  0  0  0  0  0  0  0  0  0  0  0  0
   11.1030   15.0841   21.0364 Cl  0  0  0  0  0  0  0  0  0  0  0  0
    8.5135   13.3697   24.3572 H   0  0  0  0  0  0  0  0  0  0  0  0
    6.7831   12.1261   25.5796 H   0  0  0  0  0  0  0  0  0  0  0  0
    8.2618    8.4295   23.9317 H   0  0  0  0  0  0  0  0  0  0  0  0
   12.4398   13.2342   21.6451 H   0  0  0  0  0  0  0  0  0  0  0  0
   12.7003   14.6264   22.7209 H   0  0  0  0  0  0  0  0  0  0  0  0
   10.6723   11.9567   21.8754 H   0  0  0  0  0  0  0  0  0  0  0  0
   11.4956   10.9190   22.9246 H   0  0  0  0  0  0  0  0  0  0  0  0
  1  2  2  0  0  0  0
  1  5  1  0  0  0  0
  2  6  1  0  0  0  0
  3  4  1  0  0  0  0
  3  6  2  0  0  0  0
  4  5  2  0  0  0  0
  4  7  1  0  0  0  0
  5 10  1  0  0  0  0
  6 14  1  0  0  0  0
  7 11  2  0  0  0  0
  7 13  1  0  0  0  0
  8  9  1  0  0  0  0
  8 10  1  0  0  0  0
  8 12  2  0  0  0  0
  9 15  1  0  0  0  0
  1 16  1  0  0  0  0
  2 17  1  0  0  0  0
  3 18  1  0  0  0  0
  9 19  1  0  0  0  0
  9 20  1  0  0  0  0
 10 21  1  0  0  0  0
 13 22  1  0  0  0  0
M  END
> <Catalog ID>
Z157039506

> <MW>
246.98

> <MW (desalted)>
248.063

> <ClogP>
3.274

> <logS>
-3.07

> <HBD>
2

> <HBA>
3

> <TPSA>
66.4

> <RotBonds>
3

> <ROCS_ShapeQuery>
A71EV2A-x0451_0A_A71EV2A-x0310_0A_A71EV2A-x0416_0A_peptide

> <ROCS_TanimotoCombo>
0.416 

> <ROCS_ShapeTanimoto>
0.288 

> <ROCS_ColorTanimoto>
0.127 

> <ROCS_RefTversky>
0.255 

> <ROCS_RefColorTversky>
0.140 

> <ROCS_RefTverskyCombo>
0.395 

> <ROCS_FitTversky>
1.815 

> <ROCS_FitColorTversky>
0.584 

> <ROCS_FitTverskyCombo>
2.400 

> <ROCS_ColorScore>
-4.262

> <ROCS_Overlap>
1767.944

> <ROCS_Rank>
389                 

$$$$
untitled-dbase-668_17
  -OEChem-11112315393D

 21 21  0     0  0  0  0  0  0999 V2000
    7.5225   11.1363   24.1801 C   0  0  0  0  0  0  0  0  0  0  0  0
    8.0852    9.8831   23.9381 C   0  0  0  0  0  0  0  0  0  0  0  0
    8.2993   12.2871   24.0466 C   0  0  0  0  0  0  0  0  0  0  0  0
    9.4246    9.7808   23.5626 C   0  0  0  0  0  0  0  0  0  0  0  0
    9.6387   12.1848   23.6711 C   0  0  0  0  0  0  0  0  0  0  0  0
   10.2015   10.9317   23.4291 C   0  0  0  0  0  0  0  0  0  0  0  0
   10.4059   13.4182   23.5458 C   0  0  0  0  0  0  0  0  0  0  0  0
   11.7754   14.7796   21.9766 C   0  0  0  0  0  0  0  0  0  0  0  0
   12.2203   14.7887   20.5361 C   0  0  0  0  0  0  0  0  0  0  0  0
   10.9838   13.6757   22.2904 N   0  0  0  0  0  0  0  0  0  0  0  0
   10.5472   14.1681   24.5249 O   0  0  0  0  0  0  0  0  0  0  0  0
   12.0804   15.6838   22.7520 O   0  0  0  0  0  0  0  0  0  0  0  0
   13.8074   15.5698   20.4650 Cl  0  0  0  0  0  0  0  0  0  0  0  0
   12.0187   10.7363   22.9193 Br  0  0  0  0  0  0  0  0  0  0  0  0
    6.4797   11.2158   24.4724 H   0  0  0  0  0  0  0  0  0  0  0  0
    7.4801    8.9871   24.0420 H   0  0  0  0  0  0  0  0  0  0  0  0
    7.8481   13.2572   24.2383 H   0  0  0  0  0  0  0  0  0  0  0  0
    9.8452    8.7952   23.3782 H   0  0  0  0  0  0  0  0  0  0  0  0
   12.3106   13.7598   20.1769 H   0  0  0  0  0  0  0  0  0  0  0  0
   11.5304   15.3327   19.8858 H   0  0  0  0  0  0  0  0  0  0  0  0
   10.8181   12.9969   21.5526 H   0  0  0  0  0  0  0  0  0  0  0  0
  1  2  1  0  0  0  0
  1  3  2  0  0  0  0
  2  4  2  0  0  0  0
  3  5  1  0  0  0  0
  4  6  1  0  0  0  0
  5  6  2  0  0  0  0
  5  7  1  0  0  0  0
  6 14  1  0  0  0  0
  7 10  1  0  0  0  0
  7 11  2  0  0  0  0
  8  9  1  0  0  0  0
  8 10  1  0  0  0  0
  8 12  2  0  0  0  0
  9 13  1  0  0  0  0
  1 15  1  0  0  0  0
  2 16  1  0  0  0  0
  3 17  1  0  0  0  0
  4 18  1  0  0  0  0
  9 19  1  0  0  0  0
  9 20  1  0  0  0  0
 10 21  1  0  0  0  0
M  END
> <Catalog ID>
Z56931864

> <MW>
274.935

> <MW (desalted)>
276.514

> <ClogP>
1.429

> <logS>
-3.65

> <HBD>
1

> <HBA>
2

> <TPSA>
46.17

> <RotBonds>
2

> <ROCS_ShapeQuery>
A71EV2A-x0451_0A_A71EV2A-x0310_0A_A71EV2A-x0416_0A_peptide

> <ROCS_TanimotoCombo>
0.416 

> <ROCS_ShapeTanimoto>
0.261 

> <ROCS_ColorTanimoto>
0.155 

> <ROCS_RefTversky>
0.234 

> <ROCS_RefColorTversky>
0.162 

> <ROCS_RefTverskyCombo>
0.396 

> <ROCS_FitTversky>
1.762 

> <ROCS_FitColorTversky>
0.776 

> <ROCS_FitTverskyCombo>
2.538 

> <ROCS_ColorScore>
-4.916

> <ROCS_Overlap>
1623.793

> <ROCS_Rank>
390                 

$$$$
untitled-dbase-509_100
  -OEChem-11112315393D

 28 28  0     0  0  0  0  0  0999 V2000
    8.3653    9.4936   23.9688 C   0  0  0  0  0  0  0  0  0  0  0  0
    7.4431   10.1442   24.7884 C   0  0  0  0  0  0  0  0  0  0  0  0
    9.3369   10.2298   23.2907 C   0  0  0  0  0  0  0  0  0  0  0  0
    8.4639   12.2673   24.2517 C   0  0  0  0  0  0  0  0  0  0  0  0
    7.4923   11.5310   24.9299 C   0  0  0  0  0  0  0  0  0  0  0  0
    9.3862   11.6166   23.4322 C   0  0  0  0  0  0  0  0  0  0  0  0
   10.9252   13.5482   23.1809 C   0  0  0  0  0  0  0  0  0  0  0  0
    7.0589   13.5414   26.3874 C   0  0  0  0  0  0  0  0  0  0  0  0
    5.9942   11.3259   26.9467 C   0  0  0  0  0  0  0  0  0  0  0  0
   11.9470   14.0675   22.1962 C   0  0  0  0  0  0  0  0  0  0  0  0
    6.5061   12.2261   25.8062 C   0  0  0  0  0  0  0  0  0  0  0  0
   10.3585   12.3526   22.7543 N   0  0  0  0  0  0  0  0  0  0  0  0
   10.6730   14.1830   24.2014 O   0  0  0  0  0  0  0  0  0  0  0  0
   11.4589   13.5343   20.5797 Cl  0  0  0  0  0  0  0  0  0  0  0  0
    8.3273    8.4137   23.8590 H   0  0  0  0  0  0  0  0  0  0  0  0
    6.6896    9.5623   25.3120 H   0  0  0  0  0  0  0  0  0  0  0  0
   10.0505    9.7122   22.6545 H   0  0  0  0  0  0  0  0  0  0  0  0
    8.4998   13.3488   24.3630 H   0  0  0  0  0  0  0  0  0  0  0  0
    7.9546   13.3691   26.9940 H   0  0  0  0  0  0  0  0  0  0  0  0
    6.3191   14.0414   27.0219 H   0  0  0  0  0  0  0  0  0  0  0  0
    7.3298   14.2317   25.5806 H   0  0  0  0  0  0  0  0  0  0  0  0
    6.8266   11.0028   27.5818 H   0  0  0  0  0  0  0  0  0  0  0  0
    5.5012   10.4282   26.5580 H   0  0  0  0  0  0  0  0  0  0  0  0
    5.2734   11.8515   27.5825 H   0  0  0  0  0  0  0  0  0  0  0  0
   12.9559   13.6996   22.3994 H   0  0  0  0  0  0  0  0  0  0  0  0
   11.9570   15.1607   22.2243 H   0  0  0  0  0  0  0  0  0  0  0  0
    5.6124   12.5066   25.2168 H   0  0  0  0  0  0  0  0  0  0  0  0
   10.6833   11.9792   21.8643 H   0  0  0  0  0  0  0  0  0  0  0  0
  1  2  2  0  0  0  0
  1  3  1  0  0  0  0
  2  5  1  0  0  0  0
  3  6  2  0  0  0  0
  4  5  2  0  0  0  0
  4  6  1  0  0  0  0
  5 11  1  0  0  0  0
  6 12  1  0  0  0  0
  7 10  1  0  0  0  0
  7 12  1  0  0  0  0
  7 13  2  0  0  0  0
  8 11  1  0  0  0  0
  9 11  1  0  0  0  0
 10 14  1  0  0  0  0
  1 15  1  0  0  0  0
  2 16  1  0  0  0  0
  3 17  1  0  0  0  0
  4 18  1  0  0  0  0
  8 19  1  0  0  0  0
  8 20  1  0  0  0  0
  8 21  1  0  0  0  0
  9 22  1  0  0  0  0
  9 23  1  0  0  0  0
  9 24  1  0  0  0  0
 10 25  1  0  0  0  0
 10 26  1  0  0  0  0
 11 27  1  0  0  0  0
 12 28  1  0  0  0  0
M  END
> <Catalog ID>
Z199423622

> <MW>
211.076

> <MW (desalted)>
211.688

> <ClogP>
3.201

> <logS>
-3.65

> <HBD>
1

> <HBA>
1

> <TPSA>
29.1

> <RotBonds>
3

> <ROCS_ShapeQuery>
A71EV2A-x0451_0A_A71EV2A-x0310_0A_A71EV2A-x0416_0A_peptide

> <ROCS_TanimotoCombo>
0.416 

> <ROCS_ShapeTanimoto>
0.280 

> <ROCS_ColorTanimoto>
0.135 

> <ROCS_RefTversky>
0.248 

> <ROCS_RefColorTversky>
0.140 

> <ROCS_RefTverskyCombo>
0.388 

> <ROCS_FitTversky>
1.866 

> <ROCS_FitColorTversky>
0.790 

> <ROCS_FitTverskyCombo>
2.656 

> <ROCS_ColorScore>
-4.256

> <ROCS_Overlap>
1717.373

> <ROCS_Rank>
391                 

$$$$
untitled-dbase-4_8
  -OEChem-11112315393D

 22 22  0     0  0  0  0  0  0999 V2000
    7.4881   11.5742   24.9489 C   0  0  0  0  0  0  0  0  0  0  0  0
    8.4685   12.2842   24.2559 C   0  0  0  0  0  0  0  0  0  0  0  0
    7.4143   10.1866   24.8265 C   0  0  0  0  0  0  0  0  0  0  0  0
    9.3012   10.2192   23.3180 C   0  0  0  0  0  0  0  0  0  0  0  0
    9.3750   11.6068   23.4404 C   0  0  0  0  0  0  0  0  0  0  0  0
    8.3207    9.5092   24.0110 C   0  0  0  0  0  0  0  0  0  0  0  0
   10.9208   13.5319   23.1812 C   0  0  0  0  0  0  0  0  0  0  0  0
   10.2806    9.5033   22.4392 C   0  0  0  0  0  0  0  0  0  0  0  0
   11.9413   14.0458   22.1923 C   0  0  0  0  0  0  0  0  0  0  0  0
   10.3495   12.3391   22.7571 N   0  0  0  0  0  0  0  0  0  0  0  0
   10.6746   14.1691   24.2017 O   0  0  0  0  0  0  0  0  0  0  0  0
    8.1939    7.7914   23.8875 Cl  0  0  0  0  0  0  0  0  0  0  0  0
   11.9586   15.8130   22.3031 Cl  0  0  0  0  0  0  0  0  0  0  0  0
    6.7827   12.1018   25.5839 H   0  0  0  0  0  0  0  0  0  0  0  0
    8.5157   13.3654   24.3605 H   0  0  0  0  0  0  0  0  0  0  0  0
    6.6441    9.6488   25.3734 H   0  0  0  0  0  0  0  0  0  0  0  0
   11.1657    9.2194   23.0172 H   0  0  0  0  0  0  0  0  0  0  0  0
    9.8343    8.5998   22.0098 H   0  0  0  0  0  0  0  0  0  0  0  0
   10.5932   10.1379   21.6028 H   0  0  0  0  0  0  0  0  0  0  0  0
   11.7144   13.7591   21.1623 H   0  0  0  0  0  0  0  0  0  0  0  0
   12.9304   13.6612   22.4566 H   0  0  0  0  0  0  0  0  0  0  0  0
   10.6699   11.9641   21.8673 H   0  0  0  0  0  0  0  0  0  0  0  0
  1  2  2  0  0  0  0
  1  3  1  0  0  0  0
  2  5  1  0  0  0  0
  3  6  2  0  0  0  0
  4  5  2  0  0  0  0
  4  6  1  0  0  0  0
  4  8  1  0  0  0  0
  5 10  1  0  0  0  0
  6 12  1  0  0  0  0
  7  9  1  0  0  0  0
  7 10  1  0  0  0  0
  7 11  2  0  0  0  0
  9 13  1  0  0  0  0
  1 14  1  0  0  0  0
  2 15  1  0  0  0  0
  3 16  1  0  0  0  0
  8 17  1  0  0  0  0
  8 18  1  0  0  0  0
  8 19  1  0  0  0  0
  9 20  1  0  0  0  0
  9 21  1  0  0  0  0
 10 22  1  0  0  0  0
M  END
> <Catalog ID>
Z56896250

> <MW>
217.006

> <MW (desalted)>
218.08

> <ClogP>
2.594

> <logS>
-3.22

> <HBD>
1

> <HBA>
1

> <TPSA>
29.1

> <RotBonds>
2

> <ROCS_ShapeQuery>
A71EV2A-x0451_0A_A71EV2A-x0310_0A_A71EV2A-x0416_0A_peptide

> <ROCS_TanimotoCombo>
0.415 

> <ROCS_ShapeTanimoto>
0.275 

> <ROCS_ColorTanimoto>
0.140 

> <ROCS_RefTversky>
0.243 

> <ROCS_RefColorTversky>
0.141 

> <ROCS_RefTverskyCombo>
0.384 

> <ROCS_FitTversky>
1.916 

> <ROCS_FitColorTversky>
0.961 

> <ROCS_FitTverskyCombo>
2.877 

> <ROCS_ColorScore>
-4.263

> <ROCS_Overlap>
1684.914

> <ROCS_Rank>
392                 

$$$$
untitled-dbase-122_748
  -OEChem-11112315393D

 30 32  0     1  0  0  0  0  0999 V2000
   13.0117   15.2775   22.2401 C   0  0  0  0  0  0  0  0  0  0  0  0
   10.1328    8.0219   23.7495 C   0  0  0  0  0  0  0  0  0  0  0  0
   12.3484   14.0319   22.1315 C   0  0  0  0  0  0  0  0  0  0  0  0
   10.2834    9.2517   23.0653 C   0  0  0  0  0  0  0  0  0  0  0  0
   12.2022   16.0750   23.0150 C   0  0  0  0  0  0  0  0  0  0  0  0
    8.9146    8.0850   24.3850 C   0  0  0  0  0  0  0  0  0  0  0  0
   11.1810   14.1571   22.8480 C   0  0  0  0  0  0  0  0  0  0  0  0
    9.1463    9.9785   23.3313 C   0  0  0  0  0  0  0  0  0  0  0  0
   10.0792   13.2035   23.1035 C   0  0  0  0  0  0  0  0  0  0  0  0
    7.4245   12.0611   24.9968 C   0  0  0  0  0  0  0  0  0  0  0  0
    9.7134   12.1284   22.1094 C   0  0  0  0  0  0  0  0  0  0  0  0
    8.6759   11.3588   22.9134 C   0  0  2  0  0  0  0  0  0  0  0  0
    6.9529   13.3360   25.6523 C   0  0  0  0  0  0  0  0  0  0  0  0
    9.3416   13.2393   24.1717 N   0  0  0  0  0  0  0  0  0  0  0  0
    8.4519   12.2085   24.0838 N   0  0  0  0  0  0  0  0  0  0  0  0
    6.9040   10.9814   25.2806 O   0  0  0  0  0  0  0  0  0  0  0  0
   11.0843   15.3995   23.3899 O   0  0  0  0  0  0  0  0  0  0  0  0
    8.3068    9.2744   24.1351 O   0  0  0  0  0  0  0  0  0  0  0  0
    7.8993   13.5240   27.1239 Cl  0  0  0  0  0  0  0  0  0  0  0  0
   13.9607   15.5590   21.8070 H   0  0  0  0  0  0  0  0  0  0  0  0
   10.8257    7.1934   23.7764 H   0  0  0  0  0  0  0  0  0  0  0  0
   12.6832   13.1547   21.5962 H   0  0  0  0  0  0  0  0  0  0  0  0
   11.1182    9.5662   22.4553 H   0  0  0  0  0  0  0  0  0  0  0  0
   12.2748   17.0924   23.3707 H   0  0  0  0  0  0  0  0  0  0  0  0
    8.3661    7.4036   25.0187 H   0  0  0  0  0  0  0  0  0  0  0  0
    9.2706   12.6067   21.2296 H   0  0  0  0  0  0  0  0  0  0  0  0
   10.5954   11.5501   21.8189 H   0  0  0  0  0  0  0  0  0  0  0  0
    7.7206   11.2470   22.3566 H   0  0  0  0  0  0  0  0  0  0  0  0
    5.9016   13.2366   25.8952 H   0  0  0  0  0  0  0  0  0  0  0  0
    7.1397   14.1650   24.9801 H   0  0  0  0  0  0  0  0  0  0  0  0
  1  3  1  0  0  0  0
  1  5  2  0  0  0  0
  2  4  1  0  0  0  0
  2  6  2  0  0  0  0
  3  7  2  0  0  0  0
  4  8  2  0  0  0  0
  5 17  1  0  0  0  0
  6 18  1  0  0  0  0
  7  9  1  0  0  0  0
  7 17  1  0  0  0  0
  8 12  1  0  0  0  0
  8 18  1  0  0  0  0
  9 11  1  0  0  0  0
  9 14  2  0  0  0  0
 10 13  1  0  0  0  0
 10 15  1  0  0  0  0
 10 16  2  0  0  0  0
 11 12  1  0  0  0  0
 12 15  1  0  0  0  0
 13 19  1  0  0  0  0
 14 15  1  0  0  0  0
  1 20  1  0  0  0  0
  2 21  1  0  0  0  0
  3 22  1  0  0  0  0
  4 23  1  0  0  0  0
  5 24  1  0  0  0  0
  6 25  1  0  0  0  0
 11 26  1  0  0  0  0
 11 27  1  0  0  0  0
 12 28  1  0  0  0  0
 13 29  1  0  0  0  0
 13 30  1  0  0  0  0
M  END
> <Catalog ID>
Z57054219

> <MW>
278.046

> <MW (desalted)>
278.691

> <ClogP>
1.622

> <logS>
-3.37

> <HBD>
0

> <HBA>
2

> <TPSA>
58.95

> <RotBonds>
3

> <ROCS_ShapeQuery>
A71EV2A-x0451_0A_A71EV2A-x0310_0A_A71EV2A-x0416_0A_peptide

> <ROCS_TanimotoCombo>
0.415 

> <ROCS_ShapeTanimoto>
0.324 

> <ROCS_ColorTanimoto>
0.092 

> <ROCS_RefTversky>
0.287 

> <ROCS_RefColorTversky>
0.107 

> <ROCS_RefTverskyCombo>
0.393 

> <ROCS_FitTversky>
1.666 

> <ROCS_FitColorTversky>
0.395 

> <ROCS_FitTverskyCombo>
2.062 

> <ROCS_ColorScore>
-3.256

> <ROCS_Overlap>
1988.284

> <ROCS_Rank>
393                 

$$$$
untitled-dbase-323_6132
  -OEChem-11112315393D

 38 39  0     0  0  0  0  0  0999 V2000
   13.1464   16.7062   21.1470 C   0  0  0  0  0  0  0  0  0  0  0  0
   13.7656   15.9332   22.1291 C   0  0  0  0  0  0  0  0  0  0  0  0
   11.9598   16.2675   20.5594 C   0  0  0  0  0  0  0  0  0  0  0  0
   13.1984   14.7214   22.5236 C   0  0  0  0  0  0  0  0  0  0  0  0
   11.3925   15.0558   20.9538 C   0  0  0  0  0  0  0  0  0  0  0  0
   12.0118   14.2827   21.9359 C   0  0  0  0  0  0  0  0  0  0  0  0
    5.3938   11.5384   26.9336 C   0  0  0  0  0  0  0  0  0  0  0  0
    5.2487   10.8958   25.7728 C   0  0  0  0  0  0  0  0  0  0  0  0
    6.3158    9.9761   25.3282 C   0  0  0  0  0  0  0  0  0  0  0  0
   10.5406   13.1764   23.3928 C   0  0  0  0  0  0  0  0  0  0  0  0
    8.8633    9.7284   23.1714 C   0  0  0  0  0  0  0  0  0  0  0  0
    8.6604    9.6077   24.6812 C   0  0  0  0  0  0  0  0  0  0  0  0
    9.7854   10.8743   22.7526 C   0  0  0  0  0  0  0  0  0  0  0  0
    7.9521   11.9249   25.2209 C   0  0  0  0  0  0  0  0  0  0  0  0
    8.1964   12.5252   23.8395 C   0  0  0  0  0  0  0  0  0  0  0  0
    7.5941   10.5046   25.1352 N   0  0  0  0  0  0  0  0  0  0  0  0
    9.5340   12.1961   23.3400 N   0  0  0  0  0  0  0  0  0  0  0  0
    6.0090    8.7968   25.1439 O   0  0  0  0  0  0  0  0  0  0  0  0
   10.6236   14.0402   24.2652 O   0  0  0  0  0  0  0  0  0  0  0  0
   11.4435   13.0672   22.3298 O   0  0  0  0  0  0  0  0  0  0  0  0
   13.5875   17.6500   20.8400 H   0  0  0  0  0  0  0  0  0  0  0  0
   14.6897   16.2745   22.5867 H   0  0  0  0  0  0  0  0  0  0  0  0
   11.4781   16.8701   19.7948 H   0  0  0  0  0  0  0  0  0  0  0  0
   13.6866   14.1233   23.2881 H   0  0  0  0  0  0  0  0  0  0  0  0
   10.4690   14.7182   20.4913 H   0  0  0  0  0  0  0  0  0  0  0  0
    4.6451   12.2259   27.3128 H   0  0  0  0  0  0  0  0  0  0  0  0
    6.2833   11.3821   27.5346 H   0  0  0  0  0  0  0  0  0  0  0  0
    4.3761   11.0251   25.1459 H   0  0  0  0  0  0  0  0  0  0  0  0
    9.2415    8.7783   22.7724 H   0  0  0  0  0  0  0  0  0  0  0  0
    7.8818    9.8839   22.7057 H   0  0  0  0  0  0  0  0  0  0  0  0
    8.3992    8.5881   24.9547 H   0  0  0  0  0  0  0  0  0  0  0  0
    9.5918    9.8578   25.1831 H   0  0  0  0  0  0  0  0  0  0  0  0
   10.8413   10.5810   22.9886 H   0  0  0  0  0  0  0  0  0  0  0  0
    9.7946   10.9862   21.6351 H   0  0  0  0  0  0  0  0  0  0  0  0
    8.8314   12.0537   25.8489 H   0  0  0  0  0  0  0  0  0  0  0  0
    7.1382   12.4544   25.7188 H   0  0  0  0  0  0  0  0  0  0  0  0
    7.4780   12.1283   23.1300 H   0  0  0  0  0  0  0  0  0  0  0  0
    8.0760   13.6003   23.8819 H   0  0  0  0  0  0  0  0  0  0  0  0
  1  2  1  0  0  0  0
  1  3  2  0  0  0  0
  2  4  2  0  0  0  0
  3  5  1  0  0  0  0
  4  6  1  0  0  0  0
  5  6  2  0  0  0  0
  6 20  1  0  0  0  0
  7  8  2  0  0  0  0
  8  9  1  0  0  0  0
  9 16  1  0  0  0  0
  9 18  2  0  0  0  0
 10 17  1  0  0  0  0
 10 19  2  0  0  0  0
 10 20  1  0  0  0  0
 11 12  1  0  0  0  0
 11 13  1  0  0  0  0
 12 16  1  0  0  0  0
 13 17  1  0  0  0  0
 14 15  1  0  0  0  0
 14 16  1  0  0  0  0
 15 17  1  0  0  0  0
  1 21  1  0  0  0  0
  2 22  1  0  0  0  0
  3 23  1  0  0  0  0
  4 24  1  0  0  0  0
  5 25  1  0  0  0  0
  7 26  1  0  0  0  0
  7 27  1  0  0  0  0
  8 28  1  0  0  0  0
 11 29  1  0  0  0  0
 11 30  1  0  0  0  0
 12 31  1  0  0  0  0
 12 32  1  0  0  0  0
 13 33  1  0  0  0  0
 13 34  1  0  0  0  0
 14 35  1  0  0  0  0
 14 36  1  0  0  0  0
 15 37  1  0  0  0  0
 15 38  1  0  0  0  0
M  END
> <Catalog ID>
Z1938124092

> <MW>
274.315

> <MW (desalted)>
274.315

> <ClogP>
1.541

> <logS>
-3.373

> <HBD>
0

> <HBA>
2

> <TPSA>
49.85

> <RotBonds>
3

> <ROCS_ShapeQuery>
A71EV2A-x0451_0A_A71EV2A-x0310_0A_A71EV2A-x0416_0A_peptide

> <ROCS_TanimotoCombo>
0.415 

> <ROCS_ShapeTanimoto>
0.313 

> <ROCS_ColorTanimoto>
0.103 

> <ROCS_RefTversky>
0.280 

> <ROCS_RefColorTversky>
0.112 

> <ROCS_RefTverskyCombo>
0.392 

> <ROCS_FitTversky>
1.612 

> <ROCS_FitColorTversky>
0.539 

> <ROCS_FitTverskyCombo>
2.151 

> <ROCS_ColorScore>
-3.413

> <ROCS_Overlap>
1940.708

> <ROCS_Rank>
394                 

$$$$
untitled-dbase-498_2
  -OEChem-11112315393D

 24 24  0     0  0  0  0  0  0999 V2000
    7.2977   11.7948   25.0930 C   0  0  0  0  0  0  0  0  0  0  0  0
    7.1270   10.4151   25.0700 C   0  0  0  0  0  0  0  0  0  0  0  0
    8.3301   12.3742   24.3636 C   0  0  0  0  0  0  0  0  0  0  0  0
    8.0083    9.6651   24.3082 C   0  0  0  0  0  0  0  0  0  0  0  0
    9.1577   11.5365   23.6336 C   0  0  0  0  0  0  0  0  0  0  0  0
    7.8762    8.2198   24.2472 C   0  0  0  0  0  0  0  0  0  0  0  0
   10.8568   13.3019   23.2348 C   0  0  0  0  0  0  0  0  0  0  0  0
    8.8077    6.2343   23.3044 C   0  0  0  0  0  0  0  0  0  0  0  0
   11.9015   13.6627   22.2043 C   0  0  0  0  0  0  0  0  0  0  0  0
    9.0230   10.1921   23.5868 N   0  0  0  0  0  0  0  0  0  0  0  0
   10.1937   12.1296   22.9021 N   0  0  0  0  0  0  0  0  0  0  0  0
    7.0063    7.5687   24.8427 O   0  0  0  0  0  0  0  0  0  0  0  0
   10.6717   14.0290   24.2070 O   0  0  0  0  0  0  0  0  0  0  0  0
    8.8340    7.6586   23.4462 O   0  0  0  0  0  0  0  0  0  0  0  0
   11.1266   14.6872   20.9855 Cl  0  0  0  0  0  0  0  0  0  0  0  0
    6.6279   12.4177   25.6780 H   0  0  0  0  0  0  0  0  0  0  0  0
    6.3245    9.9518   25.6344 H   0  0  0  0  0  0  0  0  0  0  0  0
    8.4700   13.4502   24.3758 H   0  0  0  0  0  0  0  0  0  0  0  0
    9.6189    5.9181   22.6441 H   0  0  0  0  0  0  0  0  0  0  0  0
    7.8447    5.9262   22.8895 H   0  0  0  0  0  0  0  0  0  0  0  0
    8.9418    5.7767   24.2875 H   0  0  0  0  0  0  0  0  0  0  0  0
   12.3281   12.7866   21.7093 H   0  0  0  0  0  0  0  0  0  0  0  0
   12.7074   14.2250   22.6842 H   0  0  0  0  0  0  0  0  0  0  0  0
   10.4865   11.6588   22.0505 H   0  0  0  0  0  0  0  0  0  0  0  0
  1  2  2  0  0  0  0
  1  3  1  0  0  0  0
  2  4  1  0  0  0  0
  3  5  2  0  0  0  0
  4  6  1  0  0  0  0
  4 10  2  0  0  0  0
  5 10  1  0  0  0  0
  5 11  1  0  0  0  0
  6 12  2  0  0  0  0
  6 14  1  0  0  0  0
  7  9  1  0  0  0  0
  7 11  1  0  0  0  0
  7 13  2  0  0  0  0
  8 14  1  0  0  0  0
  9 15  1  0  0  0  0
  1 16  1  0  0  0  0
  2 17  1  0  0  0  0
  3 18  1  0  0  0  0
  8 19  1  0  0  0  0
  8 20  1  0  0  0  0
  8 21  1  0  0  0  0
  9 22  1  0  0  0  0
  9 23  1  0  0  0  0
 11 24  1  0  0  0  0
M  END
> <Catalog ID>
Z1763349650

> <MW>
228.03

> <MW (desalted)>
228.632

> <ClogP>
0.884

> <logS>
-2.158

> <HBD>
1

> <HBA>
3

> <TPSA>
68.29

> <RotBonds>
4

> <ROCS_ShapeQuery>
A71EV2A-x0451_0A_A71EV2A-x0310_0A_A71EV2A-x0416_0A_peptide

> <ROCS_TanimotoCombo>
0.415 

> <ROCS_ShapeTanimoto>
0.279 

> <ROCS_ColorTanimoto>
0.136 

> <ROCS_RefTversky>
0.249 

> <ROCS_RefColorTversky>
0.145 

> <ROCS_RefTverskyCombo>
0.394 

> <ROCS_FitTversky>
1.755 

> <ROCS_FitColorTversky>
0.694 

> <ROCS_FitTverskyCombo>
2.450 

> <ROCS_ColorScore>
-4.399

> <ROCS_Overlap>
1726.172

> <ROCS_Rank>
395                 

$$$$
untitled-dbase-227_49
  -OEChem-11112315393D

 23 23  0     0  0  0  0  0  0999 V2000
    4.9657   11.1991   26.6163 C   0  0  0  0  0  0  0  0  0  0  0  0
    7.7149    9.7568   24.5263 C   0  0  0  0  0  0  0  0  0  0  0  0
    7.1047   12.0075   25.1582 C   0  0  0  0  0  0  0  0  0  0  0  0
    8.7952   10.2542   23.7975 C   0  0  0  0  0  0  0  0  0  0  0  0
    8.1851   12.5049   24.4294 C   0  0  0  0  0  0  0  0  0  0  0  0
    6.8696   10.6334   25.2066 C   0  0  0  0  0  0  0  0  0  0  0  0
    9.0303   11.6283   23.7491 C   0  0  0  0  0  0  0  0  0  0  0  0
   10.8246   13.2851   23.3039 C   0  0  0  0  0  0  0  0  0  0  0  0
    5.7145   10.1014   25.9857 C   0  0  0  0  0  0  0  0  0  0  0  0
   11.9325   13.5203   22.3035 C   0  0  0  0  0  0  0  0  0  0  0  0
    4.3751   12.0646   27.1151 N   0  0  0  0  0  0  0  0  0  0  0  0
   10.1109   12.1261   23.0205 N   0  0  0  0  0  0  0  0  0  0  0  0
   10.6356   14.0859   24.2155 O   0  0  0  0  0  0  0  0  0  0  0  0
   13.4657   13.5352   23.1893 Cl  0  0  0  0  0  0  0  0  0  0  0  0
    7.5379    8.6849   24.5567 H   0  0  0  0  0  0  0  0  0  0  0  0
    6.4508   12.6977   25.6846 H   0  0  0  0  0  0  0  0  0  0  0  0
    9.4476    9.5618   23.2715 H   0  0  0  0  0  0  0  0  0  0  0  0
    8.3585   13.5777   24.3976 H   0  0  0  0  0  0  0  0  0  0  0  0
    6.0603    9.4009   26.7580 H   0  0  0  0  0  0  0  0  0  0  0  0
    5.0433    9.5243   25.3352 H   0  0  0  0  0  0  0  0  0  0  0  0
   11.8253   14.4670   21.7679 H   0  0  0  0  0  0  0  0  0  0  0  0
   11.9469   12.7028   21.5772 H   0  0  0  0  0  0  0  0  0  0  0  0
   10.4042   11.5908   22.2054 H   0  0  0  0  0  0  0  0  0  0  0  0
  1  9  1  0  0  0  0
  1 11  3  0  0  0  0
  2  4  2  0  0  0  0
  2  6  1  0  0  0  0
  3  5  1  0  0  0  0
  3  6  2  0  0  0  0
  4  7  1  0  0  0  0
  5  7  2  0  0  0  0
  6  9  1  0  0  0  0
  7 12  1  0  0  0  0
  8 10  1  0  0  0  0
  8 12  1  0  0  0  0
  8 13  2  0  0  0  0
 10 14  1  0  0  0  0
  2 15  1  0  0  0  0
  3 16  1  0  0  0  0
  4 17  1  0  0  0  0
  5 18  1  0  0  0  0
  9 19  1  0  0  0  0
  9 20  1  0  0  0  0
 10 21  1  0  0  0  0
 10 22  1  0  0  0  0
 12 23  1  0  0  0  0
M  END
> <Catalog ID>
Z89283962

> <MW>
208.04

> <MW (desalted)>
208.644

> <ClogP>
1.196

> <logS>
-2.42

> <HBD>
1

> <HBA>
2

> <TPSA>
52.89

> <RotBonds>
3

> <ROCS_ShapeQuery>
A71EV2A-x0451_0A_A71EV2A-x0310_0A_A71EV2A-x0416_0A_peptide

> <ROCS_TanimotoCombo>
0.415 

> <ROCS_ShapeTanimoto>
0.259 

> <ROCS_ColorTanimoto>
0.156 

> <ROCS_RefTversky>
0.233 

> <ROCS_RefColorTversky>
0.159 

> <ROCS_RefTverskyCombo>
0.392 

> <ROCS_FitTversky>
1.744 

> <ROCS_FitColorTversky>
0.897 

> <ROCS_FitTverskyCombo>
2.641 

> <ROCS_ColorScore>
-4.831

> <ROCS_Overlap>
1613.735

> <ROCS_Rank>
396                 

$$$$
untitled-dbase-950_3
  -OEChem-11112315393D

 24 24  0     0  0  0  0  0  0999 V2000
    7.2099   10.3043   24.9889 C   0  0  0  0  0  0  0  0  0  0  0  0
    8.1078    9.6030   24.2103 C   0  0  0  0  0  0  0  0  0  0  0  0
    7.3848   11.6728   25.0161 C   0  0  0  0  0  0  0  0  0  0  0  0
    9.1695   11.5232   23.6162 C   0  0  0  0  0  0  0  0  0  0  0  0
   11.8130   14.8431   21.5276 C   0  0  0  0  0  0  0  0  0  0  0  0
   11.8863   13.6912   22.2020 C   0  0  0  0  0  0  0  0  0  0  0  0
   10.8581   13.3444   23.2256 C   0  0  0  0  0  0  0  0  0  0  0  0
    7.9983    8.1181   24.1186 C   0  0  0  0  0  0  0  0  0  0  0  0
    6.4622   12.5157   25.8309 C   0  0  0  0  0  0  0  0  0  0  0  0
    9.1035   10.1825   23.5081 N   0  0  0  0  0  0  0  0  0  0  0  0
    8.3577   12.3178   24.3396 N   0  0  0  0  0  0  0  0  0  0  0  0
   10.1933   12.1604   22.8986 N   0  0  0  0  0  0  0  0  0  0  0  0
   10.6727   14.0554   24.2062 O   0  0  0  0  0  0  0  0  0  0  0  0
    6.4195    9.8126   25.5423 H   0  0  0  0  0  0  0  0  0  0  0  0
   12.5414   15.1288   20.7770 H   0  0  0  0  0  0  0  0  0  0  0  0
   11.0007   15.5352   21.7232 H   0  0  0  0  0  0  0  0  0  0  0  0
   12.6978   12.9986   22.0068 H   0  0  0  0  0  0  0  0  0  0  0  0
    7.3436    7.8345   23.2857 H   0  0  0  0  0  0  0  0  0  0  0  0
    8.9812    7.6553   23.9621 H   0  0  0  0  0  0  0  0  0  0  0  0
    7.5898    7.6912   25.0437 H   0  0  0  0  0  0  0  0  0  0  0  0
    6.8532   12.6351   26.8486 H   0  0  0  0  0  0  0  0  0  0  0  0
    6.3366   13.5117   25.3871 H   0  0  0  0  0  0  0  0  0  0  0  0
    5.4625   12.0666   25.8923 H   0  0  0  0  0  0  0  0  0  0  0  0
   10.4883   11.7026   22.0318 H   0  0  0  0  0  0  0  0  0  0  0  0
  1  2  1  0  0  0  0
  1  3  2  0  0  0  0
  2  8  1  0  0  0  0
  2 10  2  0  0  0  0
  3  9  1  0  0  0  0
  3 11  1  0  0  0  0
  4 10  1  0  0  0  0
  4 11  2  0  0  0  0
  4 12  1  0  0  0  0
  5  6  2  0  0  0  0
  6  7  1  0  0  0  0
  7 12  1  0  0  0  0
  7 13  2  0  0  0  0
  1 14  1  0  0  0  0
  5 15  1  0  0  0  0
  5 16  1  0  0  0  0
  6 17  1  0  0  0  0
  8 18  1  0  0  0  0
  8 19  1  0  0  0  0
  8 20  1  0  0  0  0
  9 21  1  0  0  0  0
  9 22  1  0  0  0  0
  9 23  1  0  0  0  0
 12 24  1  0  0  0  0
M  END
> <Catalog ID>
Z440634048

> <MW>
177.09

> <MW (desalted)>
177.203

> <ClogP>
0.478

> <logS>
-1.91

> <HBD>
1

> <HBA>
3

> <TPSA>
54.88

> <RotBonds>
2

> <ROCS_ShapeQuery>
A71EV2A-x0451_0A_A71EV2A-x0310_0A_A71EV2A-x0416_0A_peptide

> <ROCS_TanimotoCombo>
0.415 

> <ROCS_ShapeTanimoto>
0.283 

> <ROCS_ColorTanimoto>
0.132 

> <ROCS_RefTversky>
0.249 

> <ROCS_RefColorTversky>
0.145 

> <ROCS_RefTverskyCombo>
0.394 

> <ROCS_FitTversky>
1.910 

> <ROCS_FitColorTversky>
0.603 

> <ROCS_FitTverskyCombo>
2.513 

> <ROCS_ColorScore>
-4.397

> <ROCS_Overlap>
1727.472

> <ROCS_Rank>
397                 

$$$$
untitled-dbase-114_16
  -OEChem-11112315393D

 28 28  0     1  0  0  0  0  0999 V2000
   10.8864   13.6568   23.0837 C   0  0  0  0  0  0  0  0  0  0  0  0
    8.7192    9.4814   24.6267 C   0  0  0  0  0  0  0  0  0  0  0  0
    7.2630    9.8915   24.4166 C   0  0  0  0  0  0  0  0  0  0  0  0
    9.6568   10.2264   23.6816 C   0  0  0  0  0  0  0  0  0  0  0  0
    8.0195   12.1509   23.5717 C   0  0  0  0  0  0  0  0  0  0  0  0
    7.0468   11.4093   24.5008 C   0  0  2  0  0  0  0  0  0  0  0  0
    9.4816   11.7427   23.7831 C   0  0  2  0  0  0  0  0  0  0  0  0
   11.7627   14.1490   21.9603 C   0  0  0  0  0  0  0  0  0  0  0  0
    7.1436   11.9157   25.9425 C   0  0  0  0  0  0  0  0  0  0  0  0
   10.3383   12.4122   22.8330 N   0  0  0  0  0  0  0  0  0  0  0  0
   10.7142   14.3149   24.1082 O   0  0  0  0  0  0  0  0  0  0  0  0
    6.2485   11.2801   26.7134 F   0  0  0  0  0  0  0  0  0  0  0  0
    8.3738   11.6894   26.4269 F   0  0  0  0  0  0  0  0  0  0  0  0
    6.8953   13.2333   25.9836 F   0  0  0  0  0  0  0  0  0  0  0  0
   10.7446   15.0608   20.8348 Cl  0  0  0  0  0  0  0  0  0  0  0  0
    9.0088    9.6830   25.6646 H   0  0  0  0  0  0  0  0  0  0  0  0
    8.8201    8.3995   24.4753 H   0  0  0  0  0  0  0  0  0  0  0  0
    6.9229    9.5209   23.4357 H   0  0  0  0  0  0  0  0  0  0  0  0
    6.6345    9.3836   25.1678 H   0  0  0  0  0  0  0  0  0  0  0  0
   10.6911    9.9736   23.9380 H   0  0  0  0  0  0  0  0  0  0  0  0
    9.4979    9.8882   22.6537 H   0  0  0  0  0  0  0  0  0  0  0  0
    7.7325   11.9969   22.5229 H   0  0  0  0  0  0  0  0  0  0  0  0
    7.9350   13.2320   23.7522 H   0  0  0  0  0  0  0  0  0  0  0  0
    6.0141   11.6199   24.1489 H   0  0  0  0  0  0  0  0  0  0  0  0
    9.8102   12.0776   24.7691 H   0  0  0  0  0  0  0  0  0  0  0  0
   12.5679   14.7998   22.3101 H   0  0  0  0  0  0  0  0  0  0  0  0
   12.1974   13.2929   21.4369 H   0  0  0  0  0  0  0  0  0  0  0  0
   10.5450   11.9542   21.9523 H   0  0  0  0  0  0  0  0  0  0  0  0
  1  8  1  0  0  0  0
  1 10  1  0  0  0  0
  1 11  2  0  0  0  0
  2  3  1  0  0  0  0
  2  4  1  0  0  0  0
  3  6  1  0  0  0  0
  4  7  1  0  0  0  0
  5  6  1  0  0  0  0
  5  7  1  0  0  0  0
  6  9  1  0  0  0  0
  7 10  1  0  0  0  0
  8 15  1  0  0  0  0
  9 12  1  0  0  0  0
  9 13  1  0  0  0  0
  9 14  1  0  0  0  0
  2 16  1  0  0  0  0
  2 17  1  0  0  0  0
  3 18  1  0  0  0  0
  3 19  1  0  0  0  0
  4 20  1  0  0  0  0
  4 21  1  0  0  0  0
  5 22  1  0  0  0  0
  5 23  1  0  0  0  0
  6 24  1  0  0  0  0
  7 25  1  0  0  0  0
  8 26  1  0  0  0  0
  8 27  1  0  0  0  0
 10 28  1  0  0  0  0
M  END
> <Catalog ID>
Z258588334

> <MW>
243.064

> <MW (desalted)>
243.654

> <ClogP>
1.509

> <logS>
-2.796

> <HBD>
1

> <HBA>
1

> <TPSA>
29.1

> <RotBonds>
3

> <ROCS_ShapeQuery>
A71EV2A-x0451_0A_A71EV2A-x0310_0A_A71EV2A-x0416_0A_peptide

> <ROCS_TanimotoCombo>
0.415 

> <ROCS_ShapeTanimoto>
0.281 

> <ROCS_ColorTanimoto>
0.134 

> <ROCS_RefTversky>
0.250 

> <ROCS_RefColorTversky>
0.135 

> <ROCS_RefTverskyCombo>
0.385 

> <ROCS_FitTversky>
1.798 

> <ROCS_FitColorTversky>
0.922 

> <ROCS_FitTverskyCombo>
2.721 

> <ROCS_ColorScore>
-4.091

> <ROCS_Overlap>
1732.964

> <ROCS_Rank>
398                 

$$$$
untitled-dbase-337_10
  -OEChem-11112315393D

 32 34  0     0  0  0  0  0  0999 V2000
    7.2772   13.0680   26.4615 C   0  0  0  0  0  0  0  0  0  0  0  0
    8.3747   13.1394   25.5977 C   0  0  0  0  0  0  0  0  0  0  0  0
    6.6488   10.9054   25.5584 C   0  0  0  0  0  0  0  0  0  0  0  0
    4.6501   13.0440   27.7785 C   0  0  0  0  0  0  0  0  0  0  0  0
    6.4198   11.9593   26.4424 C   0  0  0  0  0  0  0  0  0  0  0  0
    7.7393   10.9840   24.7055 C   0  0  0  0  0  0  0  0  0  0  0  0
    8.5953   12.0869   24.7212 C   0  0  0  0  0  0  0  0  0  0  0  0
    5.2991   11.9090   27.3395 C   0  0  0  0  0  0  0  0  0  0  0  0
    3.7884   10.9542   28.6107 C   0  0  0  0  0  0  0  0  0  0  0  0
   10.6429   12.8165   23.5018 C   0  0  0  0  0  0  0  0  0  0  0  0
    8.1604    9.9725   23.6905 C   0  0  0  0  0  0  0  0  0  0  0  0
    9.4081   10.6231   23.0834 C   0  0  0  0  0  0  0  0  0  0  0  0
    3.0032    9.9139   29.3094 C   0  0  0  0  0  0  0  0  0  0  0  0
   11.6038   12.3834   22.4196 C   0  0  0  0  0  0  0  0  0  0  0  0
    4.8065   10.7097   27.8159 N   0  0  0  0  0  0  0  0  0  0  0  0
    9.6166   11.9190   23.7631 N   0  0  0  0  0  0  0  0  0  0  0  0
   10.8186   13.8963   24.0665 O   0  0  0  0  0  0  0  0  0  0  0  0
    3.3685   12.6036   28.8296 S   0  0  0  0  0  0  0  0  0  0  0  0
   12.7790   13.6808   22.2445 Cl  0  0  0  0  0  0  0  0  0  0  0  0
    7.1001   13.8905   27.1519 H   0  0  0  0  0  0  0  0  0  0  0  0
    9.0167   14.0105   25.6404 H   0  0  0  0  0  0  0  0  0  0  0  0
    5.9947   10.0386   25.5307 H   0  0  0  0  0  0  0  0  0  0  0  0
    4.8531   14.0801   27.5450 H   0  0  0  0  0  0  0  0  0  0  0  0
    8.4042    9.0183   24.1672 H   0  0  0  0  0  0  0  0  0  0  0  0
    7.3818    9.8291   22.9352 H   0  0  0  0  0  0  0  0  0  0  0  0
   10.2955    9.9969   23.2273 H   0  0  0  0  0  0  0  0  0  0  0  0
    9.2853   10.7980   22.0089 H   0  0  0  0  0  0  0  0  0  0  0  0
    3.4337    9.6924   30.2986 H   0  0  0  0  0  0  0  0  0  0  0  0
    1.9550   10.2210   29.4587 H   0  0  0  0  0  0  0  0  0  0  0  0
    2.9685    8.9718   28.7378 H   0  0  0  0  0  0  0  0  0  0  0  0
   11.0528   12.2513   21.4965 H   0  0  0  0  0  0  0  0  0  0  0  0
   12.0969   11.4723   22.7355 H   0  0  0  0  0  0  0  0  0  0  0  0
  1  2  2  0  0  0  0
  1  5  1  0  0  0  0
  2  7  1  0  0  0  0
  3  5  2  0  0  0  0
  3  6  1  0  0  0  0
  4  8  2  0  0  0  0
  4 18  1  0  0  0  0
  5  8  1  0  0  0  0
  6  7  2  0  0  0  0
  6 11  1  0  0  0  0
  7 16  1  0  0  0  0
  8 15  1  0  0  0  0
  9 13  1  0  0  0  0
  9 15  2  0  0  0  0
  9 18  1  0  0  0  0
 10 14  1  0  0  0  0
 10 16  1  0  0  0  0
 10 17  2  0  0  0  0
 11 12  1  0  0  0  0
 12 16  1  0  0  0  0
 14 19  1  0  0  0  0
  1 20  1  0  0  0  0
  2 21  1  0  0  0  0
  3 22  1  0  0  0  0
  4 23  1  0  0  0  0
 11 24  1  0  0  0  0
 11 25  1  0  0  0  0
 12 26  1  0  0  0  0
 12 27  1  0  0  0  0
 13 28  1  0  0  0  0
 13 29  1  0  0  0  0
 13 30  1  0  0  0  0
 14 31  1  0  0  0  0
 14 32  1  0  0  0  0
M  END
> <Catalog ID>
Z165156702

> <MW>
292.044

> <MW (desalted)>
292.784

> <ClogP>
2.916

> <logS>
-3.66

> <HBD>
0

> <HBA>
2

> <TPSA>
33.2

> <RotBonds>
2

> <ROCS_ShapeQuery>
A71EV2A-x0451_0A_A71EV2A-x0310_0A_A71EV2A-x0416_0A_peptide

> <ROCS_TanimotoCombo>
0.415 

> <ROCS_ShapeTanimoto>
0.275 

> <ROCS_ColorTanimoto>
0.139 

> <ROCS_RefTversky>
0.252 

> <ROCS_RefColorTversky>
0.148 

> <ROCS_RefTverskyCombo>
0.400 

> <ROCS_FitTversky>
1.500 

> <ROCS_FitColorTversky>
0.707 

> <ROCS_FitTverskyCombo>
2.207 

> <ROCS_ColorScore>
-4.492

> <ROCS_Overlap>
1749.573

> <ROCS_Rank>
399                 

$$$$
untitled-dbase-905_382
  -OEChem-11112315393D

 27 28  0     0  0  0  0  0  0999 V2000
    6.0311   11.4319   26.0226 C   0  0  0  0  0  0  0  0  0  0  0  0
    6.0390   10.0647   25.7690 C   0  0  0  0  0  0  0  0  0  0  0  0
    7.0096   12.2627   25.4692 C   0  0  0  0  0  0  0  0  0  0  0  0
    7.0219    9.4918   24.9580 C   0  0  0  0  0  0  0  0  0  0  0  0
    8.0144   11.7096   24.6461 C   0  0  0  0  0  0  0  0  0  0  0  0
    8.0018   10.3323   24.4056 C   0  0  0  0  0  0  0  0  0  0  0  0
    9.7901   11.5734   23.3441 C   0  0  0  0  0  0  0  0  0  0  0  0
   10.7703   14.4084   22.9171 C   0  0  0  0  0  0  0  0  0  0  0  0
   10.8953   13.4407   20.5696 C   0  0  0  0  0  0  0  0  0  0  0  0
   10.9981   11.9761   22.5486 C   0  0  0  0  0  0  0  0  0  0  0  0
   10.6598   15.7781   22.2777 C   0  0  0  0  0  0  0  0  0  0  0  0
    9.0446   12.4065   24.0317 N   0  0  0  0  0  0  0  0  0  0  0  0
   10.8804   13.3322   22.0268 N   0  0  0  0  0  0  0  0  0  0  0  0
   10.7620   14.2692   24.1427 O   0  0  0  0  0  0  0  0  0  0  0  0
    9.3268    9.9272   23.3793 S   0  0  0  0  0  0  0  0  0  0  0  0
   12.2678   16.4790   22.0072 Cl  0  0  0  0  0  0  0  0  0  0  0  0
    5.2587   11.8594   26.6560 H   0  0  0  0  0  0  0  0  0  0  0  0
    5.2713    9.4319   26.2066 H   0  0  0  0  0  0  0  0  0  0  0  0
    6.9931   13.3296   25.6733 H   0  0  0  0  0  0  0  0  0  0  0  0
    7.0209    8.4238   24.7635 H   0  0  0  0  0  0  0  0  0  0  0  0
   11.9318   13.5593   20.2208 H   0  0  0  0  0  0  0  0  0  0  0  0
   10.4625   12.5301   20.1298 H   0  0  0  0  0  0  0  0  0  0  0  0
   10.3025   14.3144   20.2610 H   0  0  0  0  0  0  0  0  0  0  0  0
   11.9009   11.9300   23.1675 H   0  0  0  0  0  0  0  0  0  0  0  0
   11.1515   11.3025   21.6989 H   0  0  0  0  0  0  0  0  0  0  0  0
   10.1679   15.7014   21.3048 H   0  0  0  0  0  0  0  0  0  0  0  0
   10.1114   16.4573   22.9354 H   0  0  0  0  0  0  0  0  0  0  0  0
  1  2  1  0  0  0  0
  1  3  2  0  0  0  0
  2  4  2  0  0  0  0
  3  5  1  0  0  0  0
  4  6  1  0  0  0  0
  5  6  2  0  0  0  0
  5 12  1  0  0  0  0
  6 15  1  0  0  0  0
  7 10  1  0  0  0  0
  7 12  2  0  0  0  0
  7 15  1  0  0  0  0
  8 11  1  0  0  0  0
  8 13  1  0  0  0  0
  8 14  2  0  0  0  0
  9 13  1  0  0  0  0
 10 13  1  0  0  0  0
 11 16  1  0  0  0  0
  1 17  1  0  0  0  0
  2 18  1  0  0  0  0
  3 19  1  0  0  0  0
  4 20  1  0  0  0  0
  9 21  1  0  0  0  0
  9 22  1  0  0  0  0
  9 23  1  0  0  0  0
 10 24  1  0  0  0  0
 10 25  1  0  0  0  0
 11 26  1  0  0  0  0
 11 27  1  0  0  0  0
M  END
> <Catalog ID>
Z94598487

> <MW>
254.028

> <MW (desalted)>
254.736

> <ClogP>
1.517

> <logS>
-2.58

> <HBD>
0

> <HBA>
2

> <TPSA>
33.2

> <RotBonds>
3

> <ROCS_ShapeQuery>
A71EV2A-x0451_0A_A71EV2A-x0310_0A_A71EV2A-x0416_0A_peptide

> <ROCS_TanimotoCombo>
0.414 

> <ROCS_ShapeTanimoto>
0.292 

> <ROCS_ColorTanimoto>
0.122 

> <ROCS_RefTversky>
0.259 

> <ROCS_RefColorTversky>
0.128 

> <ROCS_RefTverskyCombo>
0.387 

> <ROCS_FitTversky>
1.769 

> <ROCS_FitColorTversky>
0.719 

> <ROCS_FitTverskyCombo>
2.489 

> <ROCS_ColorScore>
-3.882

> <ROCS_Overlap>
1797.621

> <ROCS_Rank>
400                 

$$$$
untitled-dbase-79_7
  -OEChem-11112315393D

 20 20  0     0  0  0  0  0  0999 V2000
    9.3385   10.2264   23.3079 C   0  0  0  0  0  0  0  0  0  0  0  0
    8.3688    9.4826   23.9802 C   0  0  0  0  0  0  0  0  0  0  0  0
    8.4371   12.2579   24.2553 C   0  0  0  0  0  0  0  0  0  0  0  0
    9.3727   11.6141   23.4455 C   0  0  0  0  0  0  0  0  0  0  0  0
    7.4333   10.1264   24.7901 C   0  0  0  0  0  0  0  0  0  0  0  0
    7.4674   11.5141   24.9276 C   0  0  0  0  0  0  0  0  0  0  0  0
   11.7670   15.2284   21.5541 C   0  0  0  0  0  0  0  0  0  0  0  0
   11.9240   14.0492   22.1636 C   0  0  0  0  0  0  0  0  0  0  0  0
   10.9240   13.5722   23.1626 C   0  0  0  0  0  0  0  0  0  0  0  0
   10.3413   12.3588   22.7718 N   0  0  0  0  0  0  0  0  0  0  0  0
   10.6879   14.2122   24.1805 O   0  0  0  0  0  0  0  0  0  0  0  0
    6.5025    9.4114   25.4353 F   0  0  0  0  0  0  0  0  0  0  0  0
    6.5684   12.1327   25.7042 F   0  0  0  0  0  0  0  0  0  0  0  0
   10.0625    9.7138   22.6796 H   0  0  0  0  0  0  0  0  0  0  0  0
    8.3416    8.4022   23.8735 H   0  0  0  0  0  0  0  0  0  0  0  0
    8.4534   13.3388   24.3683 H   0  0  0  0  0  0  0  0  0  0  0  0
   12.4724   15.6076   20.8232 H   0  0  0  0  0  0  0  0  0  0  0  0
   10.9066   15.8479   21.7849 H   0  0  0  0  0  0  0  0  0  0  0  0
   12.7836   13.4292   21.9332 H   0  0  0  0  0  0  0  0  0  0  0  0
   10.6677   11.9696   21.8789 H   0  0  0  0  0  0  0  0  0  0  0  0
  1  2  2  0  0  0  0
  1  4  1  0  0  0  0
  2  5  1  0  0  0  0
  3  4  2  0  0  0  0
  3  6  1  0  0  0  0
  4 10  1  0  0  0  0
  5  6  2  0  0  0  0
  5 12  1  0  0  0  0
  6 13  1  0  0  0  0
  7  8  2  0  0  0  0
  8  9  1  0  0  0  0
  9 10  1  0  0  0  0
  9 11  2  0  0  0  0
  1 14  1  0  0  0  0
  2 15  1  0  0  0  0
  3 16  1  0  0  0  0
  7 17  1  0  0  0  0
  7 18  1  0  0  0  0
  8 19  1  0  0  0  0
 10 20  1  0  0  0  0
M  END
> <Catalog ID>
Z362763704

> <MW>
183.05

> <MW (desalted)>
183.155

> <ClogP>
1.98

> <logS>
-2.81

> <HBD>
1

> <HBA>
1

> <TPSA>
29.1

> <RotBonds>
2

> <ROCS_ShapeQuery>
A71EV2A-x0451_0A_A71EV2A-x0310_0A_A71EV2A-x0416_0A_peptide

> <ROCS_TanimotoCombo>
0.414 

> <ROCS_ShapeTanimoto>
0.280 

> <ROCS_ColorTanimoto>
0.134 

> <ROCS_RefTversky>
0.247 

> <ROCS_RefColorTversky>
0.139 

> <ROCS_RefTverskyCombo>
0.387 

> <ROCS_FitTversky>
1.893 

> <ROCS_FitColorTversky>
0.785 

> <ROCS_FitTverskyCombo>
2.678 

> <ROCS_ColorScore>
-4.229

> <ROCS_Overlap>
1712.187

> <ROCS_Rank>
401                 

$$$$
untitled-dbase-272_27
  -OEChem-11112315393D

 24 24  0     0  0  0  0  0  0999 V2000
    7.4059   10.1923   24.8326 C   0  0  0  0  0  0  0  0  0  0  0  0
    7.4830   11.5797   24.9538 C   0  0  0  0  0  0  0  0  0  0  0  0
    8.3120    9.5118   24.0192 C   0  0  0  0  0  0  0  0  0  0  0  0
    8.4662   12.2867   24.2616 C   0  0  0  0  0  0  0  0  0  0  0  0
    9.2952   10.2188   23.3270 C   0  0  0  0  0  0  0  0  0  0  0  0
    9.3724   11.6062   23.4482 C   0  0  0  0  0  0  0  0  0  0  0  0
   10.2264    9.4773   22.4857 C   0  0  0  0  0  0  0  0  0  0  0  0
   10.9202   13.5289   23.1833 C   0  0  0  0  0  0  0  0  0  0  0  0
   10.0622    7.9881   22.4207 C   0  0  0  0  0  0  0  0  0  0  0  0
   11.9414   14.0386   22.1929 C   0  0  0  0  0  0  0  0  0  0  0  0
   10.3479   12.3355   22.7627 N   0  0  0  0  0  0  0  0  0  0  0  0
   11.1377    9.9828   21.8306 O   0  0  0  0  0  0  0  0  0  0  0  0
   10.6746   14.1695   24.2017 O   0  0  0  0  0  0  0  0  0  0  0  0
   11.0995   15.0860   21.0398 Cl  0  0  0  0  0  0  0  0  0  0  0  0
    6.6399    9.6421   25.3714 H   0  0  0  0  0  0  0  0  0  0  0  0
    6.7774   12.1091   25.5874 H   0  0  0  0  0  0  0  0  0  0  0  0
    8.2416    8.4304   23.9333 H   0  0  0  0  0  0  0  0  0  0  0  0
    8.5158   13.3678   24.3645 H   0  0  0  0  0  0  0  0  0  0  0  0
    9.3885    7.6463   21.6191 H   0  0  0  0  0  0  0  0  0  0  0  0
    9.7017    7.5499   23.3643 H   0  0  0  0  0  0  0  0  0  0  0  0
   11.0078    7.4563   22.2132 H   0  0  0  0  0  0  0  0  0  0  0  0
   12.4360   13.2340   21.6428 H   0  0  0  0  0  0  0  0  0  0  0  0
   12.6996   14.6242   22.7204 H   0  0  0  0  0  0  0  0  0  0  0  0
   10.6680   11.9575   21.8742 H   0  0  0  0  0  0  0  0  0  0  0  0
  1  2  1  0  0  0  0
  1  3  2  0  0  0  0
  2  4  2  0  0  0  0
  3  5  1  0  0  0  0
  4  6  1  0  0  0  0
  5  6  2  0  0  0  0
  5  7  1  0  0  0  0
  6 11  1  0  0  0  0
  7  9  1  0  0  0  0
  7 12  2  0  0  0  0
  8 10  1  0  0  0  0
  8 11  1  0  0  0  0
  8 13  2  0  0  0  0
 10 14  1  0  0  0  0
  1 15  1  0  0  0  0
  2 16  1  0  0  0  0
  3 17  1  0  0  0  0
  4 18  1  0  0  0  0
  9 19  1  0  0  0  0
  9 20  1  0  0  0  0
  9 21  1  0  0  0  0
 10 22  1  0  0  0  0
 10 23  1  0  0  0  0
 11 24  1  0  0  0  0
M  END
> <Catalog ID>
Z56886527

> <MW>
211.04

> <MW (desalted)>
211.645

> <ClogP>
2.112

> <logS>
-2.56

> <HBD>
1

> <HBA>
2

> <TPSA>
46.17

> <RotBonds>
3

> <ROCS_ShapeQuery>
A71EV2A-x0451_0A_A71EV2A-x0310_0A_A71EV2A-x0416_0A_peptide

> <ROCS_TanimotoCombo>
0.414 

> <ROCS_ShapeTanimoto>
0.278 

> <ROCS_ColorTanimoto>
0.136 

> <ROCS_RefTversky>
0.247 

> <ROCS_RefColorTversky>
0.141 

> <ROCS_RefTverskyCombo>
0.388 

> <ROCS_FitTversky>
1.832 

> <ROCS_FitColorTversky>
0.791 

> <ROCS_FitTverskyCombo>
2.623 

> <ROCS_ColorScore>
-4.262

> <ROCS_Overlap>
1711.208

> <ROCS_Rank>
402                 

$$$$
untitled-dbase-345_2
  -OEChem-11112315393D

 25 25  0     0  0  0  0  0  0999 V2000
    7.4853   11.5728   24.9542 C   0  0  0  0  0  0  0  0  0  0  0  0
    8.4659   12.2839   24.2627 C   0  0  0  0  0  0  0  0  0  0  0  0
    8.3207    9.5088   24.0167 C   0  0  0  0  0  0  0  0  0  0  0  0
    7.4127   10.1852   24.8313 C   0  0  0  0  0  0  0  0  0  0  0  0
    9.3013   10.2199   23.3250 C   0  0  0  0  0  0  0  0  0  0  0  0
    9.3739   11.6075   23.4480 C   0  0  0  0  0  0  0  0  0  0  0  0
   10.9210   13.5310   23.1848 C   0  0  0  0  0  0  0  0  0  0  0  0
    6.3625    9.4253   25.5690 C   0  0  0  0  0  0  0  0  0  0  0  0
   10.2590    9.4695   22.4571 C   0  0  0  0  0  0  0  0  0  0  0  0
   11.9421   14.0419   22.1950 C   0  0  0  0  0  0  0  0  0  0  0  0
   10.3489   12.3375   22.7634 N   0  0  0  0  0  0  0  0  0  0  0  0
   10.6750   14.1707   24.2038 O   0  0  0  0  0  0  0  0  0  0  0  0
   11.4100   15.6392   21.6461 Cl  0  0  0  0  0  0  0  0  0  0  0  0
    6.7821   12.1082   25.5866 H   0  0  0  0  0  0  0  0  0  0  0  0
    8.5134   13.3650   24.3672 H   0  0  0  0  0  0  0  0  0  0  0  0
    8.2615    8.4272   23.9203 H   0  0  0  0  0  0  0  0  0  0  0  0
    5.4562    9.3350   24.9578 H   0  0  0  0  0  0  0  0  0  0  0  0
    6.7091    8.4166   25.8286 H   0  0  0  0  0  0  0  0  0  0  0  0
    6.0987    9.9229   26.5113 H   0  0  0  0  0  0  0  0  0  0  0  0
    9.8620    9.3856   21.4392 H   0  0  0  0  0  0  0  0  0  0  0  0
   11.2317    9.9740   22.4134 H   0  0  0  0  0  0  0  0  0  0  0  0
   10.4390    8.4605   22.8474 H   0  0  0  0  0  0  0  0  0  0  0  0
   12.0527   13.3889   21.3256 H   0  0  0  0  0  0  0  0  0  0  0  0
   12.9125   14.1389   22.6901 H   0  0  0  0  0  0  0  0  0  0  0  0
   10.6692   11.9602   21.8745 H   0  0  0  0  0  0  0  0  0  0  0  0
  1  2  2  0  0  0  0
  1  4  1  0  0  0  0
  2  6  1  0  0  0  0
  3  4  2  0  0  0  0
  3  5  1  0  0  0  0
  4  8  1  0  0  0  0
  5  6  2  0  0  0  0
  5  9  1  0  0  0  0
  6 11  1  0  0  0  0
  7 10  1  0  0  0  0
  7 11  1  0  0  0  0
  7 12  2  0  0  0  0
 10 13  1  0  0  0  0
  1 14  1  0  0  0  0
  2 15  1  0  0  0  0
  3 16  1  0  0  0  0
  8 17  1  0  0  0  0
  8 18  1  0  0  0  0
  8 19  1  0  0  0  0
  9 20  1  0  0  0  0
  9 21  1  0  0  0  0
  9 22  1  0  0  0  0
 10 23  1  0  0  0  0
 10 24  1  0  0  0  0
 11 25  1  0  0  0  0
M  END
> <Catalog ID>
Z56786856

> <MW>
197.061

> <MW (desalted)>
197.661

> <ClogP>
2.122

> <logS>
-2.97

> <HBD>
1

> <HBA>
1

> <TPSA>
29.1

> <RotBonds>
2

> <ROCS_ShapeQuery>
A71EV2A-x0451_0A_A71EV2A-x0310_0A_A71EV2A-x0416_0A_peptide

> <ROCS_TanimotoCombo>
0.414 

> <ROCS_ShapeTanimoto>
0.274 

> <ROCS_ColorTanimoto>
0.140 

> <ROCS_RefTversky>
0.242 

> <ROCS_RefColorTversky>
0.141 

> <ROCS_RefTverskyCombo>
0.383 

> <ROCS_FitTversky>
1.896 

> <ROCS_FitColorTversky>
0.961 

> <ROCS_FitTverskyCombo>
2.857 

> <ROCS_ColorScore>
-4.262

> <ROCS_Overlap>
1678.602

> <ROCS_Rank>
403                 

$$$$
untitled-dbase-224_13
  -OEChem-11112315393D

 25 25  0     0  0  0  0  0  0999 V2000
    8.0836    9.8058   24.2574 C   0  0  0  0  0  0  0  0  0  0  0  0
    9.1657   10.1705   23.4053 C   0  0  0  0  0  0  0  0  0  0  0  0
    7.5291   10.8988   24.8862 C   0  0  0  0  0  0  0  0  0  0  0  0
    9.3969   11.5286   23.4152 C   0  0  0  0  0  0  0  0  0  0  0  0
   10.8929   13.4973   23.1940 C   0  0  0  0  0  0  0  0  0  0  0  0
    7.6072    8.4128   24.4445 C   0  0  0  0  0  0  0  0  0  0  0  0
    9.9501    9.2025   22.5984 C   0  0  0  0  0  0  0  0  0  0  0  0
    6.3989   10.9478   25.8410 C   0  0  0  0  0  0  0  0  0  0  0  0
   11.8825   14.0682   22.2049 C   0  0  0  0  0  0  0  0  0  0  0  0
   10.3215   12.2901   22.7538 N   0  0  0  0  0  0  0  0  0  0  0  0
   10.6515   14.0938   24.2399 O   0  0  0  0  0  0  0  0  0  0  0  0
    8.3122   12.3575   24.4488 S   0  0  0  0  0  0  0  0  0  0  0  0
   11.3687   13.5780   20.5828 Cl  0  0  0  0  0  0  0  0  0  0  0  0
    8.1385    7.9280   25.2760 H   0  0  0  0  0  0  0  0  0  0  0  0
    6.5289    8.3784   24.6615 H   0  0  0  0  0  0  0  0  0  0  0  0
    7.7622    7.8060   23.5395 H   0  0  0  0  0  0  0  0  0  0  0  0
    9.4992    9.0690   21.6047 H   0  0  0  0  0  0  0  0  0  0  0  0
   10.9891    9.5376   22.4604 H   0  0  0  0  0  0  0  0  0  0  0  0
   10.0025    8.2172   23.0855 H   0  0  0  0  0  0  0  0  0  0  0  0
    6.7551   10.8433   26.8773 H   0  0  0  0  0  0  0  0  0  0  0  0
    5.8420   11.8957   25.7682 H   0  0  0  0  0  0  0  0  0  0  0  0
    5.6677   10.1454   25.6516 H   0  0  0  0  0  0  0  0  0  0  0  0
   12.9025   13.7139   22.3740 H   0  0  0  0  0  0  0  0  0  0  0  0
   11.8723   15.1600   22.2685 H   0  0  0  0  0  0  0  0  0  0  0  0
   10.6323   11.9419   21.8353 H   0  0  0  0  0  0  0  0  0  0  0  0
  1  2  1  0  0  0  0
  1  3  2  0  0  0  0
  1  6  1  0  0  0  0
  2  4  2  0  0  0  0
  2  7  1  0  0  0  0
  3  8  1  0  0  0  0
  3 12  1  0  0  0  0
  4 10  1  0  0  0  0
  4 12  1  0  0  0  0
  5  9  1  0  0  0  0
  5 10  1  0  0  0  0
  5 11  2  0  0  0  0
  9 13  1  0  0  0  0
  6 14  1  0  0  0  0
  6 15  1  0  0  0  0
  6 16  1  0  0  0  0
  7 17  1  0  0  0  0
  7 18  1  0  0  0  0
  7 19  1  0  0  0  0
  8 20  1  0  0  0  0
  8 21  1  0  0  0  0
  8 22  1  0  0  0  0
  9 23  1  0  0  0  0
  9 24  1  0  0  0  0
 10 25  1  0  0  0  0
M  END
> <Catalog ID>
Z1262396062

> <MW>
217.033

> <MW (desalted)>
217.716

> <ClogP>
2.351

> <logS>
-3.4

> <HBD>
1

> <HBA>
1

> <TPSA>
29.1

> <RotBonds>
2

> <ROCS_ShapeQuery>
A71EV2A-x0451_0A_A71EV2A-x0310_0A_A71EV2A-x0416_0A_peptide

> <ROCS_TanimotoCombo>
0.414 

> <ROCS_ShapeTanimoto>
0.270 

> <ROCS_ColorTanimoto>
0.144 

> <ROCS_RefTversky>
0.239 

> <ROCS_RefColorTversky>
0.144 

> <ROCS_RefTverskyCombo>
0.383 

> <ROCS_FitTversky>
1.912 

> <ROCS_FitColorTversky>
0.984 

> <ROCS_FitTverskyCombo>
2.896 

> <ROCS_ColorScore>
-4.363

> <ROCS_Overlap>
1655.663

> <ROCS_Rank>
404                 

$$$$
untitled-dbase-589_25
  -OEChem-11112315393D

 21 21  0     1  0  0  0  0  0999 V2000
    7.8662   10.7544   24.5897 C   0  0  0  0  0  0  0  0  0  0  0  0
   12.6965   14.9436   21.9422 C   0  0  0  0  0  0  0  0  0  0  0  0
   11.4730   14.4160   21.8381 C   0  0  0  0  0  0  0  0  0  0  0  0
   10.8401   13.7463   23.0055 C   0  0  0  0  0  0  0  0  0  0  0  0
    8.5375   12.0361   24.1558 C   0  0  0  0  0  0  0  0  0  0  0  0
    9.6712   10.1522   23.2020 C   0  0  0  0  0  0  0  0  0  0  0  0
    9.9210   11.5571   23.7182 C   0  0  1  0  0  0  0  0  0  0  0  0
    8.5692    9.7033   24.0093 N   0  0  0  0  0  0  0  0  0  0  0  0
   10.5392   12.4130   22.7491 N   0  0  0  0  0  0  0  0  0  0  0  0
    6.8658   10.6807   25.2862 O   0  0  0  0  0  0  0  0  0  0  0  0
   10.6182   14.3304   24.0613 O   0  0  0  0  0  0  0  0  0  0  0  0
   13.1521   15.4297   21.0858 H   0  0  0  0  0  0  0  0  0  0  0  0
   13.2708   14.9106   22.8615 H   0  0  0  0  0  0  0  0  0  0  0  0
   10.9319   14.4710   20.8997 H   0  0  0  0  0  0  0  0  0  0  0  0
    7.9613   12.4641   23.3285 H   0  0  0  0  0  0  0  0  0  0  0  0
    8.5952   12.7462   24.9847 H   0  0  0  0  0  0  0  0  0  0  0  0
    9.3464   10.1292   22.1566 H   0  0  0  0  0  0  0  0  0  0  0  0
   10.5279    9.4870   23.3384 H   0  0  0  0  0  0  0  0  0  0  0  0
   10.5896   11.5160   24.5874 H   0  0  0  0  0  0  0  0  0  0  0  0
    8.3301    8.7258   24.1414 H   0  0  0  0  0  0  0  0  0  0  0  0
   10.7364   12.0283   21.8237 H   0  0  0  0  0  0  0  0  0  0  0  0
  1  5  1  0  0  0  0
  1  8  1  0  0  0  0
  1 10  2  0  0  0  0
  2  3  2  0  0  0  0
  3  4  1  0  0  0  0
  4  9  1  0  0  0  0
  4 11  2  0  0  0  0
  5  7  1  0  0  0  0
  6  7  1  0  0  0  0
  6  8  1  0  0  0  0
  7  9  1  0  0  0  0
  2 12  1  0  0  0  0
  2 13  1  0  0  0  0
  3 14  1  0  0  0  0
  5 15  1  0  0  0  0
  5 16  1  0  0  0  0
  6 17  1  0  0  0  0
  6 18  1  0  0  0  0
  7 19  1  0  0  0  0
  8 20  1  0  0  0  0
  9 21  1  0  0  0  0
M  END
> <Catalog ID>
Z1968090260

> <MW>
154.074

> <MW (desalted)>
154.167

> <ClogP>
-0.662

> <logS>
-0.741

> <HBD>
2

> <HBA>
2

> <TPSA>
58.2

> <RotBonds>
2

> <ROCS_ShapeQuery>
A71EV2A-x0451_0A_A71EV2A-x0310_0A_A71EV2A-x0416_0A_peptide

> <ROCS_TanimotoCombo>
0.414 

> <ROCS_ShapeTanimoto>
0.244 

> <ROCS_ColorTanimoto>
0.169 

> <ROCS_RefTversky>
0.219 

> <ROCS_RefColorTversky>
0.179 

> <ROCS_RefTverskyCombo>
0.399 

> <ROCS_FitTversky>
1.875 

> <ROCS_FitColorTversky>
0.749 

> <ROCS_FitTverskyCombo>
2.624 

> <ROCS_ColorScore>
-5.458

> <ROCS_Overlap>
1517.758

> <ROCS_Rank>
405                 

$$$$
untitled-dbase-545_2
  -OEChem-11112315393D

 34 35  0     0  0  0  0  0  0999 V2000
    7.4873   11.5755   24.9448 C   0  0  0  0  0  0  0  0  0  0  0  0
    8.4680   12.2869   24.2537 C   0  0  0  0  0  0  0  0  0  0  0  0
    8.3266    9.5113   24.0110 C   0  0  0  0  0  0  0  0  0  0  0  0
    9.3072   10.2228   23.3198 C   0  0  0  0  0  0  0  0  0  0  0  0
    7.4166   10.1877   24.8236 C   0  0  0  0  0  0  0  0  0  0  0  0
    9.3779   11.6106   23.4411 C   0  0  0  0  0  0  0  0  0  0  0  0
   10.9248   13.5346   23.1803 C   0  0  0  0  0  0  0  0  0  0  0  0
    4.8049    8.8832   27.1451 C   0  0  0  0  0  0  0  0  0  0  0  0
    4.8944    7.7671   26.1242 C   0  0  0  0  0  0  0  0  0  0  0  0
    5.4172   10.0667   26.4046 C   0  0  0  0  0  0  0  0  0  0  0  0
    6.2517    8.0129   25.4752 C   0  0  0  0  0  0  0  0  0  0  0  0
   10.2698    9.4722   22.4577 C   0  0  0  0  0  0  0  0  0  0  0  0
   11.9476   14.0456   22.1923 C   0  0  0  0  0  0  0  0  0  0  0  0
    6.4271    9.4697   25.5218 N   0  0  0  0  0  0  0  0  0  0  0  0
   10.3539   12.3406   22.7582 N   0  0  0  0  0  0  0  0  0  0  0  0
   10.6764   14.1746   24.1985 O   0  0  0  0  0  0  0  0  0  0  0  0
   11.4160   15.6424   21.6417 Cl  0  0  0  0  0  0  0  0  0  0  0  0
    6.7834   12.1119   25.5760 H   0  0  0  0  0  0  0  0  0  0  0  0
    8.5137   13.3682   24.3569 H   0  0  0  0  0  0  0  0  0  0  0  0
    8.2721    8.4289   23.9160 H   0  0  0  0  0  0  0  0  0  0  0  0
    3.7765    9.0776   27.4621 H   0  0  0  0  0  0  0  0  0  0  0  0
    5.4020    8.6389   28.0316 H   0  0  0  0  0  0  0  0  0  0  0  0
    4.8255    6.7766   26.5824 H   0  0  0  0  0  0  0  0  0  0  0  0
    4.0939    7.8633   25.3813 H   0  0  0  0  0  0  0  0  0  0  0  0
    4.6623   10.5840   25.8019 H   0  0  0  0  0  0  0  0  0  0  0  0
    5.8621   10.7811   27.1054 H   0  0  0  0  0  0  0  0  0  0  0  0
    7.0514    7.5287   26.0472 H   0  0  0  0  0  0  0  0  0  0  0  0
    6.2712    7.6338   24.4481 H   0  0  0  0  0  0  0  0  0  0  0  0
    9.8763    9.3832   21.4388 H   0  0  0  0  0  0  0  0  0  0  0  0
   11.2412    9.9794   22.4151 H   0  0  0  0  0  0  0  0  0  0  0  0
   10.4518    8.4651   22.8522 H   0  0  0  0  0  0  0  0  0  0  0  0
   12.0602   13.3922   21.3234 H   0  0  0  0  0  0  0  0  0  0  0  0
   12.9169   14.1431   22.6893 H   0  0  0  0  0  0  0  0  0  0  0  0
   10.6762   11.9631   21.8701 H   0  0  0  0  0  0  0  0  0  0  0  0
  1  2  2  0  0  0  0
  1  5  1  0  0  0  0
  2  6  1  0  0  0  0
  3  4  1  0  0  0  0
  3  5  2  0  0  0  0
  4  6  2  0  0  0  0
  4 12  1  0  0  0  0
  5 14  1  0  0  0  0
  6 15  1  0  0  0  0
  7 13  1  0  0  0  0
  7 15  1  0  0  0  0
  7 16  2  0  0  0  0
  8  9  1  0  0  0  0
  8 10  1  0  0  0  0
  9 11  1  0  0  0  0
 10 14  1  0  0  0  0
 11 14  1  0  0  0  0
 13 17  1  0  0  0  0
  1 18  1  0  0  0  0
  2 19  1  0  0  0  0
  3 20  1  0  0  0  0
  8 21  1  0  0  0  0
  8 22  1  0  0  0  0
  9 23  1  0  0  0  0
  9 24  1  0  0  0  0
 10 25  1  0  0  0  0
 10 26  1  0  0  0  0
 11 27  1  0  0  0  0
 11 28  1  0  0  0  0
 12 29  1  0  0  0  0
 12 30  1  0  0  0  0
 12 31  1  0  0  0  0
 13 32  1  0  0  0  0
 13 33  1  0  0  0  0
 15 34  1  0  0  0  0
M  END
> <Catalog ID>
Z147651718

> <MW>
252.103

> <MW (desalted)>
252.74

> <ClogP>
1.902

> <logS>
-3.02

> <HBD>
1

> <HBA>
2

> <TPSA>
32.34

> <RotBonds>
3

> <ROCS_ShapeQuery>
A71EV2A-x0451_0A_A71EV2A-x0310_0A_A71EV2A-x0416_0A_peptide

> <ROCS_TanimotoCombo>
0.414 

> <ROCS_ShapeTanimoto>
0.278 

> <ROCS_ColorTanimoto>
0.136 

> <ROCS_RefTversky>
0.251 

> <ROCS_RefColorTversky>
0.141 

> <ROCS_RefTverskyCombo>
0.392 

> <ROCS_FitTversky>
1.635 

> <ROCS_FitColorTversky>
0.791 

> <ROCS_FitTverskyCombo>
2.426 

> <ROCS_ColorScore>
-4.262

> <ROCS_Overlap>
1739.912

> <ROCS_Rank>
406                 

$$$$
untitled-dbase-186_249
  -OEChem-11112315393D

 40 41  0     0  0  0  0  0  0999 V2000
    7.4538   11.4067   24.7001 C   0  0  0  0  0  0  0  0  0  0  0  0
    8.5266   12.2810   24.5259 C   0  0  0  0  0  0  0  0  0  0  0  0
    8.6717    9.6790   23.5301 C   0  0  0  0  0  0  0  0  0  0  0  0
    7.5264   10.1057   24.2022 C   0  0  0  0  0  0  0  0  0  0  0  0
    9.7445   10.5533   23.3558 C   0  0  0  0  0  0  0  0  0  0  0  0
    9.6719   11.8543   23.8538 C   0  0  0  0  0  0  0  0  0  0  0  0
   13.3219   15.8746   19.7577 C   0  0  0  0  0  0  0  0  0  0  0  0
   13.2576   13.8973   21.2441 C   0  0  0  0  0  0  0  0  0  0  0  0
   11.4103   15.5315   21.4005 C   0  0  0  0  0  0  0  0  0  0  0  0
   12.2487   12.7557   21.2262 C   0  0  0  0  0  0  0  0  0  0  0  0
   10.4010   14.3884   21.3868 C   0  0  0  0  0  0  0  0  0  0  0  0
    6.3788    9.1712   24.3887 C   0  0  0  0  0  0  0  0  0  0  0  0
   10.9566   10.0650   22.6322 C   0  0  0  0  0  0  0  0  0  0  0  0
   12.4574   16.6604   18.8043 C   0  0  0  0  0  0  0  0  0  0  0  0
   12.6591   15.1345   20.7361 N   0  0  0  0  0  0  0  0  0  0  0  0
   11.0082   13.1501   21.9525 N   0  0  0  0  0  0  0  0  0  0  0  0
   14.5486   15.9160   19.6335 O   0  0  0  0  0  0  0  0  0  0  0  0
   10.6200   14.2458   24.2474 O   0  0  0  0  0  0  0  0  0  0  0  0
   12.2275   12.3153   24.0562 O   0  0  0  0  0  0  0  0  0  0  0  0
   11.0111   12.9865   23.6518 S   0  0  0  0  0  0  0  0  0  0  0  0
   11.4545   15.4910   17.9530 Cl  0  0  0  0  0  0  0  0  0  0  0  0
    6.5653   11.7476   25.2249 H   0  0  0  0  0  0  0  0  0  0  0  0
    8.4580   13.2921   24.9183 H   0  0  0  0  0  0  0  0  0  0  0  0
    8.7261    8.6642   23.1428 H   0  0  0  0  0  0  0  0  0  0  0  0
   13.5846   14.1022   22.2724 H   0  0  0  0  0  0  0  0  0  0  0  0
   14.1451   13.6068   20.6760 H   0  0  0  0  0  0  0  0  0  0  0  0
   10.9793   16.4156   20.9223 H   0  0  0  0  0  0  0  0  0  0  0  0
   11.6698   15.8038   22.4300 H   0  0  0  0  0  0  0  0  0  0  0  0
   12.0008   12.4731   20.1920 H   0  0  0  0  0  0  0  0  0  0  0  0
   12.6937   11.8795   21.7189 H   0  0  0  0  0  0  0  0  0  0  0  0
    9.5300   14.6763   21.9944 H   0  0  0  0  0  0  0  0  0  0  0  0
   10.0473   14.1954   20.3619 H   0  0  0  0  0  0  0  0  0  0  0  0
    5.6813    9.2503   23.5460 H   0  0  0  0  0  0  0  0  0  0  0  0
    6.7203    8.1306   24.4614 H   0  0  0  0  0  0  0  0  0  0  0  0
    5.8323    9.3916   25.3149 H   0  0  0  0  0  0  0  0  0  0  0  0
   10.8610   10.2587   21.5577 H   0  0  0  0  0  0  0  0  0  0  0  0
   11.8634   10.5621   22.9980 H   0  0  0  0  0  0  0  0  0  0  0  0
   11.1002    8.9878   22.7822 H   0  0  0  0  0  0  0  0  0  0  0  0
   13.0954   17.1847   18.1020 H   0  0  0  0  0  0  0  0  0  0  0  0
   11.8345   17.3405   19.3739 H   0  0  0  0  0  0  0  0  0  0  0  0
  1  2  2  0  0  0  0
  1  4  1  0  0  0  0
  2  6  1  0  0  0  0
  3  4  2  0  0  0  0
  3  5  1  0  0  0  0
  4 12  1  0  0  0  0
  5  6  2  0  0  0  0
  5 13  1  0  0  0  0
  6 20  1  0  0  0  0
  7 14  1  0  0  0  0
  7 15  1  0  0  0  0
  7 17  2  0  0  0  0
  8 10  1  0  0  0  0
  8 15  1  0  0  0  0
  9 11  1  0  0  0  0
  9 15  1  0  0  0  0
 10 16  1  0  0  0  0
 11 16  1  0  0  0  0
 14 21  1  0  0  0  0
 16 20  1  0  0  0  0
 18 20  2  0  0  0  0
 19 20  2  0  0  0  0
  1 22  1  0  0  0  0
  2 23  1  0  0  0  0
  3 24  1  0  0  0  0
  8 25  1  0  0  0  0
  8 26  1  0  0  0  0
  9 27  1  0  0  0  0
  9 28  1  0  0  0  0
 10 29  1  0  0  0  0
 10 30  1  0  0  0  0
 11 31  1  0  0  0  0
 11 32  1  0  0  0  0
 12 33  1  0  0  0  0
 12 34  1  0  0  0  0
 12 35  1  0  0  0  0
 13 36  1  0  0  0  0
 13 37  1  0  0  0  0
 13 38  1  0  0  0  0
 14 39  1  0  0  0  0
 14 40  1  0  0  0  0
M  END
> <Catalog ID>
Z56949588

> <MW>
330.08

> <MW (desalted)>
330.83

> <ClogP>
2.475

> <logS>
-3.55

> <HBD>
0

> <HBA>
3

> <TPSA>
57.69

> <RotBonds>
2

> <ROCS_ShapeQuery>
A71EV2A-x0451_0A_A71EV2A-x0310_0A_A71EV2A-x0416_0A_peptide

> <ROCS_TanimotoCombo>
0.414 

> <ROCS_ShapeTanimoto>
0.312 

> <ROCS_ColorTanimoto>
0.101 

> <ROCS_RefTversky>
0.280 

> <ROCS_RefColorTversky>
0.111 

> <ROCS_RefTverskyCombo>
0.391 

> <ROCS_FitTversky>
1.604 

> <ROCS_FitColorTversky>
0.532 

> <ROCS_FitTverskyCombo>
2.136 

> <ROCS_ColorScore>
-3.372

> <ROCS_Overlap>
1939.951

> <ROCS_Rank>
407                 

$$$$
untitled-dbase-327_2
  -OEChem-11112315393D

 24 25  0     0  0  0  0  0  0999 V2000
    6.3111   11.0886   25.9797 C   0  0  0  0  0  0  0  0  0  0  0  0
    6.8310   12.3852   26.1023 C   0  0  0  0  0  0  0  0  0  0  0  0
    6.8957   10.1717   25.1054 C   0  0  0  0  0  0  0  0  0  0  0  0
    7.9422   12.7842   25.3536 C   0  0  0  0  0  0  0  0  0  0  0  0
    7.9974   10.5748   24.3669 C   0  0  0  0  0  0  0  0  0  0  0  0
    8.5159   11.8652   24.4880 C   0  0  0  0  0  0  0  0  0  0  0  0
   10.6600   14.4220   21.4353 C   0  0  0  0  0  0  0  0  0  0  0  0
   10.9806   13.3414   22.1501 C   0  0  0  0  0  0  0  0  0  0  0  0
   10.3769   13.1662   23.4941 C   0  0  0  0  0  0  0  0  0  0  0  0
    8.7675    9.7626   23.3767 C   0  0  0  0  0  0  0  0  0  0  0  0
    9.8521   10.7470   22.9228 C   0  0  0  0  0  0  0  0  0  0  0  0
    9.6262   12.0192   23.6370 N   0  0  0  0  0  0  0  0  0  0  0  0
   10.6178   14.0521   24.3006 O   0  0  0  0  0  0  0  0  0  0  0  0
    5.4467   10.7973   26.5700 H   0  0  0  0  0  0  0  0  0  0  0  0
    6.3637   13.0872   26.7879 H   0  0  0  0  0  0  0  0  0  0  0  0
    6.4931    9.1690   25.0095 H   0  0  0  0  0  0  0  0  0  0  0  0
    8.3158   13.7930   25.4751 H   0  0  0  0  0  0  0  0  0  0  0  0
   11.0685   14.6051   20.4471 H   0  0  0  0  0  0  0  0  0  0  0  0
    9.9687   15.1550   21.8374 H   0  0  0  0  0  0  0  0  0  0  0  0
   11.6657   12.5883   21.7832 H   0  0  0  0  0  0  0  0  0  0  0  0
    9.2073    8.8801   23.8511 H   0  0  0  0  0  0  0  0  0  0  0  0
    8.1300    9.4630   22.5392 H   0  0  0  0  0  0  0  0  0  0  0  0
   10.8536   10.3736   23.1651 H   0  0  0  0  0  0  0  0  0  0  0  0
    9.8009   10.9247   21.8426 H   0  0  0  0  0  0  0  0  0  0  0  0
  1  2  1  0  0  0  0
  1  3  2  0  0  0  0
  2  4  2  0  0  0  0
  3  5  1  0  0  0  0
  4  6  1  0  0  0  0
  5  6  2  0  0  0  0
  5 10  1  0  0  0  0
  6 12  1  0  0  0  0
  7  8  2  0  0  0  0
  8  9  1  0  0  0  0
  9 12  1  0  0  0  0
  9 13  2  0  0  0  0
 10 11  1  0  0  0  0
 11 12  1  0  0  0  0
  1 14  1  0  0  0  0
  2 15  1  0  0  0  0
  3 16  1  0  0  0  0
  4 17  1  0  0  0  0
  7 18  1  0  0  0  0
  7 19  1  0  0  0  0
  8 20  1  0  0  0  0
 10 21  1  0  0  0  0
 10 22  1  0  0  0  0
 11 23  1  0  0  0  0
 11 24  1  0  0  0  0
M  END
> <Catalog ID>
Z440633700

> <MW>
173.084

> <MW (desalted)>
173.211

> <ClogP>
2.527

> <logS>
-2.641

> <HBD>
0

> <HBA>
1

> <TPSA>
20.31

> <RotBonds>
1

> <ROCS_ShapeQuery>
A71EV2A-x0451_0A_A71EV2A-x0310_0A_A71EV2A-x0416_0A_peptide

> <ROCS_TanimotoCombo>
0.413 

> <ROCS_ShapeTanimoto>
0.275 

> <ROCS_ColorTanimoto>
0.139 

> <ROCS_RefTversky>
0.244 

> <ROCS_RefColorTversky>
0.144 

> <ROCS_RefTverskyCombo>
0.388 

> <ROCS_FitTversky>
1.838 

> <ROCS_FitColorTversky>
0.806 

> <ROCS_FitTverskyCombo>
2.644 

> <ROCS_ColorScore>
-4.353

> <ROCS_Overlap>
1690.012

> <ROCS_Rank>
408                 

$$$$
untitled-dbase-254_1196
  -OEChem-11112315393D

 33 34  0     0  0  0  0  0  0999 V2000
    5.2665   10.6587   26.1275 C   0  0  0  0  0  0  0  0  0  0  0  0
    6.0159    9.5169   25.7562 C   0  0  0  0  0  0  0  0  0  0  0  0
    6.0173   11.7477   25.7503 C   0  0  0  0  0  0  0  0  0  0  0  0
    7.1712    9.9896   25.1784 C   0  0  0  0  0  0  0  0  0  0  0  0
    8.3207    9.2974   24.6072 C   0  0  0  0  0  0  0  0  0  0  0  0
   11.0056   14.2051   23.3221 C   0  0  0  0  0  0  0  0  0  0  0  0
   11.1153   11.1659   23.2002 C   0  0  0  0  0  0  0  0  0  0  0  0
    8.8998   12.1655   22.5173 C   0  0  0  0  0  0  0  0  0  0  0  0
   10.4421    9.7978   23.2662 C   0  0  0  0  0  0  0  0  0  0  0  0
    8.2744   10.7754   22.6103 C   0  0  0  0  0  0  0  0  0  0  0  0
   10.3979   12.0840   22.2032 C   0  0  0  0  0  0  0  0  0  0  0  0
   11.6937   15.5256   23.0877 C   0  0  0  0  0  0  0  0  0  0  0  0
    9.0098    9.9412   23.5631 N   0  0  0  0  0  0  0  0  0  0  0  0
   10.9892   13.3994   22.1981 N   0  0  0  0  0  0  0  0  0  0  0  0
    8.6542    8.1921   25.0380 O   0  0  0  0  0  0  0  0  0  0  0  0
   10.5346   13.9045   24.4176 O   0  0  0  0  0  0  0  0  0  0  0  0
    7.1797   11.3485   25.1709 O   0  0  0  0  0  0  0  0  0  0  0  0
   12.9381   15.2794   21.8525 Cl  0  0  0  0  0  0  0  0  0  0  0  0
    4.3003   10.6846   26.6104 H   0  0  0  0  0  0  0  0  0  0  0  0
    5.7442    8.4801   25.8947 H   0  0  0  0  0  0  0  0  0  0  0  0
    5.8730   12.8159   25.8209 H   0  0  0  0  0  0  0  0  0  0  0  0
   11.1389   11.6209   24.1929 H   0  0  0  0  0  0  0  0  0  0  0  0
   12.1543   11.0380   22.8835 H   0  0  0  0  0  0  0  0  0  0  0  0
    8.4021   12.7242   21.7201 H   0  0  0  0  0  0  0  0  0  0  0  0
    8.7297   12.7156   23.4448 H   0  0  0  0  0  0  0  0  0  0  0  0
   10.6080    9.2671   22.3254 H   0  0  0  0  0  0  0  0  0  0  0  0
   10.8803    9.1845   24.0625 H   0  0  0  0  0  0  0  0  0  0  0  0
    7.2375   10.8377   22.9598 H   0  0  0  0  0  0  0  0  0  0  0  0
    8.2572   10.3114   21.6195 H   0  0  0  0  0  0  0  0  0  0  0  0
   10.5333   11.6919   21.1889 H   0  0  0  0  0  0  0  0  0  0  0  0
   11.0064   16.3019   22.7424 H   0  0  0  0  0  0  0  0  0  0  0  0
   12.1698   15.8568   24.0146 H   0  0  0  0  0  0  0  0  0  0  0  0
   11.4072   13.7453   21.3413 H   0  0  0  0  0  0  0  0  0  0  0  0
  1  2  1  0  0  0  0
  1  3  2  0  0  0  0
  2  4  2  0  0  0  0
  3 17  1  0  0  0  0
  4  5  1  0  0  0  0
  4 17  1  0  0  0  0
  5 13  1  0  0  0  0
  5 15  2  0  0  0  0
  6 12  1  0  0  0  0
  6 14  1  0  0  0  0
  6 16  2  0  0  0  0
  7  9  1  0  0  0  0
  7 11  1  0  0  0  0
  8 10  1  0  0  0  0
  8 11  1  0  0  0  0
  9 13  1  0  0  0  0
 10 13  1  0  0  0  0
 11 14  1  0  0  0  0
 12 18  1  0  0  0  0
  1 19  1  0  0  0  0
  2 20  1  0  0  0  0
  3 21  1  0  0  0  0
  7 22  1  0  0  0  0
  7 23  1  0  0  0  0
  8 24  1  0  0  0  0
  8 25  1  0  0  0  0
  9 26  1  0  0  0  0
  9 27  1  0  0  0  0
 10 28  1  0  0  0  0
 10 29  1  0  0  0  0
 11 30  1  0  0  0  0
 12 31  1  0  0  0  0
 12 32  1  0  0  0  0
 14 33  1  0  0  0  0
M  END
> <Catalog ID>
Z258588742

> <MW>
270.077

> <MW (desalted)>
270.712

> <ClogP>
-0.812

> <logS>
-2.73

> <HBD>
1

> <HBA>
2

> <TPSA>
62.55

> <RotBonds>
3

> <ROCS_ShapeQuery>
A71EV2A-x0451_0A_A71EV2A-x0310_0A_A71EV2A-x0416_0A_peptide

> <ROCS_TanimotoCombo>
0.413 

> <ROCS_ShapeTanimoto>
0.289 

> <ROCS_ColorTanimoto>
0.124 

> <ROCS_RefTversky>
0.260 

> <ROCS_RefColorTversky>
0.137 

> <ROCS_RefTverskyCombo>
0.397 

> <ROCS_FitTversky>
1.624 

> <ROCS_FitColorTversky>
0.571 

> <ROCS_FitTverskyCombo>
2.195 

> <ROCS_ColorScore>
-4.162

> <ROCS_Overlap>
1804.425

> <ROCS_Rank>
409                 

$$$$
untitled-dbase-497_18
  -OEChem-11112315393D

 25 25  0     0  0  0  0  0  0999 V2000
    7.9332    9.6227   24.3408 C   0  0  0  0  0  0  0  0  0  0  0  0
    8.9229   10.2493   23.5835 C   0  0  0  0  0  0  0  0  0  0  0  0
    7.1099   10.3790   25.1751 C   0  0  0  0  0  0  0  0  0  0  0  0
    8.2660   12.3883   24.4947 C   0  0  0  0  0  0  0  0  0  0  0  0
    9.0894   11.6320   23.6604 C   0  0  0  0  0  0  0  0  0  0  0  0
    7.2763   11.7617   25.2520 C   0  0  0  0  0  0  0  0  0  0  0  0
   10.7604   13.4207   23.2471 C   0  0  0  0  0  0  0  0  0  0  0  0
    7.1063   12.7402   27.8534 C   0  0  0  0  0  0  0  0  0  0  0  0
   11.7659   13.8155   22.1903 C   0  0  0  0  0  0  0  0  0  0  0  0
   10.0790   12.2588   22.9028 N   0  0  0  0  0  0  0  0  0  0  0  0
   10.6141   14.1144   24.2498 O   0  0  0  0  0  0  0  0  0  0  0  0
    6.2084   14.0676   25.7782 O   0  0  0  0  0  0  0  0  0  0  0  0
    5.0018   11.9827   26.5151 O   0  0  0  0  0  0  0  0  0  0  0  0
    6.2462   12.7077   26.2969 S   0  0  0  0  0  0  0  0  0  0  0  0
   13.3030   13.0314   22.5877 Cl  0  0  0  0  0  0  0  0  0  0  0  0
    7.8030    8.5462   24.2808 H   0  0  0  0  0  0  0  0  0  0  0  0
    9.5581    9.6497   22.9364 H   0  0  0  0  0  0  0  0  0  0  0  0
    6.3422    9.8809   25.7612 H   0  0  0  0  0  0  0  0  0  0  0  0
    8.3951   13.4667   24.5551 H   0  0  0  0  0  0  0  0  0  0  0  0
    6.5138   13.3208   28.5622 H   0  0  0  0  0  0  0  0  0  0  0  0
    7.2235   11.7136   28.2036 H   0  0  0  0  0  0  0  0  0  0  0  0
    8.0810   13.2053   27.6985 H   0  0  0  0  0  0  0  0  0  0  0  0
   11.9238   14.8957   22.1387 H   0  0  0  0  0  0  0  0  0  0  0  0
   11.4256   13.4608   21.2133 H   0  0  0  0  0  0  0  0  0  0  0  0
   10.3252   11.8249   22.0150 H   0  0  0  0  0  0  0  0  0  0  0  0
  1  2  1  0  0  0  0
  1  3  2  0  0  0  0
  2  5  2  0  0  0  0
  3  6  1  0  0  0  0
  4  5  1  0  0  0  0
  4  6  2  0  0  0  0
  5 10  1  0  0  0  0
  6 14  1  0  0  0  0
  7  9  1  0  0  0  0
  7 10  1  0  0  0  0
  7 11  2  0  0  0  0
  8 14  1  0  0  0  0
  9 15  1  0  0  0  0
 12 14  2  0  0  0  0
 13 14  2  0  0  0  0
  1 16  1  0  0  0  0
  2 17  1  0  0  0  0
  3 18  1  0  0  0  0
  4 19  1  0  0  0  0
  8 20  1  0  0  0  0
  8 21  1  0  0  0  0
  8 22  1  0  0  0  0
  9 23  1  0  0  0  0
  9 24  1  0  0  0  0
 10 25  1  0  0  0  0
M  END
> <Catalog ID>
Z147652036

> <MW>
247.007

> <MW (desalted)>
247.699

> <ClogP>
0.777

> <logS>
-2.03

> <HBD>
1

> <HBA>
3

> <TPSA>
63.24

> <RotBonds>
3

> <ROCS_ShapeQuery>
A71EV2A-x0451_0A_A71EV2A-x0310_0A_A71EV2A-x0416_0A_peptide

> <ROCS_TanimotoCombo>
0.413 

> <ROCS_ShapeTanimoto>
0.275 

> <ROCS_ColorTanimoto>
0.138 

> <ROCS_RefTversky>
0.245 

> <ROCS_RefColorTversky>
0.147 

> <ROCS_RefTverskyCombo>
0.392 

> <ROCS_FitTversky>
1.785 

> <ROCS_FitColorTversky>
0.703 

> <ROCS_FitTverskyCombo>
2.488 

> <ROCS_ColorScore>
-4.457

> <ROCS_Overlap>
1698.943

> <ROCS_Rank>
410                 

$$$$
untitled-dbase-880_103
  -OEChem-11112315393D

 40 42  0     0  0  0  0  0  0999 V2000
    6.1670   11.1268   26.0523 C   0  0  0  0  0  0  0  0  0  0  0  0
    6.6848   12.4080   26.2168 C   0  0  0  0  0  0  0  0  0  0  0  0
    9.6672   10.1266   22.8243 C   0  0  0  0  0  0  0  0  0  0  0  0
    6.7759   10.2354   25.1684 C   0  0  0  0  0  0  0  0  0  0  0  0
    7.8135   12.8029   25.4982 C   0  0  0  0  0  0  0  0  0  0  0  0
    8.5385    9.7318   23.5430 C   0  0  0  0  0  0  0  0  0  0  0  0
   10.1850   11.4079   22.9888 C   0  0  0  0  0  0  0  0  0  0  0  0
    7.9127   10.6159   24.4369 C   0  0  0  0  0  0  0  0  0  0  0  0
    8.4393   11.9189   24.6042 C   0  0  0  0  0  0  0  0  0  0  0  0
    9.5761   12.2993   23.8726 C   0  0  0  0  0  0  0  0  0  0  0  0
   12.8574   16.6587   20.1810 C   0  0  0  0  0  0  0  0  0  0  0  0
   11.3850   14.6220   20.5550 C   0  0  0  0  0  0  0  0  0  0  0  0
   13.0898   15.2667   22.2109 C   0  0  0  0  0  0  0  0  0  0  0  0
   10.4100   14.3533   21.7028 C   0  0  0  0  0  0  0  0  0  0  0  0
   12.0812   14.9919   23.3257 C   0  0  0  0  0  0  0  0  0  0  0  0
   10.1859   13.6652   24.0021 C   0  0  0  0  0  0  0  0  0  0  0  0
   12.7933   16.4851   18.6845 C   0  0  0  0  0  0  0  0  0  0  0  0
   12.4166   15.5846   20.9526 N   0  0  0  0  0  0  0  0  0  0  0  0
   11.1281   13.9485   22.9202 N   0  0  0  0  0  0  0  0  0  0  0  0
   13.2826   17.7182   20.6483 O   0  0  0  0  0  0  0  0  0  0  0  0
   14.4350   16.6870   18.0832 Cl  0  0  0  0  0  0  0  0  0  0  0  0
    5.2882   10.8201   26.6120 H   0  0  0  0  0  0  0  0  0  0  0  0
    6.2100   13.1013   26.9051 H   0  0  0  0  0  0  0  0  0  0  0  0
   10.1416    9.4332   22.1360 H   0  0  0  0  0  0  0  0  0  0  0  0
    6.3540    9.2389   25.0558 H   0  0  0  0  0  0  0  0  0  0  0  0
    8.1879   13.8119   25.6542 H   0  0  0  0  0  0  0  0  0  0  0  0
    8.1510    8.7254   23.3985 H   0  0  0  0  0  0  0  0  0  0  0  0
   11.0649   11.7037   22.4232 H   0  0  0  0  0  0  0  0  0  0  0  0
   11.9030   13.6985   20.2682 H   0  0  0  0  0  0  0  0  0  0  0  0
   10.8261   14.9638   19.6816 H   0  0  0  0  0  0  0  0  0  0  0  0
   13.7580   16.0811   22.5095 H   0  0  0  0  0  0  0  0  0  0  0  0
   13.7139   14.3829   22.0295 H   0  0  0  0  0  0  0  0  0  0  0  0
    9.8006   15.2487   21.8847 H   0  0  0  0  0  0  0  0  0  0  0  0
    9.7284   13.5521   21.3925 H   0  0  0  0  0  0  0  0  0  0  0  0
   12.6340   14.6627   24.2140 H   0  0  0  0  0  0  0  0  0  0  0  0
   11.5601   15.9216   23.5905 H   0  0  0  0  0  0  0  0  0  0  0  0
    9.4096   14.4379   23.9843 H   0  0  0  0  0  0  0  0  0  0  0  0
   10.7244   13.7668   24.9502 H   0  0  0  0  0  0  0  0  0  0  0  0
   12.1480   17.2507   18.2692 H   0  0  0  0  0  0  0  0  0  0  0  0
   12.4352   15.4865   18.4617 H   0  0  0  0  0  0  0  0  0  0  0  0
  1  2  1  0  0  0  0
  1  4  2  0  0  0  0
  2  5  2  0  0  0  0
  3  6  1  0  0  0  0
  3  7  2  0  0  0  0
  4  8  1  0  0  0  0
  5  9  1  0  0  0  0
  6  8  2  0  0  0  0
  7 10  1  0  0  0  0
  8  9  1  0  0  0  0
  9 10  2  0  0  0  0
 10 16  1  0  0  0  0
 11 17  1  0  0  0  0
 11 18  1  0  0  0  0
 11 20  2  0  0  0  0
 12 14  1  0  0  0  0
 12 18  1  0  0  0  0
 13 15  1  0  0  0  0
 13 18  1  0  0  0  0
 14 19  1  0  0  0  0
 15 19  1  0  0  0  0
 16 19  1  0  0  0  0
 17 21  1  0  0  0  0
  1 22  1  0  0  0  0
  2 23  1  0  0  0  0
  3 24  1  0  0  0  0
  4 25  1  0  0  0  0
  5 26  1  0  0  0  0
  6 27  1  0  0  0  0
  7 28  1  0  0  0  0
 12 29  1  0  0  0  0
 12 30  1  0  0  0  0
 13 31  1  0  0  0  0
 13 32  1  0  0  0  0
 14 33  1  0  0  0  0
 14 34  1  0  0  0  0
 15 35  1  0  0  0  0
 15 36  1  0  0  0  0
 16 37  1  0  0  0  0
 16 38  1  0  0  0  0
 17 39  1  0  0  0  0
 17 40  1  0  0  0  0
M  END
> <Catalog ID>
Z199538122

> <MW>
338.095

> <MW (desalted)>
302.799

> <ClogP>
3.257

> <logS>
-4.53

> <HBD>
0

> <HBA>
2

> <TPSA>
23.55

> <RotBonds>
3

> <ROCS_ShapeQuery>
A71EV2A-x0451_0A_A71EV2A-x0310_0A_A71EV2A-x0416_0A_peptide

> <ROCS_TanimotoCombo>
0.413 

> <ROCS_ShapeTanimoto>
0.341 

> <ROCS_ColorTanimoto>
0.072 

> <ROCS_RefTversky>
0.300 

> <ROCS_RefColorTversky>
0.081 

> <ROCS_RefTverskyCombo>
0.381 

> <ROCS_FitTversky>
1.667 

> <ROCS_FitColorTversky>
0.388 

> <ROCS_FitTverskyCombo>
2.055 

> <ROCS_ColorScore>
-2.458

> <ROCS_Overlap>
2084.231

> <ROCS_Rank>
411                 

$$$$
untitled-dbase-807_93
  -OEChem-11112315393D

 42 43  0     0  0  0  0  0  0999 V2000
    9.6551   16.6598   20.6831 C   0  0  0  0  0  0  0  0  0  0  0  0
   10.1252   15.4100   20.7401 C   0  0  0  0  0  0  0  0  0  0  0  0
   10.7013   14.8794   22.0045 C   0  0  0  0  0  0  0  0  0  0  0  0
   10.6609   12.8003   24.0335 C   0  0  0  0  0  0  0  0  0  0  0  0
   13.6044   11.3295   22.6100 C   0  0  0  0  0  0  0  0  0  0  0  0
   13.9683   12.3215   23.7003 C   0  0  0  0  0  0  0  0  0  0  0  0
   12.0808   11.3982   22.5510 C   0  0  0  0  0  0  0  0  0  0  0  0
   13.0237   13.4872   23.4355 C   0  0  0  0  0  0  0  0  0  0  0  0
    9.3626   11.0076   22.7891 C   0  0  0  0  0  0  0  0  0  0  0  0
    9.3153   11.1273   25.2553 C   0  0  0  0  0  0  0  0  0  0  0  0
    7.8626   10.7022   22.8053 C   0  0  0  0  0  0  0  0  0  0  0  0
    7.8168   10.8242   25.2167 C   0  0  0  0  0  0  0  0  0  0  0  0
   11.7292   12.8315   22.9585 C   0  0  0  0  0  0  0  0  0  0  0  0
    7.8015    8.6537   24.1164 C   0  0  0  0  0  0  0  0  0  0  0  0
    9.7739   11.7239   24.0010 N   0  0  0  0  0  0  0  0  0  0  0  0
    7.3958   10.0548   24.0384 N   0  0  0  0  0  0  0  0  0  0  0  0
   11.1359   13.5679   21.8706 N   0  0  0  0  0  0  0  0  0  0  0  0
   10.7679   15.5477   23.0312 O   0  0  0  0  0  0  0  0  0  0  0  0
   10.6189   13.7069   24.8691 O   0  0  0  0  0  0  0  0  0  0  0  0
    9.2373   17.0402   19.7568 H   0  0  0  0  0  0  0  0  0  0  0  0
    9.6696   17.3291   21.5362 H   0  0  0  0  0  0  0  0  0  0  0  0
   10.0915   14.7726   19.8632 H   0  0  0  0  0  0  0  0  0  0  0  0
   14.0321   11.6472   21.6515 H   0  0  0  0  0  0  0  0  0  0  0  0
   13.9651   10.3198   22.8261 H   0  0  0  0  0  0  0  0  0  0  0  0
   13.7721   11.8903   24.6890 H   0  0  0  0  0  0  0  0  0  0  0  0
   15.0194   12.6207   23.6579 H   0  0  0  0  0  0  0  0  0  0  0  0
   11.7256   11.1369   21.5476 H   0  0  0  0  0  0  0  0  0  0  0  0
   11.6500   10.6630   23.2427 H   0  0  0  0  0  0  0  0  0  0  0  0
   12.9070   14.1179   24.3229 H   0  0  0  0  0  0  0  0  0  0  0  0
   13.4553   14.1112   22.6419 H   0  0  0  0  0  0  0  0  0  0  0  0
    9.9427   10.0763   22.7562 H   0  0  0  0  0  0  0  0  0  0  0  0
    9.6045   11.5695   21.8841 H   0  0  0  0  0  0  0  0  0  0  0  0
    9.5369   11.7867   26.1017 H   0  0  0  0  0  0  0  0  0  0  0  0
    9.8910   10.2044   25.4036 H   0  0  0  0  0  0  0  0  0  0  0  0
    7.2976   11.6417   22.6186 H   0  0  0  0  0  0  0  0  0  0  0  0
    7.6399   10.0461   21.9384 H   0  0  0  0  0  0  0  0  0  0  0  0
    7.5604   10.2586   26.1367 H   0  0  0  0  0  0  0  0  0  0  0  0
    7.2480   11.7775   25.2868 H   0  0  0  0  0  0  0  0  0  0  0  0
    7.4292    8.2153   25.0541 H   0  0  0  0  0  0  0  0  0  0  0  0
    7.3817    8.1024   23.2620 H   0  0  0  0  0  0  0  0  0  0  0  0
    8.8992    8.5880   24.0915 H   0  0  0  0  0  0  0  0  0  0  0  0
   11.0085   13.0851   20.9821 H   0  0  0  0  0  0  0  0  0  0  0  0
  1  2  2  0  0  0  0
  2  3  1  0  0  0  0
  3 17  1  0  0  0  0
  3 18  2  0  0  0  0
  4 13  1  0  0  0  0
  4 15  1  0  0  0  0
  4 19  2  0  0  0  0
  5  6  1  0  0  0  0
  5  7  1  0  0  0  0
  6  8  1  0  0  0  0
  7 13  1  0  0  0  0
  8 13  1  0  0  0  0
  9 11  1  0  0  0  0
  9 15  1  0  0  0  0
 10 12  1  0  0  0  0
 10 15  1  0  0  0  0
 11 16  1  0  0  0  0
 12 16  1  0  0  0  0
 13 17  1  0  0  0  0
 14 16  1  0  0  0  0
  1 20  1  0  0  0  0
  1 21  1  0  0  0  0
  2 22  1  0  0  0  0
  5 23  1  0  0  0  0
  5 24  1  0  0  0  0
  6 25  1  0  0  0  0
  6 26  1  0  0  0  0
  7 27  1  0  0  0  0
  7 28  1  0  0  0  0
  8 29  1  0  0  0  0
  8 30  1  0  0  0  0
  9 31  1  0  0  0  0
  9 32  1  0  0  0  0
 10 33  1  0  0  0  0
 10 34  1  0  0  0  0
 11 35  1  0  0  0  0
 11 36  1  0  0  0  0
 12 37  1  0  0  0  0
 12 38  1  0  0  0  0
 14 39  1  0  0  0  0
 14 40  1  0  0  0  0
 14 41  1  0  0  0  0
 17 42  1  0  0  0  0
M  END
> <Catalog ID>
Z2517212266

> <MW>
265.351

> <MW (desalted)>
265.351

> <ClogP>
1.189

> <logS>
-1.85

> <HBD>
1

> <HBA>
3

> <TPSA>
52.65

> <RotBonds>
3

> <ROCS_ShapeQuery>
A71EV2A-x0451_0A_A71EV2A-x0310_0A_A71EV2A-x0416_0A_peptide

> <ROCS_TanimotoCombo>
0.413 

> <ROCS_ShapeTanimoto>
0.271 

> <ROCS_ColorTanimoto>
0.142 

> <ROCS_RefTversky>
0.249 

> <ROCS_RefColorTversky>
0.158 

> <ROCS_RefTverskyCombo>
0.407 

> <ROCS_FitTversky>
1.493 

> <ROCS_FitColorTversky>
0.585 

> <ROCS_FitTverskyCombo>
2.077 

> <ROCS_ColorScore>
-4.815

> <ROCS_Overlap>
1724.825

> <ROCS_Rank>
412                 

$$$$
untitled-dbase-8_325
  -OEChem-11112315393D

 36 37  0     1  0  0  0  0  0999 V2000
    7.8529   11.7946   24.4754 C   0  0  0  0  0  0  0  0  0  0  0  0
    8.9402   12.5773   24.0871 C   0  0  0  0  0  0  0  0  0  0  0  0
   10.1077   10.5925   23.3559 C   0  0  0  0  0  0  0  0  0  0  0  0
    7.8931   10.4108   24.3041 C   0  0  0  0  0  0  0  0  0  0  0  0
    9.0205    9.8098   23.7443 C   0  0  0  0  0  0  0  0  0  0  0  0
   10.0676   11.9763   23.5273 C   0  0  0  0  0  0  0  0  0  0  0  0
   12.8032   13.3960   21.4704 C   0  0  0  0  0  0  0  0  0  0  0  0
   13.2900   14.6402   21.4061 C   0  0  0  0  0  0  0  0  0  0  0  0
   12.2044   13.0190   24.1099 C   0  0  0  0  0  0  0  0  0  0  0  0
   10.7020   14.6170   21.5498 C   0  0  0  0  0  0  0  0  0  0  0  0
   11.3392   13.2449   21.7647 C   0  0  2  0  0  0  0  0  0  0  0  0
    6.7172    9.5936   24.7282 C   0  0  0  0  0  0  0  0  0  0  0  0
    9.0850    8.3305   23.5493 C   0  0  0  0  0  0  0  0  0  0  0  0
   11.8498   12.5015   25.4928 C   0  0  0  0  0  0  0  0  0  0  0  0
   11.1950   12.7881   23.1224 N   0  0  0  0  0  0  0  0  0  0  0  0
   13.2711   13.6105   23.9250 O   0  0  0  0  0  0  0  0  0  0  0  0
   12.1093   16.2383   23.0886 O   0  0  0  0  0  0  0  0  0  0  0  0
   11.9626   16.7423   20.6113 O   0  0  0  0  0  0  0  0  0  0  0  0
   12.0431   15.8002   21.7088 S   0  0  0  0  0  0  0  0  0  0  0  0
   13.1595   12.8678   26.6355 Cl  0  0  0  0  0  0  0  0  0  0  0  0
    6.9793   12.2721   24.9116 H   0  0  0  0  0  0  0  0  0  0  0  0
    8.8977   13.6544   24.2266 H   0  0  0  0  0  0  0  0  0  0  0  0
   10.9867   10.1229   22.9193 H   0  0  0  0  0  0  0  0  0  0  0  0
   13.4353   12.5288   21.3207 H   0  0  0  0  0  0  0  0  0  0  0  0
   14.3177   14.9062   21.2063 H   0  0  0  0  0  0  0  0  0  0  0  0
   10.3145   14.7032   20.5288 H   0  0  0  0  0  0  0  0  0  0  0  0
    9.9063   14.8602   22.2585 H   0  0  0  0  0  0  0  0  0  0  0  0
   10.8717   12.4982   21.1161 H   0  0  0  0  0  0  0  0  0  0  0  0
    6.0077    9.4899   23.8991 H   0  0  0  0  0  0  0  0  0  0  0  0
    7.0264    8.5919   25.0512 H   0  0  0  0  0  0  0  0  0  0  0  0
    6.1981   10.0565   25.5767 H   0  0  0  0  0  0  0  0  0  0  0  0
    9.5121    7.8487   24.4365 H   0  0  0  0  0  0  0  0  0  0  0  0
    8.0878    7.9105   23.3693 H   0  0  0  0  0  0  0  0  0  0  0  0
    9.7021    8.0720   22.6798 H   0  0  0  0  0  0  0  0  0  0  0  0
   10.9393   12.9892   25.8499 H   0  0  0  0  0  0  0  0  0  0  0  0
   11.7316   11.4153   25.4892 H   0  0  0  0  0  0  0  0  0  0  0  0
  1  2  2  0  0  0  0
  1  4  1  0  0  0  0
  2  6  1  0  0  0  0
  3  5  1  0  0  0  0
  3  6  2  0  0  0  0
  4  5  2  0  0  0  0
  4 12  1  0  0  0  0
  5 13  1  0  0  0  0
  6 15  1  0  0  0  0
  7  8  2  0  0  0  0
  7 11  1  0  0  0  0
  8 19  1  0  0  0  0
  9 14  1  0  0  0  0
  9 15  1  0  0  0  0
  9 16  2  0  0  0  0
 10 11  1  0  0  0  0
 10 19  1  0  0  0  0
 11 15  1  0  0  0  0
 14 20  1  0  0  0  0
 17 19  2  0  0  0  0
 18 19  2  0  0  0  0
  1 21  1  0  0  0  0
  2 22  1  0  0  0  0
  3 23  1  0  0  0  0
  7 24  1  0  0  0  0
  8 25  1  0  0  0  0
 10 26  1  0  0  0  0
 10 27  1  0  0  0  0
 11 28  1  0  0  0  0
 12 29  1  0  0  0  0
 12 30  1  0  0  0  0
 12 31  1  0  0  0  0
 13 32  1  0  0  0  0
 13 33  1  0  0  0  0
 13 34  1  0  0  0  0
 14 35  1  0  0  0  0
 14 36  1  0  0  0  0
M  END
> <Catalog ID>
Z1258919505

> <MW>
313.054

> <MW (desalted)>
313.8

> <ClogP>
1.438

> <logS>
-4.163

> <HBD>
0

> <HBA>
3

> <TPSA>
54.45

> <RotBonds>
3

> <ROCS_ShapeQuery>
A71EV2A-x0451_0A_A71EV2A-x0310_0A_A71EV2A-x0416_0A_peptide

> <ROCS_TanimotoCombo>
0.413 

> <ROCS_ShapeTanimoto>
0.308 

> <ROCS_ColorTanimoto>
0.105 

> <ROCS_RefTversky>
0.275 

> <ROCS_RefColorTversky>
0.115 

> <ROCS_RefTverskyCombo>
0.390 

> <ROCS_FitTversky>
1.624 

> <ROCS_FitColorTversky>
0.550 

> <ROCS_FitTverskyCombo>
2.174 

> <ROCS_ColorScore>
-3.486

> <ROCS_Overlap>
1910.577

> <ROCS_Rank>
413                 

$$$$
untitled-dbase-818_321
  -OEChem-11112315393D

 35 36  0     1  0  0  0  0  0999 V2000
    7.8838   11.2270   24.6474 C   0  0  0  0  0  0  0  0  0  0  0  0
    9.0657    9.9197   23.5288 C   0  0  0  0  0  0  0  0  0  0  0  0
   10.6090   16.3927   20.5943 C   0  0  0  0  0  0  0  0  0  0  0  0
   11.4590   15.4574   21.0231 C   0  0  0  0  0  0  0  0  0  0  0  0
   11.7042   15.3276   22.4730 C   0  0  0  0  0  0  0  0  0  0  0  0
   12.4446   12.5633   24.6697 C   0  0  0  0  0  0  0  0  0  0  0  0
   12.2061   11.4858   23.6040 C   0  0  0  0  0  0  0  0  0  0  0  0
   11.5584   13.7890   24.4948 C   0  0  0  0  0  0  0  0  0  0  0  0
   10.7614   13.0738   22.2586 C   0  0  0  0  0  0  0  0  0  0  0  0
   10.8846   11.6366   22.8232 C   0  0  2  0  0  0  0  0  0  0  0  0
    6.7874   11.7179   25.4905 C   0  0  0  0  0  0  0  0  0  0  0  0
    9.6685    8.7700   22.8307 C   0  0  0  0  0  0  0  0  0  0  0  0
    7.9628    9.9258   24.2409 N   0  0  0  0  0  0  0  0  0  0  0  0
    8.8684   12.0264   24.2315 N   0  0  0  0  0  0  0  0  0  0  0  0
    9.6105   11.1658   23.5182 N   0  0  0  0  0  0  0  0  0  0  0  0
   11.3992   14.1095   23.0773 N   0  0  0  0  0  0  0  0  0  0  0  0
   12.1552   16.3068   23.0700 O   0  0  0  0  0  0  0  0  0  0  0  0
   10.3882   16.5364   19.5419 H   0  0  0  0  0  0  0  0  0  0  0  0
   10.1105   17.0425   21.3058 H   0  0  0  0  0  0  0  0  0  0  0  0
   11.9748   14.7906   20.3445 H   0  0  0  0  0  0  0  0  0  0  0  0
   12.2798   12.1265   25.6673 H   0  0  0  0  0  0  0  0  0  0  0  0
   13.5037   12.8690   24.6392 H   0  0  0  0  0  0  0  0  0  0  0  0
   13.0627   11.4784   22.8941 H   0  0  0  0  0  0  0  0  0  0  0  0
   12.2402   10.4843   24.0901 H   0  0  0  0  0  0  0  0  0  0  0  0
   10.5598   13.5994   24.8996 H   0  0  0  0  0  0  0  0  0  0  0  0
   11.9987   14.6102   25.0570 H   0  0  0  0  0  0  0  0  0  0  0  0
   11.1556   13.0966   21.2218 H   0  0  0  0  0  0  0  0  0  0  0  0
    9.6918   13.3554   22.1619 H   0  0  0  0  0  0  0  0  0  0  0  0
   10.9302   10.9357   21.9145 H   0  0  0  0  0  0  0  0  0  0  0  0
    7.0286   11.6238   26.5651 H   0  0  0  0  0  0  0  0  0  0  0  0
    6.5516   12.7820   25.2993 H   0  0  0  0  0  0  0  0  0  0  0  0
    5.8427   11.1682   25.3169 H   0  0  0  0  0  0  0  0  0  0  0  0
    9.2887    8.6855   21.7985 H   0  0  0  0  0  0  0  0  0  0  0  0
   10.7686    8.8469   22.7759 H   0  0  0  0  0  0  0  0  0  0  0  0
    9.4569    7.8149   23.3430 H   0  0  0  0  0  0  0  0  0  0  0  0
  1 11  1  0  0  0  0
  1 13  1  0  0  0  0
  1 14  2  0  0  0  0
  2 12  1  0  0  0  0
  2 13  2  0  0  0  0
  2 15  1  0  0  0  0
  3  4  2  0  0  0  0
  4  5  1  0  0  0  0
  5 16  1  0  0  0  0
  5 17  2  0  0  0  0
  6  7  1  0  0  0  0
  6  8  1  0  0  0  0
  7 10  1  0  0  0  0
  8 16  1  0  0  0  0
  9 10  1  0  0  0  0
  9 16  1  0  0  0  0
 10 15  1  0  0  0  0
 14 15  1  0  0  0  0
  3 18  1  0  0  0  0
  3 19  1  0  0  0  0
  4 20  1  0  0  0  0
  6 21  1  0  0  0  0
  6 22  1  0  0  0  0
  7 23  1  0  0  0  0
  7 24  1  0  0  0  0
  8 25  1  0  0  0  0
  8 26  1  0  0  0  0
  9 27  1  0  0  0  0
  9 28  1  0  0  0  0
 10 29  1  0  0  0  0
 11 30  1  0  0  0  0
 11 31  1  0  0  0  0
 11 32  1  0  0  0  0
 12 33  1  0  0  0  0
 12 34  1  0  0  0  0
 12 35  1  0  0  0  0
M  END
> <Catalog ID>
Z2737383211

> <MW>
234.298

> <MW (desalted)>
234.298

> <ClogP>
0.142

> <logS>
-1.022

> <HBD>
0

> <HBA>
3

> <TPSA>
51.02

> <RotBonds>
2

> <ROCS_ShapeQuery>
A71EV2A-x0451_0A_A71EV2A-x0310_0A_A71EV2A-x0416_0A_peptide

> <ROCS_TanimotoCombo>
0.413 

> <ROCS_ShapeTanimoto>
0.309 

> <ROCS_ColorTanimoto>
0.104 

> <ROCS_RefTversky>
0.272 

> <ROCS_RefColorTversky>
0.117 

> <ROCS_RefTverskyCombo>
0.389 

> <ROCS_FitTversky>
1.752 

> <ROCS_FitColorTversky>
0.488 

> <ROCS_FitTverskyCombo>
2.240 

> <ROCS_ColorScore>
-3.560

> <ROCS_Overlap>
1889.094

> <ROCS_Rank>
414                 

$$$$
untitled-dbase-14_50
  -OEChem-11112315393D

 23 23  0     0  0  0  0  0  0999 V2000
    9.3715   10.2759   23.2834 C   0  0  0  0  0  0  0  0  0  0  0  0
    8.3921    9.5465   23.9575 C   0  0  0  0  0  0  0  0  0  0  0  0
    8.4874   12.3228   24.2141 C   0  0  0  0  0  0  0  0  0  0  0  0
    9.4192   11.6641   23.4118 C   0  0  0  0  0  0  0  0  0  0  0  0
    7.4604   10.2051   24.7597 C   0  0  0  0  0  0  0  0  0  0  0  0
    7.5080   11.5933   24.8881 C   0  0  0  0  0  0  0  0  0  0  0  0
   10.9611   13.5931   23.1581 C   0  0  0  0  0  0  0  0  0  0  0  0
    6.5499    8.0550   25.2112 C   0  0  0  0  0  0  0  0  0  0  0  0
   11.9936   14.1025   22.1794 C   0  0  0  0  0  0  0  0  0  0  0  0
   10.3989   12.3933   22.7372 N   0  0  0  0  0  0  0  0  0  0  0  0
   10.6980   14.2380   24.1695 O   0  0  0  0  0  0  0  0  0  0  0  0
    6.5146    9.4669   25.4068 O   0  0  0  0  0  0  0  0  0  0  0  0
    6.3679   12.4332   25.8735 Cl  0  0  0  0  0  0  0  0  0  0  0  0
   11.5229   13.5533   20.5631 Cl  0  0  0  0  0  0  0  0  0  0  0  0
   10.0925    9.7521   22.6609 H   0  0  0  0  0  0  0  0  0  0  0  0
    8.3610    8.4653   23.8531 H   0  0  0  0  0  0  0  0  0  0  0  0
    8.5282   13.4057   24.3112 H   0  0  0  0  0  0  0  0  0  0  0  0
    5.7440    7.5870   25.7818 H   0  0  0  0  0  0  0  0  0  0  0  0
    7.5168    7.6649   25.5389 H   0  0  0  0  0  0  0  0  0  0  0  0
    6.4136    7.8398   24.1487 H   0  0  0  0  0  0  0  0  0  0  0  0
   13.0002   13.7366   22.3972 H   0  0  0  0  0  0  0  0  0  0  0  0
   12.0035   15.1960   22.1968 H   0  0  0  0  0  0  0  0  0  0  0  0
   10.7333   12.0111   21.8546 H   0  0  0  0  0  0  0  0  0  0  0  0
  1  2  2  0  0  0  0
  1  4  1  0  0  0  0
  2  5  1  0  0  0  0
  3  4  2  0  0  0  0
  3  6  1  0  0  0  0
  4 10  1  0  0  0  0
  5  6  2  0  0  0  0
  5 12  1  0  0  0  0
  6 13  1  0  0  0  0
  7  9  1  0  0  0  0
  7 10  1  0  0  0  0
  7 11  2  0  0  0  0
  8 12  1  0  0  0  0
  9 14  1  0  0  0  0
  1 15  1  0  0  0  0
  2 16  1  0  0  0  0
  3 17  1  0  0  0  0
  8 18  1  0  0  0  0
  8 19  1  0  0  0  0
  8 20  1  0  0  0  0
  9 21  1  0  0  0  0
  9 22  1  0  0  0  0
 10 23  1  0  0  0  0
M  END
> <Catalog ID>
Z56896204

> <MW>
233.001

> <MW (desalted)>
234.079

> <ClogP>
2.53

> <logS>
-2.96

> <HBD>
1

> <HBA>
2

> <TPSA>
38.33

> <RotBonds>
3

> <ROCS_ShapeQuery>
A71EV2A-x0451_0A_A71EV2A-x0310_0A_A71EV2A-x0416_0A_peptide

> <ROCS_TanimotoCombo>
0.413 

> <ROCS_ShapeTanimoto>
0.275 

> <ROCS_ColorTanimoto>
0.138 

> <ROCS_RefTversky>
0.244 

> <ROCS_RefColorTversky>
0.143 

> <ROCS_RefTverskyCombo>
0.387 

> <ROCS_FitTversky>
1.834 

> <ROCS_FitColorTversky>
0.803 

> <ROCS_FitTverskyCombo>
2.637 

> <ROCS_ColorScore>
-4.324

> <ROCS_Overlap>
1692.608

> <ROCS_Rank>
415                 

$$$$
untitled-dbase-888_10
  -OEChem-11112315393D

 19 19  0     0  0  0  0  0  0999 V2000
    9.3240   10.2311   23.2969 C   0  0  0  0  0  0  0  0  0  0  0  0
    8.3532    9.4976   23.9789 C   0  0  0  0  0  0  0  0  0  0  0  0
    7.4901   11.5374   24.9441 C   0  0  0  0  0  0  0  0  0  0  0  0
    9.3780   11.6178   23.4386 C   0  0  0  0  0  0  0  0  0  0  0  0
    7.4363   10.1507   24.8025 C   0  0  0  0  0  0  0  0  0  0  0  0
    8.4610   12.2709   24.2622 C   0  0  0  0  0  0  0  0  0  0  0  0
   10.9242   13.5424   23.1788 C   0  0  0  0  0  0  0  0  0  0  0  0
   11.9438   14.0565   22.1890 C   0  0  0  0  0  0  0  0  0  0  0  0
   10.3504   12.3490   22.7557 N   0  0  0  0  0  0  0  0  0  0  0  0
   10.6795   14.1792   24.1999 O   0  0  0  0  0  0  0  0  0  0  0  0
    6.5035    9.4461   25.4565 F   0  0  0  0  0  0  0  0  0  0  0  0
    8.5044   13.6030   24.4071 F   0  0  0  0  0  0  0  0  0  0  0  0
   11.0998   15.1075   21.0408 Cl  0  0  0  0  0  0  0  0  0  0  0  0
   10.0340    9.7114   22.6586 H   0  0  0  0  0  0  0  0  0  0  0  0
    8.3117    8.4179   23.8694 H   0  0  0  0  0  0  0  0  0  0  0  0
    6.7755   12.0457   25.5844 H   0  0  0  0  0  0  0  0  0  0  0  0
   12.4382   13.2543   21.6353 H   0  0  0  0  0  0  0  0  0  0  0  0
   12.7023   14.6407   22.7178 H   0  0  0  0  0  0  0  0  0  0  0  0
   10.6695   11.9735   21.8646 H   0  0  0  0  0  0  0  0  0  0  0  0
  1  2  2  0  0  0  0
  1  4  1  0  0  0  0
  2  5  1  0  0  0  0
  3  5  2  0  0  0  0
  3  6  1  0  0  0  0
  4  6  2  0  0  0  0
  4  9  1  0  0  0  0
  5 11  1  0  0  0  0
  6 12  1  0  0  0  0
  7  8  1  0  0  0  0
  7  9  1  0  0  0  0
  7 10  2  0  0  0  0
  8 13  1  0  0  0  0
  1 14  1  0  0  0  0
  2 15  1  0  0  0  0
  3 16  1  0  0  0  0
  8 17  1  0  0  0  0
  8 18  1  0  0  0  0
  9 19  1  0  0  0  0
M  END
> <Catalog ID>
Z56896319

> <MW>
205.011

> <MW (desalted)>
205.589

> <ClogP>
1.808

> <logS>
-2.76

> <HBD>
1

> <HBA>
1

> <TPSA>
29.1

> <RotBonds>
2

> <ROCS_ShapeQuery>
A71EV2A-x0451_0A_A71EV2A-x0310_0A_A71EV2A-x0416_0A_peptide

> <ROCS_TanimotoCombo>
0.413 

> <ROCS_ShapeTanimoto>
0.273 

> <ROCS_ColorTanimoto>
0.140 

> <ROCS_RefTversky>
0.242 

> <ROCS_RefColorTversky>
0.141 

> <ROCS_RefTverskyCombo>
0.383 

> <ROCS_FitTversky>
1.873 

> <ROCS_FitColorTversky>
0.960 

> <ROCS_FitTverskyCombo>
2.833 

> <ROCS_ColorScore>
-4.256

> <ROCS_Overlap>
1676.713

> <ROCS_Rank>
416                 

$$$$
untitled-dbase-271_144
  -OEChem-11112315393D

 20 20  0     0  0  0  0  0  0999 V2000
    6.8979   10.9766   25.1638 C   0  0  0  0  0  0  0  0  0  0  0  0
    7.6788   12.1534   25.0714 C   0  0  0  0  0  0  0  0  0  0  0  0
    7.6059    9.9959   24.5087 C   0  0  0  0  0  0  0  0  0  0  0  0
    8.8084   11.8079   24.3667 C   0  0  0  0  0  0  0  0  0  0  0  0
    9.9923   12.6036   23.9501 C   0  0  0  0  0  0  0  0  0  0  0  0
   11.3410   14.7585   22.4259 C   0  0  0  0  0  0  0  0  0  0  0  0
   12.5563   15.4303   21.8413 C   0  0  0  0  0  0  0  0  0  0  0  0
   10.2160   12.6760   22.5884 N   0  0  0  0  0  0  0  0  0  0  0  0
   11.2840   13.4104   22.1328 N   0  0  0  0  0  0  0  0  0  0  0  0
   10.6815   13.1515   24.8068 O   0  0  0  0  0  0  0  0  0  0  0  0
   10.5027   15.3822   23.0745 O   0  0  0  0  0  0  0  0  0  0  0  0
    8.7717   10.4945   24.0200 O   0  0  0  0  0  0  0  0  0  0  0  0
   13.8712   15.2980   23.0194 Cl  0  0  0  0  0  0  0  0  0  0  0  0
    5.9387   10.8581   25.6466 H   0  0  0  0  0  0  0  0  0  0  0  0
    7.4436   13.1299   25.4702 H   0  0  0  0  0  0  0  0  0  0  0  0
    7.4264    8.9490   24.3121 H   0  0  0  0  0  0  0  0  0  0  0  0
   12.8470   14.9189   20.9196 H   0  0  0  0  0  0  0  0  0  0  0  0
   12.3855   16.4880   21.6250 H   0  0  0  0  0  0  0  0  0  0  0  0
    9.6036   12.1963   21.9379 H   0  0  0  0  0  0  0  0  0  0  0  0
   12.0188   12.9693   21.5898 H   0  0  0  0  0  0  0  0  0  0  0  0
  1  2  1  0  0  0  0
  1  3  2  0  0  0  0
  2  4  2  0  0  0  0
  3 12  1  0  0  0  0
  4  5  1  0  0  0  0
  4 12  1  0  0  0  0
  5  8  1  0  0  0  0
  5 10  2  0  0  0  0
  6  7  1  0  0  0  0
  6  9  1  0  0  0  0
  6 11  2  0  0  0  0
  7 13  1  0  0  0  0
  8  9  1  0  0  0  0
  1 14  1  0  0  0  0
  2 15  1  0  0  0  0
  3 16  1  0  0  0  0
  7 17  1  0  0  0  0
  7 18  1  0  0  0  0
  8 19  1  0  0  0  0
  9 20  1  0  0  0  0
M  END
> <Catalog ID>
Z56347371

> <MW>
202.015

> <MW (desalted)>
202.595

> <ClogP>
0.1

> <logS>
-2.02

> <HBD>
2

> <HBA>
2

> <TPSA>
71.34

> <RotBonds>
3

> <ROCS_ShapeQuery>
A71EV2A-x0451_0A_A71EV2A-x0310_0A_A71EV2A-x0416_0A_peptide

> <ROCS_TanimotoCombo>
0.413 

> <ROCS_ShapeTanimoto>
0.245 

> <ROCS_ColorTanimoto>
0.168 

> <ROCS_RefTversky>
0.222 

> <ROCS_RefColorTversky>
0.180 

> <ROCS_RefTverskyCombo>
0.402 

> <ROCS_FitTversky>
1.715 

> <ROCS_FitColorTversky>
0.722 

> <ROCS_FitTverskyCombo>
2.436 

> <ROCS_ColorScore>
-5.464

> <ROCS_Overlap>
1537.764

> <ROCS_Rank>
417                 

$$$$
untitled-dbase-88_277
  -OEChem-11112315393D

 39 41  0     1  0  0  0  0  0999 V2000
    8.3928   11.8741   24.5465 C   0  0  0  0  0  0  0  0  0  0  0  0
    8.1332   10.5352   24.3304 C   0  0  0  0  0  0  0  0  0  0  0  0
    9.9931   11.4368   23.1182 C   0  0  0  0  0  0  0  0  0  0  0  0
   10.2508   15.5943   20.4458 C   0  0  0  0  0  0  0  0  0  0  0  0
   10.3455   15.7733   21.7650 C   0  0  0  0  0  0  0  0  0  0  0  0
   11.5886   15.3685   22.4524 C   0  0  0  0  0  0  0  0  0  0  0  0
    7.5654   12.7230   25.4479 C   0  0  0  0  0  0  0  0  0  0  0  0
    7.0499    9.7495   24.9871 C   0  0  0  0  0  0  0  0  0  0  0  0
    6.6946   11.8616   26.3798 C   0  0  0  0  0  0  0  0  0  0  0  0
    6.0213   10.6998   25.6275 C   0  0  0  0  0  0  0  0  0  0  0  0
   13.0261   12.3130   23.8231 C   0  0  0  0  0  0  0  0  0  0  0  0
   12.5028   11.2101   22.9096 C   0  0  0  0  0  0  0  0  0  0  0  0
   13.1992   13.6129   23.0515 C   0  0  0  0  0  0  0  0  0  0  0  0
   11.3240   13.0035   21.5342 C   0  0  0  0  0  0  0  0  0  0  0  0
   11.1995   11.6172   22.2035 C   0  0  2  0  0  0  0  0  0  0  0  0
    9.4600   12.3956   23.8458 N   0  0  0  0  0  0  0  0  0  0  0  0
   11.9660   14.0263   22.3785 N   0  0  0  0  0  0  0  0  0  0  0  0
   12.2201   16.2436   23.0473 O   0  0  0  0  0  0  0  0  0  0  0  0
    9.2560    9.8866   23.2287 S   0  0  0  0  0  0  0  0  0  0  0  0
    9.3641   15.8716   19.8856 H   0  0  0  0  0  0  0  0  0  0  0  0
   11.0775   15.1584   19.8950 H   0  0  0  0  0  0  0  0  0  0  0  0
    9.5430   16.2051   22.3486 H   0  0  0  0  0  0  0  0  0  0  0  0
    8.2354   13.3474   26.0509 H   0  0  0  0  0  0  0  0  0  0  0  0
    6.9286   13.3947   24.8620 H   0  0  0  0  0  0  0  0  0  0  0  0
    6.5508    9.1286   24.2332 H   0  0  0  0  0  0  0  0  0  0  0  0
    7.4557    9.0798   25.7538 H   0  0  0  0  0  0  0  0  0  0  0  0
    7.3102   11.4713   27.1980 H   0  0  0  0  0  0  0  0  0  0  0  0
    5.9167   12.4880   26.8351 H   0  0  0  0  0  0  0  0  0  0  0  0
    5.3569   11.0941   24.8501 H   0  0  0  0  0  0  0  0  0  0  0  0
    5.3916   10.1382   26.3299 H   0  0  0  0  0  0  0  0  0  0  0  0
   12.3300   12.4649   24.6529 H   0  0  0  0  0  0  0  0  0  0  0  0
   13.9859   12.0101   24.2552 H   0  0  0  0  0  0  0  0  0  0  0  0
   13.2737   10.9525   22.1648 H   0  0  0  0  0  0  0  0  0  0  0  0
   12.3405   10.2946   23.5045 H   0  0  0  0  0  0  0  0  0  0  0  0
   13.4942   14.4323   23.7307 H   0  0  0  0  0  0  0  0  0  0  0  0
   14.0215   13.5025   22.3246 H   0  0  0  0  0  0  0  0  0  0  0  0
   11.8281   12.9089   20.5497 H   0  0  0  0  0  0  0  0  0  0  0  0
   10.3140   13.3976   21.2747 H   0  0  0  0  0  0  0  0  0  0  0  0
   11.0406   10.8555   21.3617 H   0  0  0  0  0  0  0  0  0  0  0  0
  1  2  2  0  0  0  0
  1  7  1  0  0  0  0
  1 16  1  0  0  0  0
  2  8  1  0  0  0  0
  2 19  1  0  0  0  0
  3 15  1  0  0  0  0
  3 16  2  0  0  0  0
  3 19  1  0  0  0  0
  4  5  2  0  0  0  0
  5  6  1  0  0  0  0
  6 17  1  0  0  0  0
  6 18  2  0  0  0  0
  7  9  1  0  0  0  0
  8 10  1  0  0  0  0
  9 10  1  0  0  0  0
 11 12  1  0  0  0  0
 11 13  1  0  0  0  0
 12 15  1  0  0  0  0
 13 17  1  0  0  0  0
 14 15  1  0  0  0  0
 14 17  1  0  0  0  0
  4 20  1  0  0  0  0
  4 21  1  0  0  0  0
  5 22  1  0  0  0  0
  7 23  1  0  0  0  0
  7 24  1  0  0  0  0
  8 25  1  0  0  0  0
  8 26  1  0  0  0  0
  9 27  1  0  0  0  0
  9 28  1  0  0  0  0
 10 29  1  0  0  0  0
 10 30  1  0  0  0  0
 11 31  1  0  0  0  0
 11 32  1  0  0  0  0
 12 33  1  0  0  0  0
 12 34  1  0  0  0  0
 13 35  1  0  0  0  0
 13 36  1  0  0  0  0
 14 37  1  0  0  0  0
 14 38  1  0  0  0  0
 15 39  1  0  0  0  0
M  END
> <Catalog ID>
Z2737383327

> <MW>
276.397

> <MW (desalted)>
276.397

> <ClogP>
2.5

> <logS>
-3.17

> <HBD>
0

> <HBA>
2

> <TPSA>
33.2

> <RotBonds>
2

> <ROCS_ShapeQuery>
A71EV2A-x0451_0A_A71EV2A-x0310_0A_A71EV2A-x0416_0A_peptide

> <ROCS_TanimotoCombo>
0.413 

> <ROCS_ShapeTanimoto>
0.307 

> <ROCS_ColorTanimoto>
0.106 

> <ROCS_RefTversky>
0.274 

> <ROCS_RefColorTversky>
0.119 

> <ROCS_RefTverskyCombo>
0.392 

> <ROCS_FitTversky>
1.659 

> <ROCS_FitColorTversky>
0.494 

> <ROCS_FitTverskyCombo>
2.153 

> <ROCS_ColorScore>
-3.606

> <ROCS_Overlap>
1897.549

> <ROCS_Rank>
418                 

$$$$
untitled-dbase-682_14
  -OEChem-11112315393D

 19 19  0     0  0  0  0  0  0999 V2000
    9.3317   10.2343   23.2906 C   0  0  0  0  0  0  0  0  0  0  0  0
    8.3610    9.4991   23.9710 C   0  0  0  0  0  0  0  0  0  0  0  0
    8.4654   12.2723   24.2568 C   0  0  0  0  0  0  0  0  0  0  0  0
    9.3839   11.6209   23.4335 C   0  0  0  0  0  0  0  0  0  0  0  0
    7.4426   10.1505   24.7943 C   0  0  0  0  0  0  0  0  0  0  0  0
    7.4947   11.5371   24.9372 C   0  0  0  0  0  0  0  0  0  0  0  0
   10.9237   13.5513   23.1775 C   0  0  0  0  0  0  0  0  0  0  0  0
   11.9409   14.0712   22.1883 C   0  0  0  0  0  0  0  0  0  0  0  0
   10.3534   12.3569   22.7518 N   0  0  0  0  0  0  0  0  0  0  0  0
   10.6775   14.1846   24.2004 O   0  0  0  0  0  0  0  0  0  0  0  0
    6.5108    9.4438   25.4472 F   0  0  0  0  0  0  0  0  0  0  0  0
    6.6121   12.1629   25.7267 F   0  0  0  0  0  0  0  0  0  0  0  0
   11.4437   13.5413   20.5735 Cl  0  0  0  0  0  0  0  0  0  0  0  0
   10.0423    9.7159   22.6518 H   0  0  0  0  0  0  0  0  0  0  0  0
    8.3197    8.4196   23.8601 H   0  0  0  0  0  0  0  0  0  0  0  0
    8.4958   13.3524   24.3741 H   0  0  0  0  0  0  0  0  0  0  0  0
   12.9504   13.7018   22.3856 H   0  0  0  0  0  0  0  0  0  0  0  0
   11.9522   15.1643   22.2182 H   0  0  0  0  0  0  0  0  0  0  0  0
   10.6731   11.9848   21.8595 H   0  0  0  0  0  0  0  0  0  0  0  0
  1  2  2  0  0  0  0
  1  4  1  0  0  0  0
  2  5  1  0  0  0  0
  3  4  2  0  0  0  0
  3  6  1  0  0  0  0
  4  9  1  0  0  0  0
  5  6  2  0  0  0  0
  5 11  1  0  0  0  0
  6 12  1  0  0  0  0
  7  8  1  0  0  0  0
  7  9  1  0  0  0  0
  7 10  2  0  0  0  0
  8 13  1  0  0  0  0
  1 14  1  0  0  0  0
  2 15  1  0  0  0  0
  3 16  1  0  0  0  0
  8 17  1  0  0  0  0
  8 18  1  0  0  0  0
  9 19  1  0  0  0  0
M  END
> <Catalog ID>
Z56896202

> <MW>
205.011

> <MW (desalted)>
205.589

> <ClogP>
2.338

> <logS>
-2.76

> <HBD>
1

> <HBA>
1

> <TPSA>
29.1

> <RotBonds>
2

> <ROCS_ShapeQuery>
A71EV2A-x0451_0A_A71EV2A-x0310_0A_A71EV2A-x0416_0A_peptide

> <ROCS_TanimotoCombo>
0.413 

> <ROCS_ShapeTanimoto>
0.273 

> <ROCS_ColorTanimoto>
0.140 

> <ROCS_RefTversky>
0.242 

> <ROCS_RefColorTversky>
0.141 

> <ROCS_RefTverskyCombo>
0.383 

> <ROCS_FitTversky>
1.872 

> <ROCS_FitColorTversky>
0.960 

> <ROCS_FitTverskyCombo>
2.831 

> <ROCS_ColorScore>
-4.256

> <ROCS_Overlap>
1675.858

> <ROCS_Rank>
419                 

$$$$
untitled-dbase-328_8
  -OEChem-11112315393D

 23 23  0     0  0  0  0  0  0999 V2000
    8.3676    9.4825   23.9803 C   0  0  0  0  0  0  0  0  0  0  0  0
    9.3370   10.2264   23.3078 C   0  0  0  0  0  0  0  0  0  0  0  0
    8.4365   12.2577   24.2567 C   0  0  0  0  0  0  0  0  0  0  0  0
    7.4325   10.1261   24.7909 C   0  0  0  0  0  0  0  0  0  0  0  0
    9.3715   11.6140   23.4460 C   0  0  0  0  0  0  0  0  0  0  0  0
    7.4670   11.5137   24.9291 C   0  0  0  0  0  0  0  0  0  0  0  0
   11.7663   15.2276   21.5537 C   0  0  0  0  0  0  0  0  0  0  0  0
   11.9231   14.0481   22.1630 C   0  0  0  0  0  0  0  0  0  0  0  0
   10.9236   13.5714   23.1625 C   0  0  0  0  0  0  0  0  0  0  0  0
    6.3986    9.3266   25.5098 C   0  0  0  0  0  0  0  0  0  0  0  0
   10.3399   12.3583   22.7719 N   0  0  0  0  0  0  0  0  0  0  0  0
   10.6885   14.2113   24.1807 O   0  0  0  0  0  0  0  0  0  0  0  0
    6.5728   12.1411   25.7058 F   0  0  0  0  0  0  0  0  0  0  0  0
    8.3497    8.4016   23.8680 H   0  0  0  0  0  0  0  0  0  0  0  0
   10.0611    9.7147   22.6788 H   0  0  0  0  0  0  0  0  0  0  0  0
    8.4532   13.3385   24.3716 H   0  0  0  0  0  0  0  0  0  0  0  0
   12.4715   15.6066   20.8225 H   0  0  0  0  0  0  0  0  0  0  0  0
   10.9064   15.8474   21.7852 H   0  0  0  0  0  0  0  0  0  0  0  0
   12.7823   13.4278   21.9319 H   0  0  0  0  0  0  0  0  0  0  0  0
    6.7668    9.0275   26.4988 H   0  0  0  0  0  0  0  0  0  0  0  0
    5.4723    9.9005   25.6422 H   0  0  0  0  0  0  0  0  0  0  0  0
    6.1339    8.4212   24.9484 H   0  0  0  0  0  0  0  0  0  0  0  0
   10.6656   11.9692   21.8787 H   0  0  0  0  0  0  0  0  0  0  0  0
  1  2  2  0  0  0  0
  1  4  1  0  0  0  0
  2  5  1  0  0  0  0
  3  5  2  0  0  0  0
  3  6  1  0  0  0  0
  4  6  2  0  0  0  0
  4 10  1  0  0  0  0
  5 11  1  0  0  0  0
  6 13  1  0  0  0  0
  7  8  2  0  0  0  0
  8  9  1  0  0  0  0
  9 11  1  0  0  0  0
  9 12  2  0  0  0  0
  1 14  1  0  0  0  0
  2 15  1  0  0  0  0
  3 16  1  0  0  0  0
  7 17  1  0  0  0  0
  7 18  1  0  0  0  0
  8 19  1  0  0  0  0
 10 20  1  0  0  0  0
 10 21  1  0  0  0  0
 10 22  1  0  0  0  0
 11 23  1  0  0  0  0
M  END
> <Catalog ID>
Z440633712

> <MW>
179.075

> <MW (desalted)>
179.191

> <ClogP>
2.316

> <logS>
-2.8

> <HBD>
1

> <HBA>
1

> <TPSA>
29.1

> <RotBonds>
2

> <ROCS_ShapeQuery>
A71EV2A-x0451_0A_A71EV2A-x0310_0A_A71EV2A-x0416_0A_peptide

> <ROCS_TanimotoCombo>
0.413 

> <ROCS_ShapeTanimoto>
0.278 

> <ROCS_ColorTanimoto>
0.134 

> <ROCS_RefTversky>
0.246 

> <ROCS_RefColorTversky>
0.139 

> <ROCS_RefTverskyCombo>
0.385 

> <ROCS_FitTversky>
1.893 

> <ROCS_FitColorTversky>
0.785 

> <ROCS_FitTverskyCombo>
2.679 

> <ROCS_ColorScore>
-4.228

> <ROCS_Overlap>
1702.969

> <ROCS_Rank>
420                 

$$$$
untitled-dbase-338_81
  -OEChem-11112315393D

 37 38  0     1  0  0  0  0  0999 V2000
    8.5546    9.5633   23.8646 C   0  0  0  0  0  0  0  0  0  0  0  0
    7.3979   10.1911   24.3267 C   0  0  0  0  0  0  0  0  0  0  0  0
    9.6976   10.3167   23.5970 C   0  0  0  0  0  0  0  0  0  0  0  0
    7.3842   11.5723   24.5210 C   0  0  0  0  0  0  0  0  0  0  0  0
    9.6839   11.6978   23.7913 C   0  0  0  0  0  0  0  0  0  0  0  0
    8.5272   12.3257   24.2534 C   0  0  0  0  0  0  0  0  0  0  0  0
   10.6255   13.9227   23.0263 C   0  0  0  0  0  0  0  0  0  0  0  0
   12.9648   13.2817   24.8471 C   0  0  0  0  0  0  0  0  0  0  0  0
   10.1020   14.0805   21.6115 C   0  0  0  0  0  0  0  0  0  0  0  0
   11.0463   13.4321   20.6136 C   0  0  0  0  0  0  0  0  0  0  0  0
   11.3447   11.9841   20.9850 C   0  0  0  0  0  0  0  0  0  0  0  0
   11.9013   11.8931   22.4074 C   0  0  0  0  0  0  0  0  0  0  0  0
   10.9584   12.4877   23.4837 C   0  0  2  0  0  0  0  0  0  0  0  0
   11.1391   11.9935   25.9011 C   0  0  0  0  0  0  0  0  0  0  0  0
   13.5498   13.2697   26.2452 C   0  0  0  0  0  0  0  0  0  0  0  0
   11.7260   12.6193   24.7132 N   0  0  0  0  0  0  0  0  0  0  0  0
   10.6813   14.8958   23.7800 O   0  0  0  0  0  0  0  0  0  0  0  0
   13.5476   13.8361   23.9119 O   0  0  0  0  0  0  0  0  0  0  0  0
    8.4726   14.0323   24.5059 Cl  0  0  0  0  0  0  0  0  0  0  0  0
   14.6151   11.8681   26.4707 Cl  0  0  0  0  0  0  0  0  0  0  0  0
    8.5653    8.4876   23.7142 H   0  0  0  0  0  0  0  0  0  0  0  0
    6.5085    9.6040   24.5361 H   0  0  0  0  0  0  0  0  0  0  0  0
   10.5938    9.8174   23.2377 H   0  0  0  0  0  0  0  0  0  0  0  0
    6.4752   12.0461   24.8827 H   0  0  0  0  0  0  0  0  0  0  0  0
    9.1024   13.6365   21.5567 H   0  0  0  0  0  0  0  0  0  0  0  0
   10.0051   15.1481   21.3861 H   0  0  0  0  0  0  0  0  0  0  0  0
   10.6116   13.4758   19.6088 H   0  0  0  0  0  0  0  0  0  0  0  0
   11.9873   13.9957   20.5810 H   0  0  0  0  0  0  0  0  0  0  0  0
   10.4355   11.3786   20.8924 H   0  0  0  0  0  0  0  0  0  0  0  0
   12.0751   11.5699   20.2804 H   0  0  0  0  0  0  0  0  0  0  0  0
   12.1145   10.8406   22.6354 H   0  0  0  0  0  0  0  0  0  0  0  0
   12.8643   12.4227   22.4268 H   0  0  0  0  0  0  0  0  0  0  0  0
   10.4958   12.7201   26.4190 H   0  0  0  0  0  0  0  0  0  0  0  0
   10.5387   11.1231   25.5980 H   0  0  0  0  0  0  0  0  0  0  0  0
   11.9423   11.6671   26.5781 H   0  0  0  0  0  0  0  0  0  0  0  0
   14.1504   14.1677   26.4103 H   0  0  0  0  0  0  0  0  0  0  0  0
   12.7505   13.1978   26.9871 H   0  0  0  0  0  0  0  0  0  0  0  0
  1  2  1  0  0  0  0
  1  3  2  0  0  0  0
  2  4  2  0  0  0  0
  3  5  1  0  0  0  0
  4  6  1  0  0  0  0
  5  6  2  0  0  0  0
  5 13  1  0  0  0  0
  6 19  1  0  0  0  0
  7  9  1  0  0  0  0
  7 13  1  0  0  0  0
  7 17  2  0  0  0  0
  8 15  1  0  0  0  0
  8 16  1  0  0  0  0
  8 18  2  0  0  0  0
  9 10  1  0  0  0  0
 10 11  1  0  0  0  0
 11 12  1  0  0  0  0
 12 13  1  0  0  0  0
 13 16  1  0  0  0  0
 14 16  1  0  0  0  0
 15 20  1  0  0  0  0
  1 21  1  0  0  0  0
  2 22  1  0  0  0  0
  3 23  1  0  0  0  0
  4 24  1  0  0  0  0
  9 25  1  0  0  0  0
  9 26  1  0  0  0  0
 10 27  1  0  0  0  0
 10 28  1  0  0  0  0
 11 29  1  0  0  0  0
 11 30  1  0  0  0  0
 12 31  1  0  0  0  0
 12 32  1  0  0  0  0
 14 33  1  0  0  0  0
 14 34  1  0  0  0  0
 14 35  1  0  0  0  0
 15 36  1  0  0  0  0
 15 37  1  0  0  0  0
M  END
> <Catalog ID>
Z56855796

> <MW>
313.064

> <MW (desalted)>
314.207

> <ClogP>
3.417

> <logS>
-4.15

> <HBD>
0

> <HBA>
2

> <TPSA>
37.38

> <RotBonds>
3

> <ROCS_ShapeQuery>
A71EV2A-x0451_0A_A71EV2A-x0310_0A_A71EV2A-x0416_0A_peptide

> <ROCS_TanimotoCombo>
0.413 

> <ROCS_ShapeTanimoto>
0.287 

> <ROCS_ColorTanimoto>
0.126 

> <ROCS_RefTversky>
0.261 

> <ROCS_RefColorTversky>
0.132 

> <ROCS_RefTverskyCombo>
0.393 

> <ROCS_FitTversky>
1.517 

> <ROCS_FitColorTversky>
0.741 

> <ROCS_FitTverskyCombo>
2.258 

> <ROCS_ColorScore>
-3.994

> <ROCS_Overlap>
1811.750

> <ROCS_Rank>
421                 

$$$$
untitled-dbase-285_9
  -OEChem-11112315393D

 19 19  0     0  0  0  0  0  0999 V2000
    7.4254   10.1834   24.8217 C   0  0  0  0  0  0  0  0  0  0  0  0
    8.3283    9.5074   24.0011 C   0  0  0  0  0  0  0  0  0  0  0  0
    8.4800   12.2815   24.2535 C   0  0  0  0  0  0  0  0  0  0  0  0
    9.3829   11.6055   23.4329 C   0  0  0  0  0  0  0  0  0  0  0  0
    7.5012   11.5706   24.9478 C   0  0  0  0  0  0  0  0  0  0  0  0
    9.3070   10.2184   23.3067 C   0  0  0  0  0  0  0  0  0  0  0  0
   10.9180   13.5401   23.1811 C   0  0  0  0  0  0  0  0  0  0  0  0
   11.9326   14.0655   22.1921 C   0  0  0  0  0  0  0  0  0  0  0  0
   10.3519   12.3475   22.7508 N   0  0  0  0  0  0  0  0  0  0  0  0
   10.6721   14.1694   24.2065 O   0  0  0  0  0  0  0  0  0  0  0  0
    6.3868   12.4039   25.9605 Cl  0  0  0  0  0  0  0  0  0  0  0  0
   10.4047    9.3411   22.3017 Cl  0  0  0  0  0  0  0  0  0  0  0  0
   11.4341   13.5400   20.5763 Cl  0  0  0  0  0  0  0  0  0  0  0  0
    6.6679    9.6165   25.3568 H   0  0  0  0  0  0  0  0  0  0  0  0
    8.2555    8.4262   23.9137 H   0  0  0  0  0  0  0  0  0  0  0  0
    8.5405   13.3636   24.3509 H   0  0  0  0  0  0  0  0  0  0  0  0
   12.9432   13.6977   22.3866 H   0  0  0  0  0  0  0  0  0  0  0  0
   11.9416   15.1586   22.2257 H   0  0  0  0  0  0  0  0  0  0  0  0
   10.6711   11.9802   21.8578 H   0  0  0  0  0  0  0  0  0  0  0  0
  1  2  2  0  0  0  0
  1  5  1  0  0  0  0
  2  6  1  0  0  0  0
  3  4  1  0  0  0  0
  3  5  2  0  0  0  0
  4  6  2  0  0  0  0
  4  9  1  0  0  0  0
  5 11  1  0  0  0  0
  6 12  1  0  0  0  0
  7  8  1  0  0  0  0
  7  9  1  0  0  0  0
  7 10  2  0  0  0  0
  8 13  1  0  0  0  0
  1 14  1  0  0  0  0
  2 15  1  0  0  0  0
  3 16  1  0  0  0  0
  8 17  1  0  0  0  0
  8 18  1  0  0  0  0
  9 19  1  0  0  0  0
M  END
> <Catalog ID>
Z56896201

> <MW>
236.951

> <MW (desalted)>
238.498

> <ClogP>
2.698

> <logS>
-3.69

> <HBD>
1

> <HBA>
1

> <TPSA>
29.1

> <RotBonds>
2

> <ROCS_ShapeQuery>
A71EV2A-x0451_0A_A71EV2A-x0310_0A_A71EV2A-x0416_0A_peptide

> <ROCS_TanimotoCombo>
0.412 

> <ROCS_ShapeTanimoto>
0.272 

> <ROCS_ColorTanimoto>
0.140 

> <ROCS_RefTversky>
0.241 

> <ROCS_RefColorTversky>
0.141 

> <ROCS_RefTverskyCombo>
0.382 

> <ROCS_FitTversky>
1.912 

> <ROCS_FitColorTversky>
0.962 

> <ROCS_FitTverskyCombo>
2.874 

> <ROCS_ColorScore>
-4.266

> <ROCS_Overlap>
1668.719

> <ROCS_Rank>
422                 

$$$$
untitled-dbase-331_533
  -OEChem-11112315393D

 29 29  0     1  0  0  0  0  0999 V2000
    6.3200   12.3366   25.8310 C   0  0  0  0  0  0  0  0  0  0  0  0
   10.8161   13.5516   23.1302 C   0  0  0  0  0  0  0  0  0  0  0  0
    7.8505    9.5948   23.9106 C   0  0  0  0  0  0  0  0  0  0  0  0
    9.0574   10.2262   23.2115 C   0  0  0  0  0  0  0  0  0  0  0  0
    7.5194   10.2549   25.2425 C   0  0  0  0  0  0  0  0  0  0  0  0
    8.2272   12.4096   24.1785 C   0  0  0  0  0  0  0  0  0  0  0  0
    9.4545   11.5796   23.8067 C   0  0  2  0  0  0  0  0  0  0  0  0
   11.6325   14.1142   22.0143 C   0  0  0  0  0  0  0  0  0  0  0  0
    5.4806   11.4778   26.7235 C   0  0  0  0  0  0  0  0  0  0  0  0
    7.3253   11.6985   25.0954 N   0  0  0  0  0  0  0  0  0  0  0  0
   10.2770   12.3069   22.8626 N   0  0  0  0  0  0  0  0  0  0  0  0
    6.0717   13.5384   25.7841 O   0  0  0  0  0  0  0  0  0  0  0  0
   10.6817   14.1949   24.1645 O   0  0  0  0  0  0  0  0  0  0  0  0
    5.0115   12.4807   28.0917 Cl  0  0  0  0  0  0  0  0  0  0  0  0
    6.9739    9.6471   23.2433 H   0  0  0  0  0  0  0  0  0  0  0  0
    8.0456    8.5203   24.0732 H   0  0  0  0  0  0  0  0  0  0  0  0
    9.9103    9.5237   23.2609 H   0  0  0  0  0  0  0  0  0  0  0  0
    8.8236   10.3436   22.1355 H   0  0  0  0  0  0  0  0  0  0  0  0
    6.5860    9.8443   25.6507 H   0  0  0  0  0  0  0  0  0  0  0  0
    8.3110   10.0384   25.9695 H   0  0  0  0  0  0  0  0  0  0  0  0
    8.5470   13.3741   24.6006 H   0  0  0  0  0  0  0  0  0  0  0  0
    7.6318   12.6514   23.2796 H   0  0  0  0  0  0  0  0  0  0  0  0
   10.0735   11.4244   24.6896 H   0  0  0  0  0  0  0  0  0  0  0  0
   11.0304   14.7160   21.3147 H   0  0  0  0  0  0  0  0  0  0  0  0
   12.4249   14.7907   22.3727 H   0  0  0  0  0  0  0  0  0  0  0  0
   12.1488   13.3704   21.3866 H   0  0  0  0  0  0  0  0  0  0  0  0
    6.0756   10.6382   27.0642 H   0  0  0  0  0  0  0  0  0  0  0  0
    4.6008   11.1580   26.1772 H   0  0  0  0  0  0  0  0  0  0  0  0
   10.4671   11.8818   21.9594 H   0  0  0  0  0  0  0  0  0  0  0  0
  1  9  1  0  0  0  0
  1 10  1  0  0  0  0
  1 12  2  0  0  0  0
  2  8  1  0  0  0  0
  2 11  1  0  0  0  0
  2 13  2  0  0  0  0
  3  4  1  0  0  0  0
  3  5  1  0  0  0  0
  4  7  1  0  0  0  0
  5 10  1  0  0  0  0
  6  7  1  0  0  0  0
  6 10  1  0  0  0  0
  7 11  1  0  0  0  0
  9 14  1  0  0  0  0
  3 15  1  0  0  0  0
  3 16  1  0  0  0  0
  4 17  1  0  0  0  0
  4 18  1  0  0  0  0
  5 19  1  0  0  0  0
  5 20  1  0  0  0  0
  6 21  1  0  0  0  0
  6 22  1  0  0  0  0
  7 23  1  0  0  0  0
  8 24  1  0  0  0  0
  8 25  1  0  0  0  0
  8 26  1  0  0  0  0
  9 27  1  0  0  0  0
  9 28  1  0  0  0  0
 11 29  1  0  0  0  0
M  END
> <Catalog ID>
Z567127178

> <MW>
218.082

> <MW (desalted)>
218.681

> <ClogP>
-0.356

> <logS>
-1.258

> <HBD>
1

> <HBA>
2

> <TPSA>
49.41

> <RotBonds>
2

> <ROCS_ShapeQuery>
A71EV2A-x0451_0A_A71EV2A-x0310_0A_A71EV2A-x0416_0A_peptide

> <ROCS_TanimotoCombo>
0.412 

> <ROCS_ShapeTanimoto>
0.275 

> <ROCS_ColorTanimoto>
0.137 

> <ROCS_RefTversky>
0.244 

> <ROCS_RefColorTversky>
0.142 

> <ROCS_RefTverskyCombo>
0.386 

> <ROCS_FitTversky>
1.848 

> <ROCS_FitColorTversky>
0.800 

> <ROCS_FitTverskyCombo>
2.648 

> <ROCS_ColorScore>
-4.307

> <ROCS_Overlap>
1692.392

> <ROCS_Rank>
423                 

$$$$
untitled-dbase-435_55
  -OEChem-11112315393D

 42 43  0     1  0  0  0  0  0999 V2000
   10.5645   13.0271   23.5153 C   0  0  0  0  0  0  0  0  0  0  0  0
   12.3609   15.8866   19.6870 C   0  0  0  0  0  0  0  0  0  0  0  0
    7.6733   11.5131   24.9673 C   0  0  0  0  0  0  0  0  0  0  0  0
    7.7830   10.0492   24.5410 C   0  0  0  0  0  0  0  0  0  0  0  0
   11.1108   12.8663   21.0931 C   0  0  0  0  0  0  0  0  0  0  0  0
   12.7498   13.9424   22.7113 C   0  0  0  0  0  0  0  0  0  0  0  0
    8.1872   12.4455   23.8748 C   0  0  0  0  0  0  0  0  0  0  0  0
   10.7352   14.2658   20.6093 C   0  0  0  0  0  0  0  0  0  0  0  0
   12.3364   15.3090   22.1632 C   0  0  0  0  0  0  0  0  0  0  0  0
    9.6955   10.6868   23.0204 C   0  0  0  0  0  0  0  0  0  0  0  0
   11.6746   12.8683   22.5175 C   0  0  0  0  0  0  0  0  0  0  0  0
    9.2156    9.7084   24.1021 C   0  0  2  0  0  0  0  0  0  0  0  0
    9.3016    8.2671   23.6065 C   0  0  0  0  0  0  0  0  0  0  0  0
   13.8269   16.2371   19.7290 C   0  0  0  0  0  0  0  0  0  0  0  0
    9.5453   12.0763   23.4729 N   0  0  0  0  0  0  0  0  0  0  0  0
   11.8530   15.1922   20.7841 N   0  0  0  0  0  0  0  0  0  0  0  0
   10.6011   13.9677   24.3127 O   0  0  0  0  0  0  0  0  0  0  0  0
   11.6896   16.2190   18.7067 O   0  0  0  0  0  0  0  0  0  0  0  0
   14.3942   16.2311   18.0628 Cl  0  0  0  0  0  0  0  0  0  0  0  0
    6.6283   11.7516   25.1952 H   0  0  0  0  0  0  0  0  0  0  0  0
    8.2476   11.6735   25.8881 H   0  0  0  0  0  0  0  0  0  0  0  0
    7.4805    9.4032   25.3735 H   0  0  0  0  0  0  0  0  0  0  0  0
    7.0832    9.8586   23.7172 H   0  0  0  0  0  0  0  0  0  0  0  0
   10.2320   12.2142   21.0281 H   0  0  0  0  0  0  0  0  0  0  0  0
   11.8676   12.4497   20.4168 H   0  0  0  0  0  0  0  0  0  0  0  0
   13.6620   13.6193   22.1944 H   0  0  0  0  0  0  0  0  0  0  0  0
   13.0038   14.0421   23.7730 H   0  0  0  0  0  0  0  0  0  0  0  0
    7.5525   12.3791   22.9831 H   0  0  0  0  0  0  0  0  0  0  0  0
    8.1506   13.4816   24.2257 H   0  0  0  0  0  0  0  0  0  0  0  0
   10.4262   14.2204   19.5601 H   0  0  0  0  0  0  0  0  0  0  0  0
    9.8867   14.6610   21.1798 H   0  0  0  0  0  0  0  0  0  0  0  0
   11.5199   15.7351   22.7574 H   0  0  0  0  0  0  0  0  0  0  0  0
   13.1789   15.9981   22.2449 H   0  0  0  0  0  0  0  0  0  0  0  0
   10.7287   10.4591   22.7506 H   0  0  0  0  0  0  0  0  0  0  0  0
    9.0958   10.5812   22.1078 H   0  0  0  0  0  0  0  0  0  0  0  0
   12.1144   11.8848   22.7228 H   0  0  0  0  0  0  0  0  0  0  0  0
    9.8784    9.8047   24.9731 H   0  0  0  0  0  0  0  0  0  0  0  0
    8.6548    8.1350   22.7405 H   0  0  0  0  0  0  0  0  0  0  0  0
    8.9852    7.5859   24.3948 H   0  0  0  0  0  0  0  0  0  0  0  0
   10.3272    8.0341   23.3242 H   0  0  0  0  0  0  0  0  0  0  0  0
   14.3523   15.4829   20.3037 H   0  0  0  0  0  0  0  0  0  0  0  0
   13.9394   17.2265   20.1571 H   0  0  0  0  0  0  0  0  0  0  0  0
  1 11  1  0  0  0  0
  1 15  1  0  0  0  0
  1 17  2  0  0  0  0
  2 14  1  0  0  0  0
  2 16  1  0  0  0  0
  2 18  2  0  0  0  0
  3  4  1  0  0  0  0
  3  7  1  0  0  0  0
  4 12  1  0  0  0  0
  5  8  1  0  0  0  0
  5 11  1  0  0  0  0
  6  9  1  0  0  0  0
  6 11  1  0  0  0  0
  7 15  1  0  0  0  0
  8 16  1  0  0  0  0
  9 16  1  0  0  0  0
 10 12  1  0  0  0  0
 10 15  1  0  0  0  0
 12 13  1  0  0  0  0
 14 19  1  0  0  0  0
  3 20  1  0  0  0  0
  3 21  1  0  0  0  0
  4 22  1  0  0  0  0
  4 23  1  0  0  0  0
  5 24  1  0  0  0  0
  5 25  1  0  0  0  0
  6 26  1  0  0  0  0
  6 27  1  0  0  0  0
  7 28  1  0  0  0  0
  7 29  1  0  0  0  0
  8 30  1  0  0  0  0
  8 31  1  0  0  0  0
  9 32  1  0  0  0  0
  9 33  1  0  0  0  0
 10 34  1  0  0  0  0
 10 35  1  0  0  0  0
 11 36  1  0  0  0  0
 12 37  1  0  0  0  0
 13 38  1  0  0  0  0
 13 39  1  0  0  0  0
 13 40  1  0  0  0  0
 14 41  1  0  0  0  0
 14 42  1  0  0  0  0
M  END
> <Catalog ID>
Z561602844

> <MW>
286.145

> <MW (desalted)>
286.798

> <ClogP>
-0.229

> <logS>
-2.351

> <HBD>
0

> <HBA>
2

> <TPSA>
40.62

> <RotBonds>
2

> <ROCS_ShapeQuery>
A71EV2A-x0451_0A_A71EV2A-x0310_0A_A71EV2A-x0416_0A_peptide

> <ROCS_TanimotoCombo>
0.412 

> <ROCS_ShapeTanimoto>
0.307 

> <ROCS_ColorTanimoto>
0.105 

> <ROCS_RefTversky>
0.273 

> <ROCS_RefColorTversky>
0.112 

> <ROCS_RefTverskyCombo>
0.385 

> <ROCS_FitTversky>
1.676 

> <ROCS_FitColorTversky>
0.632 

> <ROCS_FitTverskyCombo>
2.308 

> <ROCS_ColorScore>
-3.402

> <ROCS_Overlap>
1895.187

> <ROCS_Rank>
424                 

$$$$
untitled-dbase-219_123
  -OEChem-11112315393D

 28 28  0     1  0  0  0  0  0999 V2000
   12.1657   15.2211   22.0548 C   0  0  0  0  0  0  0  0  0  0  0  0
   11.1629   14.3468   21.9279 C   0  0  0  0  0  0  0  0  0  0  0  0
   10.6426   13.6203   23.1168 C   0  0  0  0  0  0  0  0  0  0  0  0
   10.7524   11.2785   24.6905 C   0  0  0  0  0  0  0  0  0  0  0  0
    8.5118    9.2102   24.1424 C   0  0  0  0  0  0  0  0  0  0  0  0
    9.1779   10.1440   23.1289 C   0  0  0  0  0  0  0  0  0  0  0  0
    7.7895    9.9672   25.2502 C   0  0  0  0  0  0  0  0  0  0  0  0
    8.4015   12.1328   24.4994 C   0  0  0  0  0  0  0  0  0  0  0  0
    9.5817   11.4748   23.7646 C   0  0  1  0  0  0  0  0  0  0  0  0
   11.9745   11.4222   24.0773 N   0  0  0  0  0  0  0  0  0  0  0  0
   10.1461   12.3712   22.7827 N   0  0  0  0  0  0  0  0  0  0  0  0
   10.6632   14.1009   24.2454 O   0  0  0  0  0  0  0  0  0  0  0  0
   10.6058   11.0304   25.8848 O   0  0  0  0  0  0  0  0  0  0  0  0
    7.3277   11.2216   24.7656 O   0  0  0  0  0  0  0  0  0  0  0  0
   12.5407   15.7465   21.1826 H   0  0  0  0  0  0  0  0  0  0  0  0
   12.6347   15.4381   23.0082 H   0  0  0  0  0  0  0  0  0  0  0  0
   10.7210   14.1590   20.9553 H   0  0  0  0  0  0  0  0  0  0  0  0
    7.8099    8.5340   23.6261 H   0  0  0  0  0  0  0  0  0  0  0  0
    9.2886    8.5680   24.5935 H   0  0  0  0  0  0  0  0  0  0  0  0
   10.0411    9.6312   22.6836 H   0  0  0  0  0  0  0  0  0  0  0  0
    8.4635   10.3283   22.3137 H   0  0  0  0  0  0  0  0  0  0  0  0
    6.9471    9.3895   25.6444 H   0  0  0  0  0  0  0  0  0  0  0  0
    8.4790   10.1593   26.0767 H   0  0  0  0  0  0  0  0  0  0  0  0
    8.7200   12.5410   25.4724 H   0  0  0  0  0  0  0  0  0  0  0  0
    7.9997   12.9819   23.9200 H   0  0  0  0  0  0  0  0  0  0  0  0
   12.8152   11.3053   24.6334 H   0  0  0  0  0  0  0  0  0  0  0  0
   12.0696   11.6405   23.0907 H   0  0  0  0  0  0  0  0  0  0  0  0
   10.1423   12.0689   21.8122 H   0  0  0  0  0  0  0  0  0  0  0  0
  1  2  2  0  0  0  0
  2  3  1  0  0  0  0
  3 11  1  0  0  0  0
  3 12  2  0  0  0  0
  4  9  1  0  0  0  0
  4 10  1  0  0  0  0
  4 13  2  0  0  0  0
  5  6  1  0  0  0  0
  5  7  1  0  0  0  0
  6  9  1  0  0  0  0
  7 14  1  0  0  0  0
  8  9  1  0  0  0  0
  8 14  1  0  0  0  0
  9 11  1  0  0  0  0
  1 15  1  0  0  0  0
  1 16  1  0  0  0  0
  2 17  1  0  0  0  0
  5 18  1  0  0  0  0
  5 19  1  0  0  0  0
  6 20  1  0  0  0  0
  6 21  1  0  0  0  0
  7 22  1  0  0  0  0
  7 23  1  0  0  0  0
  8 24  1  0  0  0  0
  8 25  1  0  0  0  0
 10 26  1  0  0  0  0
 10 27  1  0  0  0  0
 11 28  1  0  0  0  0
M  END
> <Catalog ID>
Z2737383352

> <MW>
198.219

> <MW (desalted)>
198.219

> <ClogP>
-1.137

> <logS>
-1.33

> <HBD>
2

> <HBA>
3

> <TPSA>
81.42

> <RotBonds>
3

> <ROCS_ShapeQuery>
A71EV2A-x0451_0A_A71EV2A-x0310_0A_A71EV2A-x0416_0A_peptide

> <ROCS_TanimotoCombo>
0.412 

> <ROCS_ShapeTanimoto>
0.264 

> <ROCS_ColorTanimoto>
0.149 

> <ROCS_RefTversky>
0.237 

> <ROCS_RefColorTversky>
0.165 

> <ROCS_RefTverskyCombo>
0.401 

> <ROCS_FitTversky>
1.743 

> <ROCS_FitColorTversky>
0.609 

> <ROCS_FitTverskyCombo>
2.352 

> <ROCS_ColorScore>
-5.013

> <ROCS_Overlap>
1640.824

> <ROCS_Rank>
425                 

$$$$
untitled-dbase-784_31
  -OEChem-11112315393D

 34 34  0     0  0  0  0  0  0999 V2000
    8.8632   10.0683   23.2841 C   0  0  0  0  0  0  0  0  0  0  0  0
   10.8132   13.2083   23.2959 C   0  0  0  0  0  0  0  0  0  0  0  0
    8.4757   10.9404   26.2708 C   0  0  0  0  0  0  0  0  0  0  0  0
    6.8037   11.9708   24.6774 C   0  0  0  0  0  0  0  0  0  0  0  0
    9.6151   11.3277   25.3241 C   0  0  0  0  0  0  0  0  0  0  0  0
    7.9450   12.3587   23.7331 C   0  0  0  0  0  0  0  0  0  0  0  0
    7.2489   11.8537   26.1417 C   0  0  0  0  0  0  0  0  0  0  0  0
    9.1696   11.4291   23.8523 C   0  0  0  0  0  0  0  0  0  0  0  0
    7.5013   13.2290   26.7667 C   0  0  0  0  0  0  0  0  0  0  0  0
    9.4960    8.5565   21.5818 C   0  0  0  0  0  0  0  0  0  0  0  0
   11.9477   13.5405   22.3605 C   0  0  0  0  0  0  0  0  0  0  0  0
   10.2621   11.9606   23.0573 N   0  0  0  0  0  0  0  0  0  0  0  0
    8.0058    9.3173   23.7290 O   0  0  0  0  0  0  0  0  0  0  0  0
   10.4526   13.9840   24.1795 O   0  0  0  0  0  0  0  0  0  0  0  0
    9.6808    9.8237   22.2208 O   0  0  0  0  0  0  0  0  0  0  0  0
   11.9761   15.2972   22.1413 Cl  0  0  0  0  0  0  0  0  0  0  0  0
    8.1832    9.8968   26.0689 H   0  0  0  0  0  0  0  0  0  0  0  0
    8.8451   10.9540   27.3101 H   0  0  0  0  0  0  0  0  0  0  0  0
    5.9909   12.7117   24.5908 H   0  0  0  0  0  0  0  0  0  0  0  0
    6.3741   11.0121   24.3432 H   0  0  0  0  0  0  0  0  0  0  0  0
   10.0622   12.2755   25.6574 H   0  0  0  0  0  0  0  0  0  0  0  0
   10.4180   10.5801   25.4097 H   0  0  0  0  0  0  0  0  0  0  0  0
    7.5728   12.3381   22.6978 H   0  0  0  0  0  0  0  0  0  0  0  0
    8.2351   13.4030   23.9185 H   0  0  0  0  0  0  0  0  0  0  0  0
    6.4182   11.3814   26.7082 H   0  0  0  0  0  0  0  0  0  0  0  0
    8.3117   13.7303   26.2403 H   0  0  0  0  0  0  0  0  0  0  0  0
    7.7738   13.1136   27.8144 H   0  0  0  0  0  0  0  0  0  0  0  0
    6.6006   13.8367   26.6970 H   0  0  0  0  0  0  0  0  0  0  0  0
   10.1961    8.4625   20.7481 H   0  0  0  0  0  0  0  0  0  0  0  0
    8.4681    8.4768   21.2191 H   0  0  0  0  0  0  0  0  0  0  0  0
    9.6872    7.7617   22.3066 H   0  0  0  0  0  0  0  0  0  0  0  0
   12.9183   13.2201   22.7472 H   0  0  0  0  0  0  0  0  0  0  0  0
   11.7729   13.0617   21.3932 H   0  0  0  0  0  0  0  0  0  0  0  0
   10.6354   11.3972   22.2992 H   0  0  0  0  0  0  0  0  0  0  0  0
  1  8  1  0  0  0  0
  1 13  2  0  0  0  0
  1 15  1  0  0  0  0
  2 11  1  0  0  0  0
  2 12  1  0  0  0  0
  2 14  2  0  0  0  0
  3  5  1  0  0  0  0
  3  7  1  0  0  0  0
  4  6  1  0  0  0  0
  4  7  1  0  0  0  0
  5  8  1  0  0  0  0
  6  8  1  0  0  0  0
  7  9  1  0  0  0  0
  8 12  1  0  0  0  0
 10 15  1  0  0  0  0
 11 16  1  0  0  0  0
  3 17  1  0  0  0  0
  3 18  1  0  0  0  0
  4 19  1  0  0  0  0
  4 20  1  0  0  0  0
  5 21  1  0  0  0  0
  5 22  1  0  0  0  0
  6 23  1  0  0  0  0
  6 24  1  0  0  0  0
  7 25  1  0  0  0  0
  9 26  1  0  0  0  0
  9 27  1  0  0  0  0
  9 28  1  0  0  0  0
 10 29  1  0  0  0  0
 10 30  1  0  0  0  0
 10 31  1  0  0  0  0
 11 32  1  0  0  0  0
 11 33  1  0  0  0  0
 12 34  1  0  0  0  0
M  END
> <Catalog ID>
Z561986670

> <MW>
247.098

> <MW (desalted)>
247.719

> <ClogP>
2.275

> <logS>
-2.873

> <HBD>
1

> <HBA>
2

> <TPSA>
55.4

> <RotBonds>
4

> <ROCS_ShapeQuery>
A71EV2A-x0451_0A_A71EV2A-x0310_0A_A71EV2A-x0416_0A_peptide

> <ROCS_TanimotoCombo>
0.412 

> <ROCS_ShapeTanimoto>
0.275 

> <ROCS_ColorTanimoto>
0.137 

> <ROCS_RefTversky>
0.247 

> <ROCS_RefColorTversky>
0.142 

> <ROCS_RefTverskyCombo>
0.389 

> <ROCS_FitTversky>
1.706 

> <ROCS_FitColorTversky>
0.801 

> <ROCS_FitTverskyCombo>
2.507 

> <ROCS_ColorScore>
-4.314

> <ROCS_Overlap>
1710.246

> <ROCS_Rank>
426                 

$$$$
untitled-dbase-449_358
  -OEChem-11112315393D

 30 32  0     1  0  0  0  0  0999 V2000
   12.0406   14.3549   22.6269 C   0  0  0  0  0  0  0  0  0  0  0  0
   11.3313   13.1576   22.3689 C   0  0  0  0  0  0  0  0  0  0  0  0
    8.2241    7.7493   25.0186 C   0  0  0  0  0  0  0  0  0  0  0  0
   11.5560   14.8362   23.8208 C   0  0  0  0  0  0  0  0  0  0  0  0
    9.0029    6.6576   25.3335 C   0  0  0  0  0  0  0  0  0  0  0  0
   10.1611    8.2128   23.8204 C   0  0  0  0  0  0  0  0  0  0  0  0
    8.8949    8.6502   24.1419 C   0  0  0  0  0  0  0  0  0  0  0  0
   10.4639   12.9925   23.4236 C   0  0  0  0  0  0  0  0  0  0  0  0
    9.4688   11.9389   23.7203 C   0  0  0  0  0  0  0  0  0  0  0  0
    6.9091   10.6265   25.6340 C   0  0  0  0  0  0  0  0  0  0  0  0
    9.2511   10.7687   22.7923 C   0  0  0  0  0  0  0  0  0  0  0  0
    8.2849    9.9394   23.6253 C   0  0  2  0  0  0  0  0  0  0  0  0
    6.7508   11.6940   26.6887 C   0  0  0  0  0  0  0  0  0  0  0  0
    8.7040   11.9588   24.7697 N   0  0  0  0  0  0  0  0  0  0  0  0
    7.9372   10.8307   24.7329 N   0  0  0  0  0  0  0  0  0  0  0  0
    6.1533    9.6540   25.6089 O   0  0  0  0  0  0  0  0  0  0  0  0
   10.5947   14.0115   24.3131 O   0  0  0  0  0  0  0  0  0  0  0  0
   10.5363    6.7215   24.5738 S   0  0  0  0  0  0  0  0  0  0  0  0
    5.6727   12.9104   26.0145 Cl  0  0  0  0  0  0  0  0  0  0  0  0
   12.8084   14.8104   22.0185 H   0  0  0  0  0  0  0  0  0  0  0  0
   11.4416   12.4999   21.5184 H   0  0  0  0  0  0  0  0  0  0  0  0
    7.2214    7.8911   25.4015 H   0  0  0  0  0  0  0  0  0  0  0  0
   11.7780   15.7061   24.4215 H   0  0  0  0  0  0  0  0  0  0  0  0
    8.7452    5.8259   25.9739 H   0  0  0  0  0  0  0  0  0  0  0  0
   10.8872    8.6950   23.1806 H   0  0  0  0  0  0  0  0  0  0  0  0
    8.7821   11.1371   21.8741 H   0  0  0  0  0  0  0  0  0  0  0  0
   10.1989   10.2751   22.5587 H   0  0  0  0  0  0  0  0  0  0  0  0
    7.3677    9.6847   23.0589 H   0  0  0  0  0  0  0  0  0  0  0  0
    7.7215   12.1291   26.8949 H   0  0  0  0  0  0  0  0  0  0  0  0
    6.3068   11.2503   27.5719 H   0  0  0  0  0  0  0  0  0  0  0  0
  1  2  1  0  0  0  0
  1  4  2  0  0  0  0
  2  8  2  0  0  0  0
  3  5  2  0  0  0  0
  3  7  1  0  0  0  0
  4 17  1  0  0  0  0
  5 18  1  0  0  0  0
  6  7  2  0  0  0  0
  6 18  1  0  0  0  0
  7 12  1  0  0  0  0
  8  9  1  0  0  0  0
  8 17  1  0  0  0  0
  9 11  1  0  0  0  0
  9 14  2  0  0  0  0
 10 13  1  0  0  0  0
 10 15  1  0  0  0  0
 10 16  2  0  0  0  0
 11 12  1  0  0  0  0
 12 15  1  0  0  0  0
 13 19  1  0  0  0  0
 14 15  1  0  0  0  0
  1 20  1  0  0  0  0
  2 21  1  0  0  0  0
  3 22  1  0  0  0  0
  4 23  1  0  0  0  0
  5 24  1  0  0  0  0
  6 25  1  0  0  0  0
 11 26  1  0  0  0  0
 11 27  1  0  0  0  0
 12 28  1  0  0  0  0
 13 29  1  0  0  0  0
 13 30  1  0  0  0  0
M  END
> <Catalog ID>
Z2737381170

> <MW>
294.757

> <MW (desalted)>
294.757

> <ClogP>
2.092

> <logS>
-3.64

> <HBD>
0

> <HBA>
2

> <TPSA>
45.81

> <RotBonds>
3

> <ROCS_ShapeQuery>
A71EV2A-x0451_0A_A71EV2A-x0310_0A_A71EV2A-x0416_0A_peptide

> <ROCS_TanimotoCombo>
0.412 

> <ROCS_ShapeTanimoto>
0.310 

> <ROCS_ColorTanimoto>
0.102 

> <ROCS_RefTversky>
0.277 

> <ROCS_RefColorTversky>
0.114 

> <ROCS_RefTverskyCombo>
0.391 

> <ROCS_FitTversky>
1.641 

> <ROCS_FitColorTversky>
0.477 

> <ROCS_FitTverskyCombo>
2.118 

> <ROCS_ColorScore>
-3.478

> <ROCS_Overlap>
1920.714

> <ROCS_Rank>
427                 

$$$$
untitled-dbase-512_351
  -OEChem-11112315393D

 25 25  0     0  0  0  0  0  0999 V2000
    7.4201   10.1655   24.8157 C   0  0  0  0  0  0  0  0  0  0  0  0
    7.4859   11.5518   24.9548 C   0  0  0  0  0  0  0  0  0  0  0  0
    8.3307    9.5032   23.9923 C   0  0  0  0  0  0  0  0  0  0  0  0
    8.4621   12.2759   24.2705 C   0  0  0  0  0  0  0  0  0  0  0  0
    9.3069   10.2273   23.3079 C   0  0  0  0  0  0  0  0  0  0  0  0
    9.3726   11.6136   23.4470 C   0  0  0  0  0  0  0  0  0  0  0  0
    8.5012   13.7234   24.4395 C   0  0  0  0  0  0  0  0  0  0  0  0
   10.9348   13.5246   23.1813 C   0  0  0  0  0  0  0  0  0  0  0  0
   10.2677    9.4888   22.4332 C   0  0  0  0  0  0  0  0  0  0  0  0
   11.9572   14.0282   22.1891 C   0  0  0  0  0  0  0  0  0  0  0  0
   10.3534   12.3376   22.7591 N   0  0  0  0  0  0  0  0  0  0  0  0
    8.3709   14.5503   23.5337 O   0  0  0  0  0  0  0  0  0  0  0  0
   10.6969   14.1653   24.2017 O   0  0  0  0  0  0  0  0  0  0  0  0
    8.7006   14.0875   25.7345 O   0  0  0  0  0  0  0  0  0  0  0  0
   11.1203   15.0843   21.0402 Cl  0  0  0  0  0  0  0  0  0  0  0  0
    6.6600    9.6016   25.3485 H   0  0  0  0  0  0  0  0  0  0  0  0
    6.7707   12.0562   25.5996 H   0  0  0  0  0  0  0  0  0  0  0  0
    8.2708    8.4227   23.8908 H   0  0  0  0  0  0  0  0  0  0  0  0
    9.8707    9.4121   21.4147 H   0  0  0  0  0  0  0  0  0  0  0  0
   11.2381    9.9980   22.3937 H   0  0  0  0  0  0  0  0  0  0  0  0
   10.4523    8.4773   22.8146 H   0  0  0  0  0  0  0  0  0  0  0  0
   12.4439   13.2209   21.6362 H   0  0  0  0  0  0  0  0  0  0  0  0
   12.7213   14.6069   22.7156 H   0  0  0  0  0  0  0  0  0  0  0  0
   10.6682   11.9596   21.8697 H   0  0  0  0  0  0  0  0  0  0  0  0
    8.7276   15.0601   25.8590 H   0  0  0  0  0  0  0  0  0  0  0  0
  1  2  1  0  0  0  0
  1  3  2  0  0  0  0
  2  4  2  0  0  0  0
  3  5  1  0  0  0  0
  4  6  1  0  0  0  0
  4  7  1  0  0  0  0
  5  6  2  0  0  0  0
  5  9  1  0  0  0  0
  6 11  1  0  0  0  0
  7 12  2  0  0  0  0
  7 14  1  0  0  0  0
  8 10  1  0  0  0  0
  8 11  1  0  0  0  0
  8 13  2  0  0  0  0
 10 15  1  0  0  0  0
  1 16  1  0  0  0  0
  2 17  1  0  0  0  0
  3 18  1  0  0  0  0
  9 19  1  0  0  0  0
  9 20  1  0  0  0  0
  9 21  1  0  0  0  0
 10 22  1  0  0  0  0
 10 23  1  0  0  0  0
 11 24  1  0  0  0  0
 14 25  1  0  0  0  0
M  END
> <Catalog ID>
Z157039514

> <MW>
227.035

> <MW (desalted)>
227.644

> <ClogP>
2.29

> <logS>
-2.6

> <HBD>
2

> <HBA>
3

> <TPSA>
66.4

> <RotBonds>
3

> <ROCS_ShapeQuery>
A71EV2A-x0451_0A_A71EV2A-x0310_0A_A71EV2A-x0416_0A_peptide

> <ROCS_TanimotoCombo>
0.412 

> <ROCS_ShapeTanimoto>
0.284 

> <ROCS_ColorTanimoto>
0.128 

> <ROCS_RefTversky>
0.253 

> <ROCS_RefColorTversky>
0.140 

> <ROCS_RefTverskyCombo>
0.393 

> <ROCS_FitTversky>
1.786 

> <ROCS_FitColorTversky>
0.585 

> <ROCS_FitTverskyCombo>
2.371 

> <ROCS_ColorScore>
-4.270

> <ROCS_Overlap>
1750.930

> <ROCS_Rank>
428                 

$$$$
untitled-dbase-536_11
  -OEChem-11112315393D

 22 22  0     0  0  0  0  0  0999 V2000
    9.5789   10.3425   23.1817 C   0  0  0  0  0  0  0  0  0  0  0  0
    8.9614   12.3086   24.4426 C   0  0  0  0  0  0  0  0  0  0  0  0
    7.4665   10.4128   24.3521 C   0  0  0  0  0  0  0  0  0  0  0  0
    9.8714   11.6298   23.6321 C   0  0  0  0  0  0  0  0  0  0  0  0
    8.3765    9.7340   23.5416 C   0  0  0  0  0  0  0  0  0  0  0  0
    7.7589   11.7001   24.8026 C   0  0  0  0  0  0  0  0  0  0  0  0
   10.7270   14.6152   22.5372 C   0  0  0  0  0  0  0  0  0  0  0  0
   11.1570   12.2800   23.2471 C   0  0  0  0  0  0  0  0  0  0  0  0
   10.5978   15.4896   21.3161 C   0  0  0  0  0  0  0  0  0  0  0  0
   10.9793   13.2867   22.2315 N   0  0  0  0  0  0  0  0  0  0  0  0
   10.6293   15.0714   23.6750 O   0  0  0  0  0  0  0  0  0  0  0  0
    8.0959    8.4979   23.1089 F   0  0  0  0  0  0  0  0  0  0  0  0
    6.8852   12.3517   25.5811 F   0  0  0  0  0  0  0  0  0  0  0  0
   12.2078   16.1090   20.9171 Cl  0  0  0  0  0  0  0  0  0  0  0  0
   10.2813    9.8057   22.5498 H   0  0  0  0  0  0  0  0  0  0  0  0
    9.1809   13.3116   24.7987 H   0  0  0  0  0  0  0  0  0  0  0  0
    6.5311    9.9387   24.6326 H   0  0  0  0  0  0  0  0  0  0  0  0
   11.6307   12.7645   24.1124 H   0  0  0  0  0  0  0  0  0  0  0  0
   11.8787   11.5478   22.8594 H   0  0  0  0  0  0  0  0  0  0  0  0
   10.2068   14.9480   20.4513 H   0  0  0  0  0  0  0  0  0  0  0  0
    9.9359   16.3306   21.5399 H   0  0  0  0  0  0  0  0  0  0  0  0
   11.0412   13.0124   21.2542 H   0  0  0  0  0  0  0  0  0  0  0  0
  1  4  2  0  0  0  0
  1  5  1  0  0  0  0
  2  4  1  0  0  0  0
  2  6  2  0  0  0  0
  3  5  2  0  0  0  0
  3  6  1  0  0  0  0
  4  8  1  0  0  0  0
  5 12  1  0  0  0  0
  6 13  1  0  0  0  0
  7  9  1  0  0  0  0
  7 10  1  0  0  0  0
  7 11  2  0  0  0  0
  8 10  1  0  0  0  0
  9 14  1  0  0  0  0
  1 15  1  0  0  0  0
  2 16  1  0  0  0  0
  3 17  1  0  0  0  0
  8 18  1  0  0  0  0
  8 19  1  0  0  0  0
  9 20  1  0  0  0  0
  9 21  1  0  0  0  0
 10 22  1  0  0  0  0
M  END
> <Catalog ID>
Z561425378

> <MW>
219.026

> <MW (desalted)>
219.616

> <ClogP>
1.849

> <logS>
-2.603

> <HBD>
1

> <HBA>
1

> <TPSA>
29.1

> <RotBonds>
3

> <ROCS_ShapeQuery>
A71EV2A-x0451_0A_A71EV2A-x0310_0A_A71EV2A-x0416_0A_peptide

> <ROCS_TanimotoCombo>
0.412 

> <ROCS_ShapeTanimoto>
0.282 

> <ROCS_ColorTanimoto>
0.130 

> <ROCS_RefTversky>
0.249 

> <ROCS_RefColorTversky>
0.132 

> <ROCS_RefTverskyCombo>
0.381 

> <ROCS_FitTversky>
1.860 

> <ROCS_FitColorTversky>
0.903 

> <ROCS_FitTverskyCombo>
2.763 

> <ROCS_ColorScore>
-4.005

> <ROCS_Overlap>
1725.118

> <ROCS_Rank>
429                 

$$$$
untitled-dbase-554_14
  -OEChem-11112315393D

 18 18  0     0  0  0  0  0  0999 V2000
    7.3789   11.6534   25.0102 C   0  0  0  0  0  0  0  0  0  0  0  0
    8.3761   12.3308   24.3174 C   0  0  0  0  0  0  0  0  0  0  0  0
    7.3243   10.2746   24.8850 C   0  0  0  0  0  0  0  0  0  0  0  0
    9.1362   10.2415   23.4729 C   0  0  0  0  0  0  0  0  0  0  0  0
    9.2755   11.6187   23.5317 C   0  0  0  0  0  0  0  0  0  0  0  0
   10.9120   13.4552   23.1972 C   0  0  0  0  0  0  0  0  0  0  0  0
   11.9621   13.8741   22.1945 C   0  0  0  0  0  0  0  0  0  0  0  0
    8.1803    9.5485   24.1315 N   0  0  0  0  0  0  0  0  0  0  0  0
   10.2845   12.2698   22.8261 N   0  0  0  0  0  0  0  0  0  0  0  0
   10.6894   14.1503   24.1848 O   0  0  0  0  0  0  0  0  0  0  0  0
   11.4525   13.2895   20.6026 Cl  0  0  0  0  0  0  0  0  0  0  0  0
    6.6669   12.1879   25.6286 H   0  0  0  0  0  0  0  0  0  0  0  0
    8.4432   13.4126   24.3967 H   0  0  0  0  0  0  0  0  0  0  0  0
    6.5646    9.6999   25.4046 H   0  0  0  0  0  0  0  0  0  0  0  0
    9.8080    9.6310   22.8767 H   0  0  0  0  0  0  0  0  0  0  0  0
   12.9502   13.4654   22.4207 H   0  0  0  0  0  0  0  0  0  0  0  0
   12.0279   14.9655   22.1705 H   0  0  0  0  0  0  0  0  0  0  0  0
   10.5924   11.8371   21.9560 H   0  0  0  0  0  0  0  0  0  0  0  0
  1  2  2  0  0  0  0
  1  3  1  0  0  0  0
  2  5  1  0  0  0  0
  3  8  2  0  0  0  0
  4  5  2  0  0  0  0
  4  8  1  0  0  0  0
  5  9  1  0  0  0  0
  6  7  1  0  0  0  0
  6  9  1  0  0  0  0
  6 10  2  0  0  0  0
  7 11  1  0  0  0  0
  1 12  1  0  0  0  0
  2 13  1  0  0  0  0
  3 14  1  0  0  0  0
  4 15  1  0  0  0  0
  7 16  1  0  0  0  0
  7 17  1  0  0  0  0
  9 18  1  0  0  0  0
M  END
> <Catalog ID>
Z1558574655

> <MW>
206.001

> <MW (desalted)>
170.596

> <ClogP>
1.105

> <logS>
-1.67

> <HBD>
1

> <HBA>
2

> <TPSA>
41.99

> <RotBonds>
2

> <ROCS_ShapeQuery>
A71EV2A-x0451_0A_A71EV2A-x0310_0A_A71EV2A-x0416_0A_peptide

> <ROCS_TanimotoCombo>
0.412 

> <ROCS_ShapeTanimoto>
0.239 

> <ROCS_ColorTanimoto>
0.172 

> <ROCS_RefTversky>
0.216 

> <ROCS_RefColorTversky>
0.173 

> <ROCS_RefTverskyCombo>
0.389 

> <ROCS_FitTversky>
1.848 

> <ROCS_FitColorTversky>
0.974 

> <ROCS_FitTverskyCombo>
2.821 

> <ROCS_ColorScore>
-5.244

> <ROCS_Overlap>
1492.914

> <ROCS_Rank>
430                 

$$$$
untitled-dbase-181_59
  -OEChem-11112315393D

 25 25  0     0  0  0  0  0  0999 V2000
    8.7795    9.6358   23.5378 C   0  0  0  0  0  0  0  0  0  0  0  0
    7.3412   11.4610   24.1988 C   0  0  0  0  0  0  0  0  0  0  0  0
    9.8730   10.5016   23.5263 C   0  0  0  0  0  0  0  0  0  0  0  0
    8.4348   12.3269   24.1874 C   0  0  0  0  0  0  0  0  0  0  0  0
    7.5136   10.1155   23.8740 C   0  0  0  0  0  0  0  0  0  0  0  0
    9.7007   11.8471   23.8511 C   0  0  0  0  0  0  0  0  0  0  0  0
   11.4486   14.8102   21.8106 C   0  0  0  0  0  0  0  0  0  0  0  0
    6.3440    9.1902   23.8857 C   0  0  0  0  0  0  0  0  0  0  0  0
   12.0131   14.8667   20.4196 C   0  0  0  0  0  0  0  0  0  0  0  0
   11.0479   13.4978   22.2210 N   0  0  0  0  0  0  0  0  0  0  0  0
   11.3765   15.8015   22.5294 O   0  0  0  0  0  0  0  0  0  0  0  0
   12.2871   12.1578   24.0477 O   0  0  0  0  0  0  0  0  0  0  0  0
   10.7602   14.0416   24.7285 O   0  0  0  0  0  0  0  0  0  0  0  0
   11.0697   12.9305   23.8389 S   0  0  0  0  0  0  0  0  0  0  0  0
   13.1868   16.1890   20.3691 Cl  0  0  0  0  0  0  0  0  0  0  0  0
    8.9233    8.5892   23.2830 H   0  0  0  0  0  0  0  0  0  0  0  0
    6.3586   11.8437   24.4617 H   0  0  0  0  0  0  0  0  0  0  0  0
   10.8549   10.1177   23.2624 H   0  0  0  0  0  0  0  0  0  0  0  0
    8.2891   13.3734   24.4417 H   0  0  0  0  0  0  0  0  0  0  0  0
    6.2253    8.7371   24.8776 H   0  0  0  0  0  0  0  0  0  0  0  0
    5.4158    9.7179   23.6309 H   0  0  0  0  0  0  0  0  0  0  0  0
    6.4648    8.3860   23.1481 H   0  0  0  0  0  0  0  0  0  0  0  0
   12.5064   13.9295   20.1495 H   0  0  0  0  0  0  0  0  0  0  0  0
   11.2137   15.0712   19.7023 H   0  0  0  0  0  0  0  0  0  0  0  0
   10.7236   12.8487   21.4925 H   0  0  0  0  0  0  0  0  0  0  0  0
  1  3  2  0  0  0  0
  1  5  1  0  0  0  0
  2  4  1  0  0  0  0
  2  5  2  0  0  0  0
  3  6  1  0  0  0  0
  4  6  2  0  0  0  0
  5  8  1  0  0  0  0
  6 14  1  0  0  0  0
  7  9  1  0  0  0  0
  7 10  1  0  0  0  0
  7 11  2  0  0  0  0
  9 15  1  0  0  0  0
 10 14  1  0  0  0  0
 12 14  2  0  0  0  0
 13 14  2  0  0  0  0
  1 16  1  0  0  0  0
  2 17  1  0  0  0  0
  3 18  1  0  0  0  0
  4 19  1  0  0  0  0
  8 20  1  0  0  0  0
  8 21  1  0  0  0  0
  8 22  1  0  0  0  0
  9 23  1  0  0  0  0
  9 24  1  0  0  0  0
 10 25  1  0  0  0  0
M  END
> <Catalog ID>
Z56754579

> <MW>
247.007

> <MW (desalted)>
247.699

> <ClogP>
1.113

> <logS>
-2.81

> <HBD>
1

> <HBA>
3

> <TPSA>
63.24

> <RotBonds>
2

> <ROCS_ShapeQuery>
A71EV2A-x0451_0A_A71EV2A-x0310_0A_A71EV2A-x0416_0A_peptide

> <ROCS_TanimotoCombo>
0.412 

> <ROCS_ShapeTanimoto>
0.267 

> <ROCS_ColorTanimoto>
0.145 

> <ROCS_RefTversky>
0.240 

> <ROCS_RefColorTversky>
0.153 

> <ROCS_RefTverskyCombo>
0.392 

> <ROCS_FitTversky>
1.750 

> <ROCS_FitColorTversky>
0.731 

> <ROCS_FitTverskyCombo>
2.482 

> <ROCS_ColorScore>
-4.637

> <ROCS_Overlap>
1659.642

> <ROCS_Rank>
431                 

$$$$
untitled-dbase-695_12
  -OEChem-11112315393D

 34 35  0     0  0  0  0  0  0999 V2000
    8.3584    9.5002   23.9765 C   0  0  0  0  0  0  0  0  0  0  0  0
    9.3302   10.2329   23.2951 C   0  0  0  0  0  0  0  0  0  0  0  0
    8.4660   12.2737   24.2572 C   0  0  0  0  0  0  0  0  0  0  0  0
    7.4941   11.5409   24.9386 C   0  0  0  0  0  0  0  0  0  0  0  0
    7.4403   10.1542   24.7982 C   0  0  0  0  0  0  0  0  0  0  0  0
    9.3840   11.6197   23.4355 C   0  0  0  0  0  0  0  0  0  0  0  0
   10.9279   13.5466   23.1786 C   0  0  0  0  0  0  0  0  0  0  0  0
    5.4084    8.0570   27.1186 C   0  0  0  0  0  0  0  0  0  0  0  0
    4.4163    8.3357   26.0077 C   0  0  0  0  0  0  0  0  0  0  0  0
    6.7496    8.3355   26.4497 C   0  0  0  0  0  0  0  0  0  0  0  0
    5.0147    9.5579   25.3207 C   0  0  0  0  0  0  0  0  0  0  0  0
    6.5223   12.2667   25.8110 C   0  0  0  0  0  0  0  0  0  0  0  0
   11.9484   14.0623   22.1906 C   0  0  0  0  0  0  0  0  0  0  0  0
    6.4657    9.3987   25.4778 N   0  0  0  0  0  0  0  0  0  0  0  0
   10.3565   12.3523   22.7543 N   0  0  0  0  0  0  0  0  0  0  0  0
   10.6806   14.1828   24.1995 O   0  0  0  0  0  0  0  0  0  0  0  0
   11.1047   15.1124   21.0412 Cl  0  0  0  0  0  0  0  0  0  0  0  0
    8.3258    8.4198   23.8593 H   0  0  0  0  0  0  0  0  0  0  0  0
   10.0409    9.7131   22.6577 H   0  0  0  0  0  0  0  0  0  0  0  0
    8.5074   13.3553   24.3665 H   0  0  0  0  0  0  0  0  0  0  0  0
    5.2415    8.6886   27.9955 H   0  0  0  0  0  0  0  0  0  0  0  0
    5.3489    7.0073   27.4293 H   0  0  0  0  0  0  0  0  0  0  0  0
    4.3049    7.4880   25.3259 H   0  0  0  0  0  0  0  0  0  0  0  0
    3.4321    8.5775   26.4259 H   0  0  0  0  0  0  0  0  0  0  0  0
    7.4844    8.6923   27.1801 H   0  0  0  0  0  0  0  0  0  0  0  0
    7.1408    7.4353   25.9638 H   0  0  0  0  0  0  0  0  0  0  0  0
    4.7604    9.5703   24.2548 H   0  0  0  0  0  0  0  0  0  0  0  0
    4.6553   10.4838   25.7816 H   0  0  0  0  0  0  0  0  0  0  0  0
    5.6367   12.5555   25.2337 H   0  0  0  0  0  0  0  0  0  0  0  0
    6.2026   11.6409   26.6531 H   0  0  0  0  0  0  0  0  0  0  0  0
    6.9726   13.1713   26.2377 H   0  0  0  0  0  0  0  0  0  0  0  0
   12.4449   13.2609   21.6376 H   0  0  0  0  0  0  0  0  0  0  0  0
   12.7051   14.6475   22.7207 H   0  0  0  0  0  0  0  0  0  0  0  0
   10.6776   11.9775   21.8637 H   0  0  0  0  0  0  0  0  0  0  0  0
  1  2  2  0  0  0  0
  1  5  1  0  0  0  0
  2  6  1  0  0  0  0
  3  4  1  0  0  0  0
  3  6  2  0  0  0  0
  4  5  2  0  0  0  0
  4 12  1  0  0  0  0
  5 14  1  0  0  0  0
  6 15  1  0  0  0  0
  7 13  1  0  0  0  0
  7 15  1  0  0  0  0
  7 16  2  0  0  0  0
  8  9  1  0  0  0  0
  8 10  1  0  0  0  0
  9 11  1  0  0  0  0
 10 14  1  0  0  0  0
 11 14  1  0  0  0  0
 13 17  1  0  0  0  0
  1 18  1  0  0  0  0
  2 19  1  0  0  0  0
  3 20  1  0  0  0  0
  8 21  1  0  0  0  0
  8 22  1  0  0  0  0
  9 23  1  0  0  0  0
  9 24  1  0  0  0  0
 10 25  1  0  0  0  0
 10 26  1  0  0  0  0
 11 27  1  0  0  0  0
 11 28  1  0  0  0  0
 12 29  1  0  0  0  0
 12 30  1  0  0  0  0
 12 31  1  0  0  0  0
 13 32  1  0  0  0  0
 13 33  1  0  0  0  0
 15 34  1  0  0  0  0
M  END
> <Catalog ID>
Z111423578

> <MW>
252.103

> <MW (desalted)>
252.74

> <ClogP>
2.552

> <logS>
-3.02

> <HBD>
1

> <HBA>
2

> <TPSA>
32.34

> <RotBonds>
3

> <ROCS_ShapeQuery>
A71EV2A-x0451_0A_A71EV2A-x0310_0A_A71EV2A-x0416_0A_peptide

> <ROCS_TanimotoCombo>
0.412 

> <ROCS_ShapeTanimoto>
0.276 

> <ROCS_ColorTanimoto>
0.135 

> <ROCS_RefTversky>
0.250 

> <ROCS_RefColorTversky>
0.140 

> <ROCS_RefTverskyCombo>
0.390 

> <ROCS_FitTversky>
1.627 

> <ROCS_FitColorTversky>
0.790 

> <ROCS_FitTverskyCombo>
2.417 

> <ROCS_ColorScore>
-4.257

> <ROCS_Overlap>
1730.993

> <ROCS_Rank>
432                 

$$$$
untitled-dbase-666_7
  -OEChem-11112315393D

 21 21  0     0  0  0  0  0  0999 V2000
    8.1227    9.8605   23.9245 C   0  0  0  0  0  0  0  0  0  0  0  0
    7.8241   10.9660   24.7209 C   0  0  0  0  0  0  0  0  0  0  0  0
    9.1682    9.9264   23.0034 C   0  0  0  0  0  0  0  0  0  0  0  0
    8.5710   12.1375   24.5963 C   0  0  0  0  0  0  0  0  0  0  0  0
    9.9150   11.0979   22.8788 C   0  0  0  0  0  0  0  0  0  0  0  0
    9.6164   12.2034   23.6753 C   0  0  0  0  0  0  0  0  0  0  0  0
   10.3950   13.4248   23.5454 C   0  0  0  0  0  0  0  0  0  0  0  0
   11.8007   14.7564   21.9780 C   0  0  0  0  0  0  0  0  0  0  0  0
   12.2654   14.7429   20.5437 C   0  0  0  0  0  0  0  0  0  0  0  0
   10.9946   13.6639   22.2946 N   0  0  0  0  0  0  0  0  0  0  0  0
   10.5317   14.1890   24.5164 O   0  0  0  0  0  0  0  0  0  0  0  0
   12.1033   15.6676   22.7460 O   0  0  0  0  0  0  0  0  0  0  0  0
   12.5153   16.4217   20.0403 Cl  0  0  0  0  0  0  0  0  0  0  0  0
    7.5411    8.9485   24.0215 H   0  0  0  0  0  0  0  0  0  0  0  0
    7.0099   10.9145   25.4379 H   0  0  0  0  0  0  0  0  0  0  0  0
    9.4008    9.0656   22.3835 H   0  0  0  0  0  0  0  0  0  0  0  0
    8.3297   12.9930   25.2220 H   0  0  0  0  0  0  0  0  0  0  0  0
   10.7274   11.1380   22.1577 H   0  0  0  0  0  0  0  0  0  0  0  0
   13.2137   14.2027   20.4738 H   0  0  0  0  0  0  0  0  0  0  0  0
   11.5408   14.2774   19.8707 H   0  0  0  0  0  0  0  0  0  0  0  0
   10.8326   12.9773   21.5633 H   0  0  0  0  0  0  0  0  0  0  0  0
  1  2  1  0  0  0  0
  1  3  2  0  0  0  0
  2  4  2  0  0  0  0
  3  5  1  0  0  0  0
  4  6  1  0  0  0  0
  5  6  2  0  0  0  0
  6  7  1  0  0  0  0
  7 10  1  0  0  0  0
  7 11  2  0  0  0  0
  8  9  1  0  0  0  0
  8 10  1  0  0  0  0
  8 12  2  0  0  0  0
  9 13  1  0  0  0  0
  1 14  1  0  0  0  0
  2 15  1  0  0  0  0
  3 16  1  0  0  0  0
  4 17  1  0  0  0  0
  5 18  1  0  0  0  0
  9 19  1  0  0  0  0
  9 20  1  0  0  0  0
 10 21  1  0  0  0  0
M  END
> <Catalog ID>
Z56907603

> <MW>
197.024

> <MW (desalted)>
197.618

> <ClogP>
1.284

> <logS>
-2.56

> <HBD>
1

> <HBA>
2

> <TPSA>
46.17

> <RotBonds>
2

> <ROCS_ShapeQuery>
A71EV2A-x0451_0A_A71EV2A-x0310_0A_A71EV2A-x0416_0A_peptide

> <ROCS_TanimotoCombo>
0.412 

> <ROCS_ShapeTanimoto>
0.253 

> <ROCS_ColorTanimoto>
0.159 

> <ROCS_RefTversky>
0.228 

> <ROCS_RefColorTversky>
0.161 

> <ROCS_RefTverskyCombo>
0.389 

> <ROCS_FitTversky>
1.769 

> <ROCS_FitColorTversky>
0.909 

> <ROCS_FitTverskyCombo>
2.678 

> <ROCS_ColorScore>
-4.896

> <ROCS_Overlap>
1576.245

> <ROCS_Rank>
433                 

$$$$
untitled-dbase-823_14
  -OEChem-11112315393D

 20 20  0     0  0  0  0  0  0999 V2000
    9.7049   10.3417   22.7953 C   0  0  0  0  0  0  0  0  0  0  0  0
    8.6294   12.1010   24.0545 C   0  0  0  0  0  0  0  0  0  0  0  0
    8.8146    9.4124   23.3332 C   0  0  0  0  0  0  0  0  0  0  0  0
    7.7391   11.1717   24.5923 C   0  0  0  0  0  0  0  0  0  0  0  0
    9.6124   11.6860   23.1560 C   0  0  0  0  0  0  0  0  0  0  0  0
    7.8317    9.8274   24.2317 C   0  0  0  0  0  0  0  0  0  0  0  0
   10.9448   13.7790   23.2377 C   0  0  0  0  0  0  0  0  0  0  0  0
   11.9061   14.5500   22.3631 C   0  0  0  0  0  0  0  0  0  0  0  0
   10.5029   12.6156   22.6181 N   0  0  0  0  0  0  0  0  0  0  0  0
   10.6307   14.2138   24.3424 O   0  0  0  0  0  0  0  0  0  0  0  0
    6.9629    8.9206   24.7566 O   0  0  0  0  0  0  0  0  0  0  0  0
   11.4723   14.2351   20.6755 Cl  0  0  0  0  0  0  0  0  0  0  0  0
   10.4670   10.0072   22.0959 H   0  0  0  0  0  0  0  0  0  0  0  0
    8.5479   13.1459   24.3428 H   0  0  0  0  0  0  0  0  0  0  0  0
    8.8917    8.3666   23.0484 H   0  0  0  0  0  0  0  0  0  0  0  0
    6.9755   11.5010   25.2919 H   0  0  0  0  0  0  0  0  0  0  0  0
   12.9478   14.2586   22.5199 H   0  0  0  0  0  0  0  0  0  0  0  0
   11.8041   15.6200   22.5649 H   0  0  0  0  0  0  0  0  0  0  0  0
   10.8626   12.4242   21.6849 H   0  0  0  0  0  0  0  0  0  0  0  0
    7.1535    8.0336   24.4119 H   0  0  0  0  0  0  0  0  0  0  0  0
  1  3  2  0  0  0  0
  1  5  1  0  0  0  0
  2  4  1  0  0  0  0
  2  5  2  0  0  0  0
  3  6  1  0  0  0  0
  4  6  2  0  0  0  0
  5  9  1  0  0  0  0
  6 11  1  0  0  0  0
  7  8  1  0  0  0  0
  7  9  1  0  0  0  0
  7 10  2  0  0  0  0
  8 12  1  0  0  0  0
  1 13  1  0  0  0  0
  2 14  1  0  0  0  0
  3 15  1  0  0  0  0
  4 16  1  0  0  0  0
  8 17  1  0  0  0  0
  8 18  1  0  0  0  0
  9 19  1  0  0  0  0
 11 20  1  0  0  0  0
M  END
> <Catalog ID>
Z166646964

> <MW>
185.024

> <MW (desalted)>
185.608

> <ClogP>
1.107

> <logS>
-1.79

> <HBD>
2

> <HBA>
2

> <TPSA>
49.33

> <RotBonds>
2

> <ROCS_ShapeQuery>
A71EV2A-x0451_0A_A71EV2A-x0310_0A_A71EV2A-x0416_0A_peptide

> <ROCS_TanimotoCombo>
0.412 

> <ROCS_ShapeTanimoto>
0.252 

> <ROCS_ColorTanimoto>
0.160 

> <ROCS_RefTversky>
0.226 

> <ROCS_RefColorTversky>
0.166 

> <ROCS_RefTverskyCombo>
0.392 

> <ROCS_FitTversky>
1.843 

> <ROCS_FitColorTversky>
0.798 

> <ROCS_FitTverskyCombo>
2.641 

> <ROCS_ColorScore>
-5.057

> <ROCS_Overlap>
1562.803

> <ROCS_Rank>
434                 

$$$$
untitled-dbase-570_544
  -OEChem-11112315393D

 30 30  0     0  0  0  0  0  0999 V2000
    9.0012   11.1745   24.3693 C   0  0  0  0  0  0  0  0  0  0  0  0
    7.2539   11.7161   25.8596 C   0  0  0  0  0  0  0  0  0  0  0  0
   11.7705   14.2920   21.1221 C   0  0  0  0  0  0  0  0  0  0  0  0
   10.7272   14.4202   21.9476 C   0  0  0  0  0  0  0  0  0  0  0  0
   10.5570   13.4903   23.0958 C   0  0  0  0  0  0  0  0  0  0  0  0
    4.9781   11.6100   26.9343 C   0  0  0  0  0  0  0  0  0  0  0  0
    6.1628   13.8200   26.7139 C   0  0  0  0  0  0  0  0  0  0  0  0
    6.9244   12.1451   28.3860 C   0  0  0  0  0  0  0  0  0  0  0  0
   10.2653   11.0831   23.6112 C   0  0  0  0  0  0  0  0  0  0  0  0
    6.3554   12.3076   26.9582 C   0  0  0  0  0  0  0  0  0  0  0  0
    7.9296   10.4423   24.1513 N   0  0  0  0  0  0  0  0  0  0  0  0
    6.9044   10.7607   25.0247 N   0  0  0  0  0  0  0  0  0  0  0  0
   10.4428   12.1757   22.6800 N   0  0  0  0  0  0  0  0  0  0  0  0
   10.5234   13.8774   24.2594 O   0  0  0  0  0  0  0  0  0  0  0  0
    8.8514   12.3042   25.6512 S   0  0  0  0  0  0  0  0  0  0  0  0
   11.8873   14.9736   20.2860 H   0  0  0  0  0  0  0  0  0  0  0  0
   12.5250   13.5235   21.2489 H   0  0  0  0  0  0  0  0  0  0  0  0
    9.9948   15.2036   21.7855 H   0  0  0  0  0  0  0  0  0  0  0  0
    4.3168   12.0141   27.7097 H   0  0  0  0  0  0  0  0  0  0  0  0
    4.4639   11.7402   25.9757 H   0  0  0  0  0  0  0  0  0  0  0  0
    5.0787   10.5324   27.1100 H   0  0  0  0  0  0  0  0  0  0  0  0
    5.5271   14.2853   27.4750 H   0  0  0  0  0  0  0  0  0  0  0  0
    7.1231   14.3487   26.7319 H   0  0  0  0  0  0  0  0  0  0  0  0
    5.6980   14.0058   25.7384 H   0  0  0  0  0  0  0  0  0  0  0  0
    6.2495   12.5815   29.1323 H   0  0  0  0  0  0  0  0  0  0  0  0
    7.0565   11.0893   28.6503 H   0  0  0  0  0  0  0  0  0  0  0  0
    7.8924   12.6481   28.4944 H   0  0  0  0  0  0  0  0  0  0  0  0
   11.1453   11.0864   24.2784 H   0  0  0  0  0  0  0  0  0  0  0  0
   10.3326   10.1515   23.0225 H   0  0  0  0  0  0  0  0  0  0  0  0
   10.4504   11.9502   21.6902 H   0  0  0  0  0  0  0  0  0  0  0  0
  1  9  1  0  0  0  0
  1 11  2  0  0  0  0
  1 15  1  0  0  0  0
  2 10  1  0  0  0  0
  2 12  2  0  0  0  0
  2 15  1  0  0  0  0
  3  4  2  0  0  0  0
  4  5  1  0  0  0  0
  5 13  1  0  0  0  0
  5 14  2  0  0  0  0
  6 10  1  0  0  0  0
  7 10  1  0  0  0  0
  8 10  1  0  0  0  0
  9 13  1  0  0  0  0
 11 12  1  0  0  0  0
  3 16  1  0  0  0  0
  3 17  1  0  0  0  0
  4 18  1  0  0  0  0
  6 19  1  0  0  0  0
  6 20  1  0  0  0  0
  6 21  1  0  0  0  0
  7 22  1  0  0  0  0
  7 23  1  0  0  0  0
  7 24  1  0  0  0  0
  8 25  1  0  0  0  0
  8 26  1  0  0  0  0
  8 27  1  0  0  0  0
  9 28  1  0  0  0  0
  9 29  1  0  0  0  0
 13 30  1  0  0  0  0
M  END
> <Catalog ID>
Z2737383317

> <MW>
225.311

> <MW (desalted)>
225.311

> <ClogP>
0.265

> <logS>
-1.85

> <HBD>
1

> <HBA>
3

> <TPSA>
54.88

> <RotBonds>
4

> <ROCS_ShapeQuery>
A71EV2A-x0451_0A_A71EV2A-x0310_0A_A71EV2A-x0416_0A_peptide

> <ROCS_TanimotoCombo>
0.411 

> <ROCS_ShapeTanimoto>
0.249 

> <ROCS_ColorTanimoto>
0.162 

> <ROCS_RefTversky>
0.227 

> <ROCS_RefColorTversky>
0.178 

> <ROCS_RefTverskyCombo>
0.405 

> <ROCS_FitTversky>
1.651 

> <ROCS_FitColorTversky>
0.639 

> <ROCS_FitTverskyCombo>
2.289 

> <ROCS_ColorScore>
-5.437

> <ROCS_Overlap>
1573.434

> <ROCS_Rank>
435                 

$$$$
untitled-dbase-378_2
  -OEChem-11112315393D

 22 22  0     0  0  0  0  0  0999 V2000
    8.4669   12.2878   24.2589 C   0  0  0  0  0  0  0  0  0  0  0  0
    7.4860   11.5774   24.9507 C   0  0  0  0  0  0  0  0  0  0  0  0
    8.3201    9.5128   24.0133 C   0  0  0  0  0  0  0  0  0  0  0  0
    9.3011   10.2232   23.3214 C   0  0  0  0  0  0  0  0  0  0  0  0
    9.3745   11.6107   23.4442 C   0  0  0  0  0  0  0  0  0  0  0  0
    7.4125   10.1899   24.8279 C   0  0  0  0  0  0  0  0  0  0  0  0
   10.9225   13.5333   23.1798 C   0  0  0  0  0  0  0  0  0  0  0  0
   10.2605    9.4725   22.4558 C   0  0  0  0  0  0  0  0  0  0  0  0
   11.9435   14.0434   22.1894 C   0  0  0  0  0  0  0  0  0  0  0  0
   10.3496   12.3399   22.7590 N   0  0  0  0  0  0  0  0  0  0  0  0
   10.6771   14.1736   24.1985 O   0  0  0  0  0  0  0  0  0  0  0  0
    6.2025    9.3138   25.6826 Cl  0  0  0  0  0  0  0  0  0  0  0  0
   11.4120   15.6406   21.6400 Cl  0  0  0  0  0  0  0  0  0  0  0  0
    8.5135   13.3689   24.3627 H   0  0  0  0  0  0  0  0  0  0  0  0
    6.7844   12.1184   25.5806 H   0  0  0  0  0  0  0  0  0  0  0  0
    8.2668    8.4307   23.9143 H   0  0  0  0  0  0  0  0  0  0  0  0
    9.8647    9.3867   21.4375 H   0  0  0  0  0  0  0  0  0  0  0  0
   11.2327    9.9779   22.4124 H   0  0  0  0  0  0  0  0  0  0  0  0
   10.4411    8.4643   22.8478 H   0  0  0  0  0  0  0  0  0  0  0  0
   12.0535   13.3899   21.3203 H   0  0  0  0  0  0  0  0  0  0  0  0
   12.9141   14.1400   22.6842 H   0  0  0  0  0  0  0  0  0  0  0  0
   10.6695   11.9621   21.8701 H   0  0  0  0  0  0  0  0  0  0  0  0
  1  2  2  0  0  0  0
  1  5  1  0  0  0  0
  2  6  1  0  0  0  0
  3  4  1  0  0  0  0
  3  6  2  0  0  0  0
  4  5  2  0  0  0  0
  4  8  1  0  0  0  0
  5 10  1  0  0  0  0
  6 12  1  0  0  0  0
  7  9  1  0  0  0  0
  7 10  1  0  0  0  0
  7 11  2  0  0  0  0
  9 13  1  0  0  0  0
  1 14  1  0  0  0  0
  2 15  1  0  0  0  0
  3 16  1  0  0  0  0
  8 17  1  0  0  0  0
  8 18  1  0  0  0  0
  8 19  1  0  0  0  0
  9 20  1  0  0  0  0
  9 21  1  0  0  0  0
 10 22  1  0  0  0  0
M  END
> <Catalog ID>
Z56346812

> <MW>
217.006

> <MW (desalted)>
218.08

> <ClogP>
2.594

> <logS>
-3.22

> <HBD>
1

> <HBA>
1

> <TPSA>
29.1

> <RotBonds>
2

> <ROCS_ShapeQuery>
A71EV2A-x0451_0A_A71EV2A-x0310_0A_A71EV2A-x0416_0A_peptide

> <ROCS_TanimotoCombo>
0.411 

> <ROCS_ShapeTanimoto>
0.271 

> <ROCS_ColorTanimoto>
0.140 

> <ROCS_RefTversky>
0.241 

> <ROCS_RefColorTversky>
0.141 

> <ROCS_RefTverskyCombo>
0.381 

> <ROCS_FitTversky>
1.895 

> <ROCS_FitColorTversky>
0.961 

> <ROCS_FitTverskyCombo>
2.855 

> <ROCS_ColorScore>
-4.262

> <ROCS_Overlap>
1665.723

> <ROCS_Rank>
436                 

$$$$
untitled-dbase-303_57
  -OEChem-11112315393D

 26 26  0     0  0  0  0  0  0999 V2000
    7.3938   10.1687   24.8235 C   0  0  0  0  0  0  0  0  0  0  0  0
    7.4513   11.5577   24.9375 C   0  0  0  0  0  0  0  0  0  0  0  0
    8.3208    9.4952   24.0281 C   0  0  0  0  0  0  0  0  0  0  0  0
    8.4357   12.2732   24.2560 C   0  0  0  0  0  0  0  0  0  0  0  0
    9.3052   10.2107   23.3465 C   0  0  0  0  0  0  0  0  0  0  0  0
    9.3627   11.5998   23.4604 C   0  0  0  0  0  0  0  0  0  0  0  0
   11.7786   15.1919   21.5544 C   0  0  0  0  0  0  0  0  0  0  0  0
   11.9286   14.0170   22.1740 C   0  0  0  0  0  0  0  0  0  0  0  0
   10.2584    9.4764   22.5238 C   0  0  0  0  0  0  0  0  0  0  0  0
   10.9216   13.5509   23.1710 C   0  0  0  0  0  0  0  0  0  0  0  0
   12.4891    9.4897   21.6851 C   0  0  0  0  0  0  0  0  0  0  0  0
   10.3391   12.3375   22.7853 N   0  0  0  0  0  0  0  0  0  0  0  0
   10.0071    8.4114   21.9484 O   0  0  0  0  0  0  0  0  0  0  0  0
   10.6816   14.1996   24.1826 O   0  0  0  0  0  0  0  0  0  0  0  0
   11.4659   10.1148   22.4673 O   0  0  0  0  0  0  0  0  0  0  0  0
    6.6268    9.6118   25.3541 H   0  0  0  0  0  0  0  0  0  0  0  0
    6.7294   12.0816   25.5572 H   0  0  0  0  0  0  0  0  0  0  0  0
    8.2655    8.4125   23.9476 H   0  0  0  0  0  0  0  0  0  0  0  0
    8.4699   13.3555   24.3531 H   0  0  0  0  0  0  0  0  0  0  0  0
   12.4893   15.5633   20.8245 H   0  0  0  0  0  0  0  0  0  0  0  0
   10.9188   15.8157   21.7754 H   0  0  0  0  0  0  0  0  0  0  0  0
   12.7876   13.3927   21.9534 H   0  0  0  0  0  0  0  0  0  0  0  0
   13.3978   10.0955   21.7215 H   0  0  0  0  0  0  0  0  0  0  0  0
   12.1477    9.3874   20.6519 H   0  0  0  0  0  0  0  0  0  0  0  0
   12.6971    8.4997   22.0977 H   0  0  0  0  0  0  0  0  0  0  0  0
   10.6695   11.9414   21.8982 H   0  0  0  0  0  0  0  0  0  0  0  0
  1  2  1  0  0  0  0
  1  3  2  0  0  0  0
  2  4  2  0  0  0  0
  3  5  1  0  0  0  0
  4  6  1  0  0  0  0
  5  6  2  0  0  0  0
  5  9  1  0  0  0  0
  6 12  1  0  0  0  0
  7  8  2  0  0  0  0
  8 10  1  0  0  0  0
  9 13  2  0  0  0  0
  9 15  1  0  0  0  0
 10 12  1  0  0  0  0
 10 14  2  0  0  0  0
 11 15  1  0  0  0  0
  1 16  1  0  0  0  0
  2 17  1  0  0  0  0
  3 18  1  0  0  0  0
  4 19  1  0  0  0  0
  7 20  1  0  0  0  0
  7 21  1  0  0  0  0
  8 22  1  0  0  0  0
 11 23  1  0  0  0  0
 11 24  1  0  0  0  0
 11 25  1  0  0  0  0
 12 26  1  0  0  0  0
M  END
> <Catalog ID>
Z440635160

> <MW>
205.074

> <MW (desalted)>
205.21

> <ClogP>
1.854

> <logS>
-2.553

> <HBD>
1

> <HBA>
2

> <TPSA>
55.4

> <RotBonds>
4

> <ROCS_ShapeQuery>
A71EV2A-x0451_0A_A71EV2A-x0310_0A_A71EV2A-x0416_0A_peptide

> <ROCS_TanimotoCombo>
0.411 

> <ROCS_ShapeTanimoto>
0.281 

> <ROCS_ColorTanimoto>
0.130 

> <ROCS_RefTversky>
0.251 

> <ROCS_RefColorTversky>
0.139 

> <ROCS_RefTverskyCombo>
0.390 

> <ROCS_FitTversky>
1.755 

> <ROCS_FitColorTversky>
0.668 

> <ROCS_FitTverskyCombo>
2.423 

> <ROCS_ColorScore>
-4.235

> <ROCS_Overlap>
1736.876

> <ROCS_Rank>
437                 

$$$$
untitled-dbase-90_9
  -OEChem-11112315393D

 28 28  0     1  0  0  0  0  0999 V2000
    9.2977   10.4584   23.0434 C   0  0  0  0  0  0  0  0  0  0  0  0
    8.8078    9.4825   23.9041 C   0  0  0  0  0  0  0  0  0  0  0  0
    8.8497   11.7694   23.1608 C   0  0  0  0  0  0  0  0  0  0  0  0
    7.8786    9.8659   24.8577 C   0  0  0  0  0  0  0  0  0  0  0  0
    7.9184   12.0505   24.1475 C   0  0  0  0  0  0  0  0  0  0  0  0
   13.4941   12.8128   23.5905 C   0  0  0  0  0  0  0  0  0  0  0  0
   12.7947   13.9270   23.3547 C   0  0  0  0  0  0  0  0  0  0  0  0
   11.3077   13.8983   23.3628 C   0  0  0  0  0  0  0  0  0  0  0  0
    9.0774   12.5194   20.7571 C   0  0  0  0  0  0  0  0  0  0  0  0
    9.3852   12.8280   22.2209 C   0  0  2  0  0  0  0  0  0  0  0  0
    7.3306    8.8441   25.7970 C   0  0  0  0  0  0  0  0  0  0  0  0
    7.4196   11.1293   25.0021 N   0  0  0  0  0  0  0  0  0  0  0  0
   10.8034   13.0289   22.4108 N   0  0  0  0  0  0  0  0  0  0  0  0
   10.6385   14.5794   24.1332 O   0  0  0  0  0  0  0  0  0  0  0  0
    7.8343    7.5908   25.5959 F   0  0  0  0  0  0  0  0  0  0  0  0
    7.5787    9.1216   27.1108 F   0  0  0  0  0  0  0  0  0  0  0  0
    5.9757    8.7148   25.6988 F   0  0  0  0  0  0  0  0  0  0  0  0
    7.2867   13.6315   24.3921 Cl  0  0  0  0  0  0  0  0  0  0  0  0
   10.0274   10.1886   22.2851 H   0  0  0  0  0  0  0  0  0  0  0  0
    9.1494    8.4560   23.8229 H   0  0  0  0  0  0  0  0  0  0  0  0
   14.5787   12.8414   23.5817 H   0  0  0  0  0  0  0  0  0  0  0  0
   13.0214   11.8587   23.7958 H   0  0  0  0  0  0  0  0  0  0  0  0
   13.3067   14.8618   23.1538 H   0  0  0  0  0  0  0  0  0  0  0  0
    9.5176   11.5630   20.4545 H   0  0  0  0  0  0  0  0  0  0  0  0
    7.9950   12.4607   20.5965 H   0  0  0  0  0  0  0  0  0  0  0  0
    9.4607   13.2955   20.0851 H   0  0  0  0  0  0  0  0  0  0  0  0
    8.9209   13.7919   22.4630 H   0  0  0  0  0  0  0  0  0  0  0  0
   11.4354   12.5277   21.7932 H   0  0  0  0  0  0  0  0  0  0  0  0
  1  2  2  0  0  0  0
  1  3  1  0  0  0  0
  2  4  1  0  0  0  0
  3  5  2  0  0  0  0
  3 10  1  0  0  0  0
  4 11  1  0  0  0  0
  4 12  2  0  0  0  0
  5 12  1  0  0  0  0
  5 18  1  0  0  0  0
  6  7  2  0  0  0  0
  7  8  1  0  0  0  0
  8 13  1  0  0  0  0
  8 14  2  0  0  0  0
  9 10  1  0  0  0  0
 10 13  1  0  0  0  0
 11 15  1  0  0  0  0
 11 16  1  0  0  0  0
 11 17  1  0  0  0  0
  1 19  1  0  0  0  0
  2 20  1  0  0  0  0
  6 21  1  0  0  0  0
  6 22  1  0  0  0  0
  7 23  1  0  0  0  0
  9 24  1  0  0  0  0
  9 25  1  0  0  0  0
  9 26  1  0  0  0  0
 10 27  1  0  0  0  0
 13 28  1  0  0  0  0
M  END
> <Catalog ID>
Z2285378207

> <MW>
278.658

> <MW (desalted)>
278.658

> <ClogP>
1.769

> <logS>
-3.99

> <HBD>
1

> <HBA>
2

> <TPSA>
41.99

> <RotBonds>
4

> <ROCS_ShapeQuery>
A71EV2A-x0451_0A_A71EV2A-x0310_0A_A71EV2A-x0416_0A_peptide

> <ROCS_TanimotoCombo>
0.411 

> <ROCS_ShapeTanimoto>
0.259 

> <ROCS_ColorTanimoto>
0.152 

> <ROCS_RefTversky>
0.239 

> <ROCS_RefColorTversky>
0.159 

> <ROCS_RefTverskyCombo>
0.398 

> <ROCS_FitTversky>
1.493 

> <ROCS_FitColorTversky>
0.763 

> <ROCS_FitTverskyCombo>
2.256 

> <ROCS_ColorScore>
-4.837

> <ROCS_Overlap>
1657.587

> <ROCS_Rank>
438                 

$$$$
untitled-dbase-729_141
  -OEChem-11112315393D

 32 33  0     0  0  0  0  0  0999 V2000
    7.1122   12.3929   24.9101 C   0  0  0  0  0  0  0  0  0  0  0  0
    7.6547   10.0486   24.6933 C   0  0  0  0  0  0  0  0  0  0  0  0
    8.2751   12.7263   24.2159 C   0  0  0  0  0  0  0  0  0  0  0  0
    8.8177   10.3820   23.9989 C   0  0  0  0  0  0  0  0  0  0  0  0
    6.8020   11.0540   25.1489 C   0  0  0  0  0  0  0  0  0  0  0  0
    9.1279   11.7209   23.7603 C   0  0  0  0  0  0  0  0  0  0  0  0
   11.0381   13.2152   23.2306 C   0  0  0  0  0  0  0  0  0  0  0  0
    4.3264   11.1139   25.3329 C   0  0  0  0  0  0  0  0  0  0  0  0
    5.6457   10.3861   27.2674 C   0  0  0  0  0  0  0  0  0  0  0  0
    3.8142   12.2767   26.1840 C   0  0  0  0  0  0  0  0  0  0  0  0
    5.1004   11.5776   28.0474 C   0  0  0  0  0  0  0  0  0  0  0  0
   12.2376   13.2454   22.3120 C   0  0  0  0  0  0  0  0  0  0  0  0
    5.6449   10.7219   25.8419 N   0  0  0  0  0  0  0  0  0  0  0  0
   10.2910   12.0544   23.0658 N   0  0  0  0  0  0  0  0  0  0  0  0
   10.8151   14.1574   23.9859 O   0  0  0  0  0  0  0  0  0  0  0  0
    3.7928   11.9168   27.5699 O   0  0  0  0  0  0  0  0  0  0  0  0
   11.7413   14.0243   20.8012 Cl  0  0  0  0  0  0  0  0  0  0  0  0
    6.4555   13.1846   25.2615 H   0  0  0  0  0  0  0  0  0  0  0  0
    7.4229    9.0021   24.8738 H   0  0  0  0  0  0  0  0  0  0  0  0
    8.5079   13.7730   24.0364 H   0  0  0  0  0  0  0  0  0  0  0  0
    9.4763    9.5912   23.6489 H   0  0  0  0  0  0  0  0  0  0  0  0
    3.6224   10.2845   25.3893 H   0  0  0  0  0  0  0  0  0  0  0  0
    4.4211   11.4363   24.2952 H   0  0  0  0  0  0  0  0  0  0  0  0
    6.6695   10.1761   27.5881 H   0  0  0  0  0  0  0  0  0  0  0  0
    5.0275    9.5077   27.4628 H   0  0  0  0  0  0  0  0  0  0  0  0
    4.4829   13.1362   26.0750 H   0  0  0  0  0  0  0  0  0  0  0  0
    2.8138   12.5952   25.8684 H   0  0  0  0  0  0  0  0  0  0  0  0
    5.0609   11.3737   29.1211 H   0  0  0  0  0  0  0  0  0  0  0  0
    5.7438   12.4464   27.8943 H   0  0  0  0  0  0  0  0  0  0  0  0
   12.6222   12.2479   22.0849 H   0  0  0  0  0  0  0  0  0  0  0  0
   13.0348   13.8351   22.7733 H   0  0  0  0  0  0  0  0  0  0  0  0
   10.6236   11.3854   22.3739 H   0  0  0  0  0  0  0  0  0  0  0  0
  1  3  2  0  0  0  0
  1  5  1  0  0  0  0
  2  4  1  0  0  0  0
  2  5  2  0  0  0  0
  3  6  1  0  0  0  0
  4  6  2  0  0  0  0
  5 13  1  0  0  0  0
  6 14  1  0  0  0  0
  7 12  1  0  0  0  0
  7 14  1  0  0  0  0
  7 15  2  0  0  0  0
  8 10  1  0  0  0  0
  8 13  1  0  0  0  0
  9 11  1  0  0  0  0
  9 13  1  0  0  0  0
 10 16  1  0  0  0  0
 11 16  1  0  0  0  0
 12 17  1  0  0  0  0
  1 18  1  0  0  0  0
  2 19  1  0  0  0  0
  3 20  1  0  0  0  0
  4 21  1  0  0  0  0
  8 22  1  0  0  0  0
  8 23  1  0  0  0  0
  9 24  1  0  0  0  0
  9 25  1  0  0  0  0
 10 26  1  0  0  0  0
 10 27  1  0  0  0  0
 11 28  1  0  0  0  0
 11 29  1  0  0  0  0
 12 30  1  0  0  0  0
 12 31  1  0  0  0  0
 14 32  1  0  0  0  0
M  END
> <Catalog ID>
Z56922137

> <MW>
254.082

> <MW (desalted)>
254.713

> <ClogP>
1.23

> <logS>
-2.58

> <HBD>
1

> <HBA>
3

> <TPSA>
41.57

> <RotBonds>
3

> <ROCS_ShapeQuery>
A71EV2A-x0451_0A_A71EV2A-x0310_0A_A71EV2A-x0416_0A_peptide

> <ROCS_TanimotoCombo>
0.411 

> <ROCS_ShapeTanimoto>
0.264 

> <ROCS_ColorTanimoto>
0.147 

> <ROCS_RefTversky>
0.241 

> <ROCS_RefColorTversky>
0.155 

> <ROCS_RefTverskyCombo>
0.396 

> <ROCS_FitTversky>
1.567 

> <ROCS_FitColorTversky>
0.742 

> <ROCS_FitTverskyCombo>
2.309 

> <ROCS_ColorScore>
-4.702

> <ROCS_Overlap>
1671.930

> <ROCS_Rank>
439                 

$$$$
untitled-dbase-582_68
  -OEChem-11112315393D

 30 31  0     1  0  0  0  0  0999 V2000
    6.1045    9.6630   26.2385 C   0  0  0  0  0  0  0  0  0  0  0  0
    6.1804   12.0663   26.4739 C   0  0  0  0  0  0  0  0  0  0  0  0
    4.9192    9.6285   26.9729 C   0  0  0  0  0  0  0  0  0  0  0  0
    4.9951   12.0318   27.2083 C   0  0  0  0  0  0  0  0  0  0  0  0
    6.7352   10.8819   25.9891 C   0  0  0  0  0  0  0  0  0  0  0  0
    4.3644   10.8128   27.4578 C   0  0  0  0  0  0  0  0  0  0  0  0
   10.2580   13.2360   23.3952 C   0  0  0  0  0  0  0  0  0  0  0  0
    9.4450   11.0024   22.7165 C   0  0  0  0  0  0  0  0  0  0  0  0
    8.1558   12.2361   24.4155 C   0  0  0  0  0  0  0  0  0  0  0  0
    9.2639    9.7463   23.5555 C   0  0  0  0  0  0  0  0  0  0  0  0
    8.0206   10.9201   25.1919 C   0  0  2  0  0  0  0  0  0  0  0  0
   10.8336   13.4242   22.0142 C   0  0  0  0  0  0  0  0  0  0  0  0
    9.3407   12.1984   23.5511 N   0  0  0  0  0  0  0  0  0  0  0  0
   10.6104   13.9907   24.3051 O   0  0  0  0  0  0  0  0  0  0  0  0
    8.0401    9.8059   24.2892 O   0  0  0  0  0  0  0  0  0  0  0  0
    3.2247   10.7801   28.1608 F   0  0  0  0  0  0  0  0  0  0  0  0
   11.1591   15.1445   21.8341 Cl  0  0  0  0  0  0  0  0  0  0  0  0
    6.5296    8.7348   25.8655 H   0  0  0  0  0  0  0  0  0  0  0  0
    6.6646   13.0207   26.2842 H   0  0  0  0  0  0  0  0  0  0  0  0
    4.4278    8.6797   27.1666 H   0  0  0  0  0  0  0  0  0  0  0  0
    4.5631   12.9536   27.5863 H   0  0  0  0  0  0  0  0  0  0  0  0
   10.4007   10.9723   22.1846 H   0  0  0  0  0  0  0  0  0  0  0  0
    8.6448   11.0757   21.9705 H   0  0  0  0  0  0  0  0  0  0  0  0
    7.2979   12.3810   23.7461 H   0  0  0  0  0  0  0  0  0  0  0  0
    8.1762   13.0826   25.1058 H   0  0  0  0  0  0  0  0  0  0  0  0
    9.2185    8.8672   22.9049 H   0  0  0  0  0  0  0  0  0  0  0  0
   10.1011    9.6030   24.2489 H   0  0  0  0  0  0  0  0  0  0  0  0
    8.8574   10.8104   25.9116 H   0  0  0  0  0  0  0  0  0  0  0  0
   10.1009   13.1054   21.2815 H   0  0  0  0  0  0  0  0  0  0  0  0
   11.7565   12.8606   21.9383 H   0  0  0  0  0  0  0  0  0  0  0  0
  1  3  2  0  0  0  0
  1  5  1  0  0  0  0
  2  4  1  0  0  0  0
  2  5  2  0  0  0  0
  3  6  1  0  0  0  0
  4  6  2  0  0  0  0
  5 11  1  0  0  0  0
  6 16  1  0  0  0  0
  7 12  1  0  0  0  0
  7 13  1  0  0  0  0
  7 14  2  0  0  0  0
  8 10  1  0  0  0  0
  8 13  1  0  0  0  0
  9 11  1  0  0  0  0
  9 13  1  0  0  0  0
 10 15  1  0  0  0  0
 11 15  1  0  0  0  0
 12 17  1  0  0  0  0
  1 18  1  0  0  0  0
  2 19  1  0  0  0  0
  3 20  1  0  0  0  0
  4 21  1  0  0  0  0
  8 22  1  0  0  0  0
  8 23  1  0  0  0  0
  9 24  1  0  0  0  0
  9 25  1  0  0  0  0
 10 26  1  0  0  0  0
 10 27  1  0  0  0  0
 11 28  1  0  0  0  0
 12 29  1  0  0  0  0
 12 30  1  0  0  0  0
M  END
> <Catalog ID>
Z561263734

> <MW>
257.062

> <MW (desalted)>
257.689

> <ClogP>
1.501

> <logS>
-2.89

> <HBD>
0

> <HBA>
2

> <TPSA>
29.54

> <RotBonds>
2

> <ROCS_ShapeQuery>
A71EV2A-x0451_0A_A71EV2A-x0310_0A_A71EV2A-x0416_0A_peptide

> <ROCS_TanimotoCombo>
0.411 

> <ROCS_ShapeTanimoto>
0.271 

> <ROCS_ColorTanimoto>
0.140 

> <ROCS_RefTversky>
0.246 

> <ROCS_RefColorTversky>
0.145 

> <ROCS_RefTverskyCombo>
0.391 

> <ROCS_FitTversky>
1.599 

> <ROCS_FitColorTversky>
0.814 

> <ROCS_FitTverskyCombo>
2.413 

> <ROCS_ColorScore>
-4.383

> <ROCS_Overlap>
1706.639

> <ROCS_Rank>
440                 

$$$$
untitled-dbase-204_10
  -OEChem-11112315393D

 22 22  0     0  0  0  0  0  0999 V2000
    8.3532    9.4975   23.9792 C   0  0  0  0  0  0  0  0  0  0  0  0
    9.3240   10.2310   23.2972 C   0  0  0  0  0  0  0  0  0  0  0  0
    7.4901   11.5371   24.9445 C   0  0  0  0  0  0  0  0  0  0  0  0
    7.4362   10.1505   24.8028 C   0  0  0  0  0  0  0  0  0  0  0  0
    9.3779   11.6176   23.4388 C   0  0  0  0  0  0  0  0  0  0  0  0
    8.4610   12.2707   24.2625 C   0  0  0  0  0  0  0  0  0  0  0  0
   10.9241   13.5423   23.1789 C   0  0  0  0  0  0  0  0  0  0  0  0
    6.3990    9.3664   25.5330 C   0  0  0  0  0  0  0  0  0  0  0  0
   11.9436   14.0563   22.1891 C   0  0  0  0  0  0  0  0  0  0  0  0
   10.3503   12.3488   22.7559 N   0  0  0  0  0  0  0  0  0  0  0  0
   10.6794   14.1790   24.2001 O   0  0  0  0  0  0  0  0  0  0  0  0
    8.5044   13.6028   24.4073 F   0  0  0  0  0  0  0  0  0  0  0  0
   11.0994   15.1074   21.0410 Cl  0  0  0  0  0  0  0  0  0  0  0  0
    8.3185    8.4176   23.8621 H   0  0  0  0  0  0  0  0  0  0  0  0
   10.0336    9.7116   22.6581 H   0  0  0  0  0  0  0  0  0  0  0  0
    6.7808   12.0547   25.5848 H   0  0  0  0  0  0  0  0  0  0  0  0
    6.7741    9.0600   26.5172 H   0  0  0  0  0  0  0  0  0  0  0  0
    5.4832    9.9543   25.6774 H   0  0  0  0  0  0  0  0  0  0  0  0
    6.1132    8.4658   24.9738 H   0  0  0  0  0  0  0  0  0  0  0  0
   12.4379   13.2542   21.6354 H   0  0  0  0  0  0  0  0  0  0  0  0
   12.7020   14.6406   22.7178 H   0  0  0  0  0  0  0  0  0  0  0  0
   10.6693   11.9734   21.8647 H   0  0  0  0  0  0  0  0  0  0  0  0
  1  2  2  0  0  0  0
  1  4  1  0  0  0  0
  2  5  1  0  0  0  0
  3  4  2  0  0  0  0
  3  6  1  0  0  0  0
  4  8  1  0  0  0  0
  5  6  2  0  0  0  0
  5 10  1  0  0  0  0
  6 12  1  0  0  0  0
  7  9  1  0  0  0  0
  7 10  1  0  0  0  0
  7 11  2  0  0  0  0
  9 13  1  0  0  0  0
  1 14  1  0  0  0  0
  2 15  1  0  0  0  0
  3 16  1  0  0  0  0
  8 17  1  0  0  0  0
  8 18  1  0  0  0  0
  8 19  1  0  0  0  0
  9 20  1  0  0  0  0
  9 21  1  0  0  0  0
 10 22  1  0  0  0  0
M  END
> <Catalog ID>
Z56346816

> <MW>
201.036

> <MW (desalted)>
201.625

> <ClogP>
2.074

> <logS>
-2.98

> <HBD>
1

> <HBA>
1

> <TPSA>
29.1

> <RotBonds>
2

> <ROCS_ShapeQuery>
A71EV2A-x0451_0A_A71EV2A-x0310_0A_A71EV2A-x0416_0A_peptide

> <ROCS_TanimotoCombo>
0.411 

> <ROCS_ShapeTanimoto>
0.271 

> <ROCS_ColorTanimoto>
0.140 

> <ROCS_RefTversky>
0.241 

> <ROCS_RefColorTversky>
0.141 

> <ROCS_RefTverskyCombo>
0.381 

> <ROCS_FitTversky>
1.873 

> <ROCS_FitColorTversky>
0.960 

> <ROCS_FitTverskyCombo>
2.832 

> <ROCS_ColorScore>
-4.256

> <ROCS_Overlap>
1667.615

> <ROCS_Rank>
441                 

$$$$
untitled-dbase-457_190
  -OEChem-11112315393D

 23 23  0     0  0  0  0  0  0999 V2000
    9.3607   10.2736   23.2998 C   0  0  0  0  0  0  0  0  0  0  0  0
    8.4853   12.3290   24.2198 C   0  0  0  0  0  0  0  0  0  0  0  0
    8.3792    9.5517   23.9787 C   0  0  0  0  0  0  0  0  0  0  0  0
    7.5037   11.6070   24.8987 C   0  0  0  0  0  0  0  0  0  0  0  0
    9.4138   11.6623   23.4204 C   0  0  0  0  0  0  0  0  0  0  0  0
    7.4507   10.2183   24.7781 C   0  0  0  0  0  0  0  0  0  0  0  0
   10.9621   13.5846   23.1556 C   0  0  0  0  0  0  0  0  0  0  0  0
   11.9958   14.0854   22.1736 C   0  0  0  0  0  0  0  0  0  0  0  0
    5.2422   10.1461   25.6892 C   0  0  0  0  0  0  0  0  0  0  0  0
   10.3956   12.3845   22.7414 N   0  0  0  0  0  0  0  0  0  0  0  0
   10.7019   14.2357   24.1638 O   0  0  0  0  0  0  0  0  0  0  0  0
    6.4929    9.5139   25.4406 O   0  0  0  0  0  0  0  0  0  0  0  0
    4.6414   10.5048   24.5348 F   0  0  0  0  0  0  0  0  0  0  0  0
    5.4576   11.2683   26.4127 F   0  0  0  0  0  0  0  0  0  0  0  0
    4.4246    9.3425   26.4020 F   0  0  0  0  0  0  0  0  0  0  0  0
   11.1678   15.1190   20.9981 Cl  0  0  0  0  0  0  0  0  0  0  0  0
   10.0792    9.7438   22.6795 H   0  0  0  0  0  0  0  0  0  0  0  0
    8.5171   13.4108   24.3212 H   0  0  0  0  0  0  0  0  0  0  0  0
    8.3429    8.4701   23.8808 H   0  0  0  0  0  0  0  0  0  0  0  0
    6.7832   12.1319   25.5200 H   0  0  0  0  0  0  0  0  0  0  0  0
   12.4989   13.2758   21.6389 H   0  0  0  0  0  0  0  0  0  0  0  0
   12.7459   14.6780   22.7050 H   0  0  0  0  0  0  0  0  0  0  0  0
   10.7281   11.9966   21.8606 H   0  0  0  0  0  0  0  0  0  0  0  0
  1  3  2  0  0  0  0
  1  5  1  0  0  0  0
  2  4  1  0  0  0  0
  2  5  2  0  0  0  0
  3  6  1  0  0  0  0
  4  6  2  0  0  0  0
  5 10  1  0  0  0  0
  6 12  1  0  0  0  0
  7  8  1  0  0  0  0
  7 10  1  0  0  0  0
  7 11  2  0  0  0  0
  8 16  1  0  0  0  0
  9 12  1  0  0  0  0
  9 13  1  0  0  0  0
  9 14  1  0  0  0  0
  9 15  1  0  0  0  0
  1 17  1  0  0  0  0
  2 18  1  0  0  0  0
  3 19  1  0  0  0  0
  4 20  1  0  0  0  0
  8 21  1  0  0  0  0
  8 22  1  0  0  0  0
 10 23  1  0  0  0  0
M  END
> <Catalog ID>
Z56862621

> <MW>
253.012

> <MW (desalted)>
253.606

> <ClogP>
2.958

> <logS>
-3.66

> <HBD>
1

> <HBA>
2

> <TPSA>
38.33

> <RotBonds>
4

> <ROCS_ShapeQuery>
A71EV2A-x0451_0A_A71EV2A-x0310_0A_A71EV2A-x0416_0A_peptide

> <ROCS_TanimotoCombo>
0.411 

> <ROCS_ShapeTanimoto>
0.273 

> <ROCS_ColorTanimoto>
0.138 

> <ROCS_RefTversky>
0.246 

> <ROCS_RefColorTversky>
0.143 

> <ROCS_RefTverskyCombo>
0.389 

> <ROCS_FitTversky>
1.655 

> <ROCS_FitColorTversky>
0.803 

> <ROCS_FitTverskyCombo>
2.458 

> <ROCS_ColorScore>
-4.327

> <ROCS_Overlap>
1708.361

> <ROCS_Rank>
442                 

$$$$
untitled-dbase-441_16
  -OEChem-11112315393D

 26 26  0     0  0  0  0  0  0999 V2000
    7.8516   10.6830   25.1741 C   0  0  0  0  0  0  0  0  0  0  0  0
    9.3665   11.4237   23.5238 C   0  0  0  0  0  0  0  0  0  0  0  0
   10.8213   13.4058   23.1811 C   0  0  0  0  0  0  0  0  0  0  0  0
    6.1866    9.1746   26.3135 C   0  0  0  0  0  0  0  0  0  0  0  0
    5.9480   11.6740   26.4936 C   0  0  0  0  0  0  0  0  0  0  0  0
    7.7366   10.4869   27.7478 C   0  0  0  0  0  0  0  0  0  0  0  0
   11.7768   13.9494   22.1443 C   0  0  0  0  0  0  0  0  0  0  0  0
    6.9578   10.5086   26.4130 C   0  0  0  0  0  0  0  0  0  0  0  0
    7.9462    9.8267   24.1793 N   0  0  0  0  0  0  0  0  0  0  0  0
    8.8356   10.2606   23.2118 N   0  0  0  0  0  0  0  0  0  0  0  0
   10.2739   12.1628   22.8158 N   0  0  0  0  0  0  0  0  0  0  0  0
   10.5834   14.0498   24.1994 O   0  0  0  0  0  0  0  0  0  0  0  0
    8.8307   12.0822   25.0140 S   0  0  0  0  0  0  0  0  0  0  0  0
   10.8399   14.9354   21.0106 Cl  0  0  0  0  0  0  0  0  0  0  0  0
    5.5404    9.0255   27.1865 H   0  0  0  0  0  0  0  0  0  0  0  0
    5.5428    9.1328   25.4281 H   0  0  0  0  0  0  0  0  0  0  0  0
    6.8760    8.3237   26.2594 H   0  0  0  0  0  0  0  0  0  0  0  0
    5.2879   11.5912   27.3639 H   0  0  0  0  0  0  0  0  0  0  0  0
    6.4630   12.6385   26.5730 H   0  0  0  0  0  0  0  0  0  0  0  0
    5.3125   11.7076   25.6007 H   0  0  0  0  0  0  0  0  0  0  0  0
    7.0574   10.3608   28.5996 H   0  0  0  0  0  0  0  0  0  0  0  0
    8.4540    9.6586   27.7832 H   0  0  0  0  0  0  0  0  0  0  0  0
    8.2858   11.4218   27.9099 H   0  0  0  0  0  0  0  0  0  0  0  0
   12.2893   13.1615   21.5866 H   0  0  0  0  0  0  0  0  0  0  0  0
   12.5246   14.5800   22.6334 H   0  0  0  0  0  0  0  0  0  0  0  0
   10.5904   11.7665   21.9187 H   0  0  0  0  0  0  0  0  0  0  0  0
  1  8  1  0  0  0  0
  1  9  2  0  0  0  0
  1 13  1  0  0  0  0
  2 10  2  0  0  0  0
  2 11  1  0  0  0  0
  2 13  1  0  0  0  0
  3  7  1  0  0  0  0
  3 11  1  0  0  0  0
  3 12  2  0  0  0  0
  4  8  1  0  0  0  0
  5  8  1  0  0  0  0
  6  8  1  0  0  0  0
  7 14  1  0  0  0  0
  9 10  1  0  0  0  0
  4 15  1  0  0  0  0
  4 16  1  0  0  0  0
  4 17  1  0  0  0  0
  5 18  1  0  0  0  0
  5 19  1  0  0  0  0
  5 20  1  0  0  0  0
  6 21  1  0  0  0  0
  6 22  1  0  0  0  0
  6 23  1  0  0  0  0
  7 24  1  0  0  0  0
  7 25  1  0  0  0  0
 11 26  1  0  0  0  0
M  END
> <Catalog ID>
Z1269149232

> <MW>
233.039

> <MW (desalted)>
233.718

> <ClogP>
2.119

> <logS>
-2.714

> <HBD>
1

> <HBA>
3

> <TPSA>
54.88

> <RotBonds>
3

> <ROCS_ShapeQuery>
A71EV2A-x0451_0A_A71EV2A-x0310_0A_A71EV2A-x0416_0A_peptide

> <ROCS_TanimotoCombo>
0.411 

> <ROCS_ShapeTanimoto>
0.245 

> <ROCS_ColorTanimoto>
0.166 

> <ROCS_RefTversky>
0.223 

> <ROCS_RefColorTversky>
0.178 

> <ROCS_RefTverskyCombo>
0.400 

> <ROCS_FitTversky>
1.699 

> <ROCS_FitColorTversky>
0.715 

> <ROCS_FitTverskyCombo>
2.413 

> <ROCS_ColorScore>
-5.407

> <ROCS_Overlap>
1541.098

> <ROCS_Rank>
443                 

$$$$
untitled-dbase-354_221
  -OEChem-11112315393D

 34 35  0     0  0  0  0  0  0999 V2000
    7.7679   10.9618   24.4551 C   0  0  0  0  0  0  0  0  0  0  0  0
    6.6622   11.2720   26.1758 C   0  0  0  0  0  0  0  0  0  0  0  0
   12.5911   15.9652   21.7927 C   0  0  0  0  0  0  0  0  0  0  0  0
   12.2877   15.5174   23.0148 C   0  0  0  0  0  0  0  0  0  0  0  0
   11.3373   14.3864   23.1877 C   0  0  0  0  0  0  0  0  0  0  0  0
    8.1680   11.4886   21.9868 C   0  0  0  0  0  0  0  0  0  0  0  0
    9.9303   10.1647   23.2093 C   0  0  0  0  0  0  0  0  0  0  0  0
    9.0598   12.7266   22.0456 C   0  0  0  0  0  0  0  0  0  0  0  0
   10.8569   11.3842   23.1937 C   0  0  0  0  0  0  0  0  0  0  0  0
    8.4255   10.5089   23.1529 C   0  0  0  0  0  0  0  0  0  0  0  0
   10.5388   12.3406   22.0445 C   0  0  0  0  0  0  0  0  0  0  0  0
    5.6692   11.0722   27.2371 C   0  0  0  0  0  0  0  0  0  0  0  0
    6.7946   10.4049   25.1305 N   0  0  0  0  0  0  0  0  0  0  0  0
    7.4947   12.3174   26.1725 N   0  0  0  0  0  0  0  0  0  0  0  0
   11.3738   13.5166   22.1131 N   0  0  0  0  0  0  0  0  0  0  0  0
   10.6202   14.2721   24.1766 O   0  0  0  0  0  0  0  0  0  0  0  0
    8.2440   12.1083   25.0078 O   0  0  0  0  0  0  0  0  0  0  0  0
   13.2844   16.7914   21.6746 H   0  0  0  0  0  0  0  0  0  0  0  0
   12.1701   15.5340   20.8911 H   0  0  0  0  0  0  0  0  0  0  0  0
   12.7317   15.9767   23.8913 H   0  0  0  0  0  0  0  0  0  0  0  0
    7.1079   11.7961   21.9818 H   0  0  0  0  0  0  0  0  0  0  0  0
    8.3294   10.9711   21.0262 H   0  0  0  0  0  0  0  0  0  0  0  0
   10.1920    9.5023   22.3596 H   0  0  0  0  0  0  0  0  0  0  0  0
   10.1411    9.5594   24.1150 H   0  0  0  0  0  0  0  0  0  0  0  0
    8.8566   13.3502   21.1725 H   0  0  0  0  0  0  0  0  0  0  0  0
    8.8170   13.3203   22.9275 H   0  0  0  0  0  0  0  0  0  0  0  0
   10.8017   11.9035   24.1554 H   0  0  0  0  0  0  0  0  0  0  0  0
   11.8904   11.0363   23.0874 H   0  0  0  0  0  0  0  0  0  0  0  0
    7.8844    9.5441   22.8603 H   0  0  0  0  0  0  0  0  0  0  0  0
   10.7827   11.8558   21.0954 H   0  0  0  0  0  0  0  0  0  0  0  0
    6.0798   10.4720   28.0698 H   0  0  0  0  0  0  0  0  0  0  0  0
    5.3119   12.0274   27.6670 H   0  0  0  0  0  0  0  0  0  0  0  0
    4.7619   10.5520   26.8745 H   0  0  0  0  0  0  0  0  0  0  0  0
   11.9780   13.7072   21.3204 H   0  0  0  0  0  0  0  0  0  0  0  0
  1 10  1  0  0  0  0
  1 13  2  0  0  0  0
  1 17  1  0  0  0  0
  2 12  1  0  0  0  0
  2 13  1  0  0  0  0
  2 14  2  0  0  0  0
  3  4  2  0  0  0  0
  4  5  1  0  0  0  0
  5 15  1  0  0  0  0
  5 16  2  0  0  0  0
  6  8  1  0  0  0  0
  6 10  1  0  0  0  0
  7  9  1  0  0  0  0
  7 10  1  0  0  0  0
  8 11  1  0  0  0  0
  9 11  1  0  0  0  0
 11 15  1  0  0  0  0
 14 17  1  0  0  0  0
  3 18  1  0  0  0  0
  3 19  1  0  0  0  0
  4 20  1  0  0  0  0
  6 21  1  0  0  0  0
  6 22  1  0  0  0  0
  7 23  1  0  0  0  0
  7 24  1  0  0  0  0
  8 25  1  0  0  0  0
  8 26  1  0  0  0  0
  9 27  1  0  0  0  0
  9 28  1  0  0  0  0
 10 29  1  0  0  0  0
 11 30  1  0  0  0  0
 12 31  1  0  0  0  0
 12 32  1  0  0  0  0
 12 33  1  0  0  0  0
 15 34  1  0  0  0  0
M  END
> <Catalog ID>
Z2737383308

> <MW>
235.282

> <MW (desalted)>
235.282

> <ClogP>
0.247

> <logS>
-1.61

> <HBD>
1

> <HBA>
3

> <TPSA>
68.02

> <RotBonds>
3

> <ROCS_ShapeQuery>
A71EV2A-x0451_0A_A71EV2A-x0310_0A_A71EV2A-x0416_0A_peptide

> <ROCS_TanimotoCombo>
0.411 

> <ROCS_ShapeTanimoto>
0.277 

> <ROCS_ColorTanimoto>
0.133 

> <ROCS_RefTversky>
0.251 

> <ROCS_RefColorTversky>
0.150 

> <ROCS_RefTverskyCombo>
0.400 

> <ROCS_FitTversky>
1.624 

> <ROCS_FitColorTversky>
0.553 

> <ROCS_FitTverskyCombo>
2.177 

> <ROCS_ColorScore>
-4.559

> <ROCS_Overlap>
1737.247

> <ROCS_Rank>
444                 

$$$$
untitled-dbase-882_24
  -OEChem-11112315393D

 31 33  0     0  0  0  0  0  0999 V2000
    6.2242   10.5810   25.8601 C   0  0  0  0  0  0  0  0  0  0  0  0
    7.0519   11.6920   25.6741 C   0  0  0  0  0  0  0  0  0  0  0  0
    6.4301    9.4056   25.1434 C   0  0  0  0  0  0  0  0  0  0  0  0
    9.4381   10.6557   23.1640 C   0  0  0  0  0  0  0  0  0  0  0  0
    8.3197   10.4159   24.0101 C   0  0  0  0  0  0  0  0  0  0  0  0
    8.0970   11.5853   24.7441 C   0  0  0  0  0  0  0  0  0  0  0  0
    7.4723    9.3086   24.2156 C   0  0  0  0  0  0  0  0  0  0  0  0
    9.8734   11.9457   23.3863 C   0  0  0  0  0  0  0  0  0  0  0  0
   10.4084   14.9937   20.4299 C   0  0  0  0  0  0  0  0  0  0  0  0
   11.5951   15.0630   21.0366 C   0  0  0  0  0  0  0  0  0  0  0  0
   11.6390   15.1483   22.5113 C   0  0  0  0  0  0  0  0  0  0  0  0
   10.9973   12.7027   22.7611 C   0  0  0  0  0  0  0  0  0  0  0  0
    9.2241   13.8407   24.8457 C   0  0  0  0  0  0  0  0  0  0  0  0
   10.6416   14.3433   24.6140 C   0  0  0  0  0  0  0  0  0  0  0  0
    9.0601   12.4863   24.3515 N   0  0  0  0  0  0  0  0  0  0  0  0
   11.0703   14.0974   23.2328 N   0  0  0  0  0  0  0  0  0  0  0  0
   12.1808   16.1345   23.0125 O   0  0  0  0  0  0  0  0  0  0  0  0
    7.7742    7.8965   23.3094 Cl  0  0  0  0  0  0  0  0  0  0  0  0
    5.4082   10.6372   26.5759 H   0  0  0  0  0  0  0  0  0  0  0  0
    6.8829   12.6048   26.2357 H   0  0  0  0  0  0  0  0  0  0  0  0
    5.7695    8.5589   25.3143 H   0  0  0  0  0  0  0  0  0  0  0  0
    9.8881    9.9622   22.4661 H   0  0  0  0  0  0  0  0  0  0  0  0
   10.3119   14.9294   19.3512 H   0  0  0  0  0  0  0  0  0  0  0  0
    9.4959   15.0002   21.0167 H   0  0  0  0  0  0  0  0  0  0  0  0
   12.5267   15.0588   20.4859 H   0  0  0  0  0  0  0  0  0  0  0  0
   11.9344   12.1845   22.9853 H   0  0  0  0  0  0  0  0  0  0  0  0
   10.8694   12.7351   21.6733 H   0  0  0  0  0  0  0  0  0  0  0  0
    8.9810   13.8210   25.9136 H   0  0  0  0  0  0  0  0  0  0  0  0
    8.5091   14.4870   24.3270 H   0  0  0  0  0  0  0  0  0  0  0  0
   10.6950   15.4279   24.7712 H   0  0  0  0  0  0  0  0  0  0  0  0
   11.3245   13.8769   25.3309 H   0  0  0  0  0  0  0  0  0  0  0  0
  1  2  1  0  0  0  0
  1  3  2  0  0  0  0
  2  6  2  0  0  0  0
  3  7  1  0  0  0  0
  4  5  1  0  0  0  0
  4  8  2  0  0  0  0
  5  6  1  0  0  0  0
  5  7  2  0  0  0  0
  6 15  1  0  0  0  0
  7 18  1  0  0  0  0
  8 12  1  0  0  0  0
  8 15  1  0  0  0  0
  9 10  2  0  0  0  0
 10 11  1  0  0  0  0
 11 16  1  0  0  0  0
 11 17  2  0  0  0  0
 12 16  1  0  0  0  0
 13 14  1  0  0  0  0
 13 15  1  0  0  0  0
 14 16  1  0  0  0  0
  1 19  1  0  0  0  0
  2 20  1  0  0  0  0
  3 21  1  0  0  0  0
  4 22  1  0  0  0  0
  9 23  1  0  0  0  0
  9 24  1  0  0  0  0
 10 25  1  0  0  0  0
 12 26  1  0  0  0  0
 12 27  1  0  0  0  0
 13 28  1  0  0  0  0
 13 29  1  0  0  0  0
 14 30  1  0  0  0  0
 14 31  1  0  0  0  0
M  END
> <Catalog ID>
Z2285378028

> <MW>
260.719

> <MW (desalted)>
260.719

> <ClogP>
2.547

> <logS>
-3.7

> <HBD>
0

> <HBA>
1

> <TPSA>
25.24

> <RotBonds>
1

> <ROCS_ShapeQuery>
A71EV2A-x0451_0A_A71EV2A-x0310_0A_A71EV2A-x0416_0A_peptide

> <ROCS_TanimotoCombo>
0.411 

> <ROCS_ShapeTanimoto>
0.323 

> <ROCS_ColorTanimoto>
0.088 

> <ROCS_RefTversky>
0.284 

> <ROCS_RefColorTversky>
0.098 

> <ROCS_RefTverskyCombo>
0.382 

> <ROCS_FitTversky>
1.724 

> <ROCS_FitColorTversky>
0.467 

> <ROCS_FitTverskyCombo>
2.191 

> <ROCS_ColorScore>
-2.974

> <ROCS_Overlap>
1970.630

> <ROCS_Rank>
445                 

$$$$
untitled-dbase-749_18
  -OEChem-11112315393D

 31 32  0     0  0  0  0  0  0999 V2000
   11.9085   15.3798   21.6758 C   0  0  0  0  0  0  0  0  0  0  0  0
   11.3413   14.1705   21.7203 C   0  0  0  0  0  0  0  0  0  0  0  0
   10.7655   13.6552   22.9912 C   0  0  0  0  0  0  0  0  0  0  0  0
   11.4697   10.2388   25.1173 C   0  0  0  0  0  0  0  0  0  0  0  0
   12.1231   11.5228   24.7019 C   0  0  0  0  0  0  0  0  0  0  0  0
    9.1103   10.3069   23.4216 C   0  0  0  0  0  0  0  0  0  0  0  0
    8.3952   12.4869   24.4382 C   0  0  0  0  0  0  0  0  0  0  0  0
    8.1806    9.6195   24.4159 C   0  0  0  0  0  0  0  0  0  0  0  0
    7.5064   11.6768   25.3760 C   0  0  0  0  0  0  0  0  0  0  0  0
   10.6530   11.5039   25.0369 C   0  0  0  0  0  0  0  0  0  0  0  0
    9.6033   11.6769   23.9279 C   0  0  0  0  0  0  0  0  0  0  0  0
   10.2301   12.3951   22.8290 N   0  0  0  0  0  0  0  0  0  0  0  0
   10.7815   14.3023   24.0333 O   0  0  0  0  0  0  0  0  0  0  0  0
    7.0833   10.4662   24.7521 O   0  0  0  0  0  0  0  0  0  0  0  0
   12.3273   15.7484   20.7453 H   0  0  0  0  0  0  0  0  0  0  0  0
   11.9723   16.0275   22.5432 H   0  0  0  0  0  0  0  0  0  0  0  0
   11.2976   13.5539   20.8290 H   0  0  0  0  0  0  0  0  0  0  0  0
   11.3256    9.4795   24.3586 H   0  0  0  0  0  0  0  0  0  0  0  0
   11.7009    9.8504   26.1017 H   0  0  0  0  0  0  0  0  0  0  0  0
   12.7929   11.9999   25.4067 H   0  0  0  0  0  0  0  0  0  0  0  0
   12.4155   11.6268   23.6643 H   0  0  0  0  0  0  0  0  0  0  0  0
    9.9841    9.6566   23.2608 H   0  0  0  0  0  0  0  0  0  0  0  0
    8.6183   10.4032   22.4430 H   0  0  0  0  0  0  0  0  0  0  0  0
    7.8052   12.8839   23.6016 H   0  0  0  0  0  0  0  0  0  0  0  0
    8.7677   13.3607   24.9925 H   0  0  0  0  0  0  0  0  0  0  0  0
    7.8034    8.6651   24.0288 H   0  0  0  0  0  0  0  0  0  0  0  0
    8.7260    9.4019   25.3406 H   0  0  0  0  0  0  0  0  0  0  0  0
    8.0699   11.4066   26.2746 H   0  0  0  0  0  0  0  0  0  0  0  0
    6.6292   12.2462   25.7022 H   0  0  0  0  0  0  0  0  0  0  0  0
   10.3429   11.9622   25.9680 H   0  0  0  0  0  0  0  0  0  0  0  0
   10.2298   11.9419   21.9252 H   0  0  0  0  0  0  0  0  0  0  0  0
  1  2  2  0  0  0  0
  2  3  1  0  0  0  0
  3 12  1  0  0  0  0
  3 13  2  0  0  0  0
  4  5  1  0  0  0  0
  4 10  1  0  0  0  0
  5 10  1  0  0  0  0
  6  8  1  0  0  0  0
  6 11  1  0  0  0  0
  7  9  1  0  0  0  0
  7 11  1  0  0  0  0
  8 14  1  0  0  0  0
  9 14  1  0  0  0  0
 10 11  1  0  0  0  0
 11 12  1  0  0  0  0
  1 15  1  0  0  0  0
  1 16  1  0  0  0  0
  2 17  1  0  0  0  0
  4 18  1  0  0  0  0
  4 19  1  0  0  0  0
  5 20  1  0  0  0  0
  5 21  1  0  0  0  0
  6 22  1  0  0  0  0
  6 23  1  0  0  0  0
  7 24  1  0  0  0  0
  7 25  1  0  0  0  0
  8 26  1  0  0  0  0
  8 27  1  0  0  0  0
  9 28  1  0  0  0  0
  9 29  1  0  0  0  0
 10 30  1  0  0  0  0
 12 31  1  0  0  0  0
M  END
> <Catalog ID>
Z2285377902

> <MW>
195.258

> <MW (desalted)>
195.258

> <ClogP>
-0.078

> <logS>
-1.87

> <HBD>
1

> <HBA>
2

> <TPSA>
38.33

> <RotBonds>
3

> <ROCS_ShapeQuery>
A71EV2A-x0451_0A_A71EV2A-x0310_0A_A71EV2A-x0416_0A_peptide

> <ROCS_TanimotoCombo>
0.411 

> <ROCS_ShapeTanimoto>
0.258 

> <ROCS_ColorTanimoto>
0.152 

> <ROCS_RefTversky>
0.233 

> <ROCS_RefColorTversky>
0.160 

> <ROCS_RefTverskyCombo>
0.393 

> <ROCS_FitTversky>
1.728 

> <ROCS_FitColorTversky>
0.766 

> <ROCS_FitTverskyCombo>
2.494 

> <ROCS_ColorScore>
-4.852

> <ROCS_Overlap>
1613.347

> <ROCS_Rank>
446                 

$$$$
untitled-dbase-578_6
  -OEChem-11112315393D

 32 33  0     1  0  0  0  0  0999 V2000
   10.4170   13.3071   23.3967 C   0  0  0  0  0  0  0  0  0  0  0  0
    6.1320   10.9559   25.8944 C   0  0  0  0  0  0  0  0  0  0  0  0
    6.2403   12.4268   25.5081 C   0  0  0  0  0  0  0  0  0  0  0  0
    9.3256    9.8642   22.8218 C   0  0  0  0  0  0  0  0  0  0  0  0
    7.4991   10.3572   26.2159 C   0  0  0  0  0  0  0  0  0  0  0  0
    8.2761    9.6332   23.9035 C   0  0  0  0  0  0  0  0  0  0  0  0
    7.2148   12.6350   24.3533 C   0  0  0  0  0  0  0  0  0  0  0  0
    9.3569   11.3232   22.3875 C   0  0  0  0  0  0  0  0  0  0  0  0
    8.5320   10.5642   25.0980 C   0  0  1  0  0  0  0  0  0  0  0  0
    8.6016   12.0455   24.6662 C   0  0  1  0  0  0  0  0  0  0  0  0
   11.1337   13.4441   22.0762 C   0  0  0  0  0  0  0  0  0  0  0  0
    9.5257   12.2359   23.5237 N   0  0  0  0  0  0  0  0  0  0  0  0
   10.6363   14.1340   24.2861 O   0  0  0  0  0  0  0  0  0  0  0  0
   12.1438   14.8800   22.1988 Cl  0  0  0  0  0  0  0  0  0  0  0  0
    5.4756   10.8548   26.7663 H   0  0  0  0  0  0  0  0  0  0  0  0
    5.6597   10.3949   25.0797 H   0  0  0  0  0  0  0  0  0  0  0  0
    5.2515   12.8080   25.2290 H   0  0  0  0  0  0  0  0  0  0  0  0
    6.5727   13.0095   26.3761 H   0  0  0  0  0  0  0  0  0  0  0  0
   10.3144    9.5687   23.1936 H   0  0  0  0  0  0  0  0  0  0  0  0
    9.1068    9.2276   21.9570 H   0  0  0  0  0  0  0  0  0  0  0  0
    7.8776   10.8279   27.1327 H   0  0  0  0  0  0  0  0  0  0  0  0
    7.3901    9.2893   26.4388 H   0  0  0  0  0  0  0  0  0  0  0  0
    7.2777    9.7956   23.4824 H   0  0  0  0  0  0  0  0  0  0  0  0
    8.3169    8.5871   24.2296 H   0  0  0  0  0  0  0  0  0  0  0  0
    6.7922   12.1756   23.4521 H   0  0  0  0  0  0  0  0  0  0  0  0
    7.3022   13.7089   24.1497 H   0  0  0  0  0  0  0  0  0  0  0  0
   10.1613   11.4649   21.6582 H   0  0  0  0  0  0  0  0  0  0  0  0
    8.4222   11.5944   21.8836 H   0  0  0  0  0  0  0  0  0  0  0  0
    9.5128   10.2919   25.5141 H   0  0  0  0  0  0  0  0  0  0  0  0
    8.9923   12.5972   25.5273 H   0  0  0  0  0  0  0  0  0  0  0  0
   10.3988   13.5716   21.2900 H   0  0  0  0  0  0  0  0  0  0  0  0
   11.7502   12.5668   21.9193 H   0  0  0  0  0  0  0  0  0  0  0  0
  1 11  1  0  0  0  0
  1 12  1  0  0  0  0
  1 13  2  0  0  0  0
  2  3  1  0  0  0  0
  2  5  1  0  0  0  0
  3  7  1  0  0  0  0
  4  6  1  0  0  0  0
  4  8  1  0  0  0  0
  5  9  1  0  0  0  0
  6  9  1  0  0  0  0
  7 10  1  0  0  0  0
  8 12  1  0  0  0  0
  9 10  1  0  0  0  0
 10 12  1  0  0  0  0
 11 14  1  0  0  0  0
  2 15  1  0  0  0  0
  2 16  1  0  0  0  0
  3 17  1  0  0  0  0
  3 18  1  0  0  0  0
  4 19  1  0  0  0  0
  4 20  1  0  0  0  0
  5 21  1  0  0  0  0
  5 22  1  0  0  0  0
  6 23  1  0  0  0  0
  6 24  1  0  0  0  0
  7 25  1  0  0  0  0
  7 26  1  0  0  0  0
  8 27  1  0  0  0  0
  8 28  1  0  0  0  0
  9 29  1  0  0  0  0
 10 30  1  0  0  0  0
 11 31  1  0  0  0  0
 11 32  1  0  0  0  0
M  END
> <Catalog ID>
Z147647782

> <MW>
215.108

> <MW (desalted)>
215.72

> <ClogP>
2.026

> <logS>
-2.79

> <HBD>
0

> <HBA>
1

> <TPSA>
20.31

> <RotBonds>
1

> <ROCS_ShapeQuery>
A71EV2A-x0451_0A_A71EV2A-x0310_0A_A71EV2A-x0416_0A_peptide

> <ROCS_TanimotoCombo>
0.411 

> <ROCS_ShapeTanimoto>
0.271 

> <ROCS_ColorTanimoto>
0.140 

> <ROCS_RefTversky>
0.241 

> <ROCS_RefColorTversky>
0.141 

> <ROCS_RefTverskyCombo>
0.382 

> <ROCS_FitTversky>
1.814 

> <ROCS_FitColorTversky>
0.959 

> <ROCS_FitTverskyCombo>
2.773 

> <ROCS_ColorScore>
-4.264

> <ROCS_Overlap>
1670.522

> <ROCS_Rank>
447                 

$$$$
untitled-dbase-606_14
  -OEChem-11112315393D

 19 19  0     0  0  0  0  0  0999 V2000
    9.3303   10.2363   23.2904 C   0  0  0  0  0  0  0  0  0  0  0  0
    8.3616    9.5003   23.9727 C   0  0  0  0  0  0  0  0  0  0  0  0
    8.4661   12.2733   24.2604 C   0  0  0  0  0  0  0  0  0  0  0  0
    9.3826   11.6227   23.4343 C   0  0  0  0  0  0  0  0  0  0  0  0
    7.4450   10.1508   24.7988 C   0  0  0  0  0  0  0  0  0  0  0  0
    7.4973   11.5373   24.9427 C   0  0  0  0  0  0  0  0  0  0  0  0
   10.9229   13.5525   23.1767 C   0  0  0  0  0  0  0  0  0  0  0  0
   11.9389   14.0723   22.1862 C   0  0  0  0  0  0  0  0  0  0  0  0
   10.3517   12.3587   22.7514 N   0  0  0  0  0  0  0  0  0  0  0  0
   10.6785   14.1857   24.2002 O   0  0  0  0  0  0  0  0  0  0  0  0
    6.5199    9.4296   25.4481 F   0  0  0  0  0  0  0  0  0  0  0  0
    6.3696   12.3448   25.9628 Cl  0  0  0  0  0  0  0  0  0  0  0  0
   11.4391   13.5431   20.5720 Cl  0  0  0  0  0  0  0  0  0  0  0  0
   10.0398    9.7181   22.6502 H   0  0  0  0  0  0  0  0  0  0  0  0
    8.3217    8.4208   23.8611 H   0  0  0  0  0  0  0  0  0  0  0  0
    8.5105   13.3548   24.3700 H   0  0  0  0  0  0  0  0  0  0  0  0
   12.9485   13.7024   22.3819 H   0  0  0  0  0  0  0  0  0  0  0  0
   11.9507   15.1655   22.2165 H   0  0  0  0  0  0  0  0  0  0  0  0
   10.6699   11.9868   21.8585 H   0  0  0  0  0  0  0  0  0  0  0  0
  1  2  2  0  0  0  0
  1  4  1  0  0  0  0
  2  5  1  0  0  0  0
  3  4  2  0  0  0  0
  3  6  1  0  0  0  0
  4  9  1  0  0  0  0
  5  6  2  0  0  0  0
  5 11  1  0  0  0  0
  6 12  1  0  0  0  0
  7  8  1  0  0  0  0
  7  9  1  0  0  0  0
  7 10  2  0  0  0  0
  8 13  1  0  0  0  0
  1 14  1  0  0  0  0
  2 15  1  0  0  0  0
  3 16  1  0  0  0  0
  8 17  1  0  0  0  0
  8 18  1  0  0  0  0
  9 19  1  0  0  0  0
M  END
> <Catalog ID>
Z56821913

> <MW>
220.981

> <MW (desalted)>
222.044

> <ClogP>
2.978

> <logS>
-3.23

> <HBD>
1

> <HBA>
1

> <TPSA>
29.1

> <RotBonds>
2

> <ROCS_ShapeQuery>
A71EV2A-x0451_0A_A71EV2A-x0310_0A_A71EV2A-x0416_0A_peptide

> <ROCS_TanimotoCombo>
0.410 

> <ROCS_ShapeTanimoto>
0.271 

> <ROCS_ColorTanimoto>
0.140 

> <ROCS_RefTversky>
0.240 

> <ROCS_RefColorTversky>
0.141 

> <ROCS_RefTverskyCombo>
0.381 

> <ROCS_FitTversky>
1.882 

> <ROCS_FitColorTversky>
0.960 

> <ROCS_FitTverskyCombo>
2.842 

> <ROCS_ColorScore>
-4.256

> <ROCS_Overlap>
1662.966

> <ROCS_Rank>
448                 

$$$$
untitled-dbase-790_812
  -OEChem-11112315393D

 30 32  0     1  0  0  0  0  0999 V2000
   11.9340   12.9756   25.8319 C   0  0  0  0  0  0  0  0  0  0  0  0
    3.9816   11.7092   28.3893 C   0  0  0  0  0  0  0  0  0  0  0  0
    4.7708   11.2269   27.3055 C   0  0  0  0  0  0  0  0  0  0  0  0
   10.7259   12.2387   25.8562 C   0  0  0  0  0  0  0  0  0  0  0  0
   11.7749   13.9380   24.8622 C   0  0  0  0  0  0  0  0  0  0  0  0
    4.4320   12.9240   28.8570 C   0  0  0  0  0  0  0  0  0  0  0  0
    5.7944   12.0918   26.9859 C   0  0  0  0  0  0  0  0  0  0  0  0
    9.9145   12.8035   24.8998 C   0  0  0  0  0  0  0  0  0  0  0  0
    6.8250   11.9606   25.9328 C   0  0  0  0  0  0  0  0  0  0  0  0
    8.7622   10.0603   23.7944 C   0  0  0  0  0  0  0  0  0  0  0  0
    7.4297   13.1682   25.2590 C   0  0  0  0  0  0  0  0  0  0  0  0
    8.5081   12.4981   24.4206 C   0  0  2  0  0  0  0  0  0  0  0  0
   10.1600   10.3202   23.2884 C   0  0  0  0  0  0  0  0  0  0  0  0
    7.2569   10.8150   25.4998 N   0  0  0  0  0  0  0  0  0  0  0  0
    8.2101   11.0717   24.5578 N   0  0  0  0  0  0  0  0  0  0  0  0
    8.1850    9.0057   23.5257 O   0  0  0  0  0  0  0  0  0  0  0  0
   10.5466   13.8401   24.2894 O   0  0  0  0  0  0  0  0  0  0  0  0
    5.8011   13.4785   27.9907 S   0  0  0  0  0  0  0  0  0  0  0  0
   10.6427    8.8876   22.3878 Cl  0  0  0  0  0  0  0  0  0  0  0  0
   12.8111   12.8240   26.4441 H   0  0  0  0  0  0  0  0  0  0  0  0
    3.1277   11.1906   28.8055 H   0  0  0  0  0  0  0  0  0  0  0  0
    4.5919   10.2919   26.7896 H   0  0  0  0  0  0  0  0  0  0  0  0
   10.4805   11.4004   26.4927 H   0  0  0  0  0  0  0  0  0  0  0  0
   12.4075   14.7258   24.4802 H   0  0  0  0  0  0  0  0  0  0  0  0
    4.0229   13.5119   29.6666 H   0  0  0  0  0  0  0  0  0  0  0  0
    6.6625   13.6358   24.6332 H   0  0  0  0  0  0  0  0  0  0  0  0
    7.7979   13.8840   25.9998 H   0  0  0  0  0  0  0  0  0  0  0  0
    8.4360   12.7835   23.3490 H   0  0  0  0  0  0  0  0  0  0  0  0
   10.8179   10.4666   24.1368 H   0  0  0  0  0  0  0  0  0  0  0  0
   10.1404   11.1834   22.6338 H   0  0  0  0  0  0  0  0  0  0  0  0
  1  4  1  0  0  0  0
  1  5  2  0  0  0  0
  2  3  1  0  0  0  0
  2  6  2  0  0  0  0
  3  7  2  0  0  0  0
  4  8  2  0  0  0  0
  5 17  1  0  0  0  0
  6 18  1  0  0  0  0
  7  9  1  0  0  0  0
  7 18  1  0  0  0  0
  8 12  1  0  0  0  0
  8 17  1  0  0  0  0
  9 11  1  0  0  0  0
  9 14  2  0  0  0  0
 10 13  1  0  0  0  0
 10 15  1  0  0  0  0
 10 16  2  0  0  0  0
 11 12  1  0  0  0  0
 12 15  1  0  0  0  0
 13 19  1  0  0  0  0
 14 15  1  0  0  0  0
  1 20  1  0  0  0  0
  2 21  1  0  0  0  0
  3 22  1  0  0  0  0
  4 23  1  0  0  0  0
  5 24  1  0  0  0  0
  6 25  1  0  0  0  0
 11 26  1  0  0  0  0
 11 27  1  0  0  0  0
 12 28  1  0  0  0  0
 13 29  1  0  0  0  0
 13 30  1  0  0  0  0
M  END
> <Catalog ID>
Z57036335

> <MW>
294.023

> <MW (desalted)>
294.757

> <ClogP>
2.092

> <logS>
-3.97

> <HBD>
0

> <HBA>
2

> <TPSA>
45.81

> <RotBonds>
3

> <ROCS_ShapeQuery>
A71EV2A-x0451_0A_A71EV2A-x0310_0A_A71EV2A-x0416_0A_peptide

> <ROCS_TanimotoCombo>
0.410 

> <ROCS_ShapeTanimoto>
0.262 

> <ROCS_ColorTanimoto>
0.148 

> <ROCS_RefTversky>
0.243 

> <ROCS_RefColorTversky>
0.160 

> <ROCS_RefTverskyCombo>
0.403 

> <ROCS_FitTversky>
1.440 

> <ROCS_FitColorTversky>
0.668 

> <ROCS_FitTverskyCombo>
2.108 

> <ROCS_ColorScore>
-4.864

> <ROCS_Overlap>
1684.452

> <ROCS_Rank>
449                 

$$$$
untitled-dbase-577_41
  -OEChem-11112315393D

 23 23  0     0  0  0  0  0  0999 V2000
    7.8943    9.8973   24.2212 C   0  0  0  0  0  0  0  0  0  0  0  0
    7.4531   11.1557   24.6305 C   0  0  0  0  0  0  0  0  0  0  0  0
    9.1313    9.7630   23.5907 C   0  0  0  0  0  0  0  0  0  0  0  0
    8.2487   12.2798   24.4090 C   0  0  0  0  0  0  0  0  0  0  0  0
    9.9270   10.8871   23.3692 C   0  0  0  0  0  0  0  0  0  0  0  0
    9.4857   12.1455   23.7784 C   0  0  0  0  0  0  0  0  0  0  0  0
   10.3333   13.3431   23.5425 C   0  0  0  0  0  0  0  0  0  0  0  0
   13.2466   14.4207   22.7668 C   0  0  0  0  0  0  0  0  0  0  0  0
   13.9952   15.6681   22.3749 C   0  0  0  0  0  0  0  0  0  0  0  0
   11.1977   13.2625   22.4675 N   0  0  0  0  0  0  0  0  0  0  0  0
   11.9984   14.3417   22.1816 N   0  0  0  0  0  0  0  0  0  0  0  0
   10.2168   14.3182   24.2806 O   0  0  0  0  0  0  0  0  0  0  0  0
   13.7232   13.5932   23.5417 O   0  0  0  0  0  0  0  0  0  0  0  0
   12.8076   16.9516   22.0982 Cl  0  0  0  0  0  0  0  0  0  0  0  0
    7.2748    9.0222   24.3937 H   0  0  0  0  0  0  0  0  0  0  0  0
    6.4899   11.2601   25.1212 H   0  0  0  0  0  0  0  0  0  0  0  0
    9.4750    8.7832   23.2723 H   0  0  0  0  0  0  0  0  0  0  0  0
    7.8952   13.2556   24.7320 H   0  0  0  0  0  0  0  0  0  0  0  0
   10.8890   10.7706   22.8768 H   0  0  0  0  0  0  0  0  0  0  0  0
   14.6609   15.9644   23.1901 H   0  0  0  0  0  0  0  0  0  0  0  0
   14.5835   15.5333   21.4636 H   0  0  0  0  0  0  0  0  0  0  0  0
   11.2402   12.4229   21.9004 H   0  0  0  0  0  0  0  0  0  0  0  0
   11.6778   15.0687   21.5508 H   0  0  0  0  0  0  0  0  0  0  0  0
  1  2  1  0  0  0  0
  1  3  2  0  0  0  0
  2  4  2  0  0  0  0
  3  5  1  0  0  0  0
  4  6  1  0  0  0  0
  5  6  2  0  0  0  0
  6  7  1  0  0  0  0
  7 10  1  0  0  0  0
  7 12  2  0  0  0  0
  8  9  1  0  0  0  0
  8 11  1  0  0  0  0
  8 13  2  0  0  0  0
  9 14  1  0  0  0  0
 10 11  1  0  0  0  0
  1 15  1  0  0  0  0
  2 16  1  0  0  0  0
  3 17  1  0  0  0  0
  4 18  1  0  0  0  0
  5 19  1  0  0  0  0
  9 20  1  0  0  0  0
  9 21  1  0  0  0  0
 10 22  1  0  0  0  0
 11 23  1  0  0  0  0
M  END
> <Catalog ID>
Z56872003

> <MW>
212.035

> <MW (desalted)>
212.633

> <ClogP>
0.924

> <logS>
-2.64

> <HBD>
2

> <HBA>
2

> <TPSA>
58.2

> <RotBonds>
3

> <ROCS_ShapeQuery>
A71EV2A-x0451_0A_A71EV2A-x0310_0A_A71EV2A-x0416_0A_peptide

> <ROCS_TanimotoCombo>
0.410 

> <ROCS_ShapeTanimoto>
0.252 

> <ROCS_ColorTanimoto>
0.158 

> <ROCS_RefTversky>
0.228 

> <ROCS_RefColorTversky>
0.166 

> <ROCS_RefTverskyCombo>
0.395 

> <ROCS_FitTversky>
1.698 

> <ROCS_FitColorTversky>
0.763 

> <ROCS_FitTverskyCombo>
2.461 

> <ROCS_ColorScore>
-5.056

> <ROCS_Overlap>
1581.688

> <ROCS_Rank>
450                 

$$$$
untitled-dbase-89_73
  -OEChem-11112315393D

 32 33  0     0  0  0  0  0  0999 V2000
    9.2132   10.0275   23.6940 C   0  0  0  0  0  0  0  0  0  0  0  0
    8.3988   12.3879   24.7571 C   0  0  0  0  0  0  0  0  0  0  0  0
    7.6315   11.2819   24.7330 C   0  0  0  0  0  0  0  0  0  0  0  0
    9.7737   12.3210   24.1806 C   0  0  0  0  0  0  0  0  0  0  0  0
    5.4205   13.3213   29.3583 C   0  0  0  0  0  0  0  0  0  0  0  0
    5.2169   13.6649   28.0847 C   0  0  0  0  0  0  0  0  0  0  0  0
    4.9854   12.6002   27.0865 C   0  0  0  0  0  0  0  0  0  0  0  0
    7.9283   13.6950   25.3191 C   0  0  0  0  0  0  0  0  0  0  0  0
    6.2435   11.2581   25.3322 C   0  0  0  0  0  0  0  0  0  0  0  0
    6.4106   13.7414   25.4394 C   0  0  0  0  0  0  0  0  0  0  0  0
   11.6291   11.8215   21.9109 C   0  0  0  0  0  0  0  0  0  0  0  0
   11.4219   10.8921   23.0580 C   0  0  0  0  0  0  0  0  0  0  0  0
    8.0246   10.0761   24.1982 N   0  0  0  0  0  0  0  0  0  0  0  0
   10.1076   11.0773   23.6528 N   0  0  0  0  0  0  0  0  0  0  0  0
    5.8855   12.5079   26.0236 N   0  0  0  0  0  0  0  0  0  0  0  0
   10.5121   13.3031   24.1968 O   0  0  0  0  0  0  0  0  0  0  0  0
    4.0199   11.8547   27.2581 O   0  0  0  0  0  0  0  0  0  0  0  0
    9.5850    9.0912   23.2502 H   0  0  0  0  0  0  0  0  0  0  0  0
    5.5959   14.0570   30.1360 H   0  0  0  0  0  0  0  0  0  0  0  0
    5.4143   12.2757   29.6475 H   0  0  0  0  0  0  0  0  0  0  0  0
    5.2154   14.6965   27.7578 H   0  0  0  0  0  0  0  0  0  0  0  0
    8.3861   13.8456   26.3043 H   0  0  0  0  0  0  0  0  0  0  0  0
    8.2482   14.5252   24.6786 H   0  0  0  0  0  0  0  0  0  0  0  0
    5.4972   11.0987   24.5453 H   0  0  0  0  0  0  0  0  0  0  0  0
    6.1879   10.4231   26.0373 H   0  0  0  0  0  0  0  0  0  0  0  0
    6.1110   14.6177   26.0235 H   0  0  0  0  0  0  0  0  0  0  0  0
    5.9503   13.8453   24.4484 H   0  0  0  0  0  0  0  0  0  0  0  0
   11.5409   12.8609   22.2600 H   0  0  0  0  0  0  0  0  0  0  0  0
   12.6308   11.6614   21.4857 H   0  0  0  0  0  0  0  0  0  0  0  0
   10.8684   11.6279   21.1403 H   0  0  0  0  0  0  0  0  0  0  0  0
   11.5115    9.8555   22.7009 H   0  0  0  0  0  0  0  0  0  0  0  0
   12.1913   11.0852   23.8200 H   0  0  0  0  0  0  0  0  0  0  0  0
  1 13  2  0  0  0  0
  1 14  1  0  0  0  0
  2  3  2  0  0  0  0
  2  4  1  0  0  0  0
  2  8  1  0  0  0  0
  3  9  1  0  0  0  0
  3 13  1  0  0  0  0
  4 14  1  0  0  0  0
  4 16  2  0  0  0  0
  5  6  2  0  0  0  0
  6  7  1  0  0  0  0
  7 15  1  0  0  0  0
  7 17  2  0  0  0  0
  8 10  1  0  0  0  0
  9 15  1  0  0  0  0
 10 15  1  0  0  0  0
 11 12  1  0  0  0  0
 12 14  1  0  0  0  0
  1 18  1  0  0  0  0
  5 19  1  0  0  0  0
  5 20  1  0  0  0  0
  6 21  1  0  0  0  0
  8 22  1  0  0  0  0
  8 23  1  0  0  0  0
  9 24  1  0  0  0  0
  9 25  1  0  0  0  0
 10 26  1  0  0  0  0
 10 27  1  0  0  0  0
 11 28  1  0  0  0  0
 11 29  1  0  0  0  0
 11 30  1  0  0  0  0
 12 31  1  0  0  0  0
 12 32  1  0  0  0  0
M  END
> <Catalog ID>
Z2737383448

> <MW>
233.266

> <MW (desalted)>
233.266

> <ClogP>
-1.174

> <logS>
-1.63

> <HBD>
0

> <HBA>
3

> <TPSA>
52.98

> <RotBonds>
2

> <ROCS_ShapeQuery>
A71EV2A-x0451_0A_A71EV2A-x0310_0A_A71EV2A-x0416_0A_peptide

> <ROCS_TanimotoCombo>
0.410 

> <ROCS_ShapeTanimoto>
0.263 

> <ROCS_ColorTanimoto>
0.147 

> <ROCS_RefTversky>
0.241 

> <ROCS_RefColorTversky>
0.159 

> <ROCS_RefTverskyCombo>
0.400 

> <ROCS_FitTversky>
1.536 

> <ROCS_FitColorTversky>
0.664 

> <ROCS_FitTverskyCombo>
2.200 

> <ROCS_ColorScore>
-4.844

> <ROCS_Overlap>
1669.508

> <ROCS_Rank>
451                 

$$$$
untitled-dbase-124_534
  -OEChem-11112315393D

 37 38  0     0  0  0  0  0  0999 V2000
   11.9539   14.3924   21.9602 C   0  0  0  0  0  0  0  0  0  0  0  0
   11.2387   13.2099   22.1128 C   0  0  0  0  0  0  0  0  0  0  0  0
   11.2266   15.0509   24.1268 C   0  0  0  0  0  0  0  0  0  0  0  0
   11.9529   15.3357   22.9817 C   0  0  0  0  0  0  0  0  0  0  0  0
   10.5445   13.0201   23.2969 C   0  0  0  0  0  0  0  0  0  0  0  0
    4.2959    9.0079   25.3095 C   0  0  0  0  0  0  0  0  0  0  0  0
    5.3287    9.5024   25.9987 C   0  0  0  0  0  0  0  0  0  0  0  0
    6.5262   10.0257   25.2885 C   0  0  0  0  0  0  0  0  0  0  0  0
    9.4901    9.7114   24.6272 C   0  0  0  0  0  0  0  0  0  0  0  0
    8.0221   10.3715   22.6577 C   0  0  0  0  0  0  0  0  0  0  0  0
    9.6304   11.2286   24.7525 C   0  0  0  0  0  0  0  0  0  0  0  0
    9.2755   11.1512   22.2661 C   0  0  0  0  0  0  0  0  0  0  0  0
    8.3146    9.3148   23.7282 C   0  0  0  0  0  0  0  0  0  0  0  0
   12.7076   16.6105   22.8482 C   0  0  0  0  0  0  0  0  0  0  0  0
   10.5198   13.9134   24.3113 N   0  0  0  0  0  0  0  0  0  0  0  0
    9.8399   11.8411   23.4335 N   0  0  0  0  0  0  0  0  0  0  0  0
    7.1299    9.0523   24.5126 N   0  0  0  0  0  0  0  0  0  0  0  0
    6.9064   11.1866   25.4024 O   0  0  0  0  0  0  0  0  0  0  0  0
   13.3700   16.7372   21.6585 F   0  0  0  0  0  0  0  0  0  0  0  0
   11.9226   17.7269   22.9350 F   0  0  0  0  0  0  0  0  0  0  0  0
   13.6631   16.7633   23.8130 F   0  0  0  0  0  0  0  0  0  0  0  0
   12.5085   14.5707   21.0430 H   0  0  0  0  0  0  0  0  0  0  0  0
   11.2337   12.4683   21.3204 H   0  0  0  0  0  0  0  0  0  0  0  0
   11.1881   15.7490   24.9574 H   0  0  0  0  0  0  0  0  0  0  0  0
    3.4263    8.6270   25.8347 H   0  0  0  0  0  0  0  0  0  0  0  0
    4.2820    8.9677   24.2259 H   0  0  0  0  0  0  0  0  0  0  0  0
    5.3023    9.5247   27.0827 H   0  0  0  0  0  0  0  0  0  0  0  0
   10.4144    9.3034   24.2022 H   0  0  0  0  0  0  0  0  0  0  0  0
    9.3819    9.2639   25.6204 H   0  0  0  0  0  0  0  0  0  0  0  0
    7.2462   11.0611   23.0028 H   0  0  0  0  0  0  0  0  0  0  0  0
    7.6217    9.8721   21.7687 H   0  0  0  0  0  0  0  0  0  0  0  0
    8.7359   11.6553   25.2275 H   0  0  0  0  0  0  0  0  0  0  0  0
   10.4831   11.4462   25.4103 H   0  0  0  0  0  0  0  0  0  0  0  0
   10.0104   10.4469   21.8511 H   0  0  0  0  0  0  0  0  0  0  0  0
    9.0419   11.8798   21.4765 H   0  0  0  0  0  0  0  0  0  0  0  0
    8.5471    8.3563   23.2312 H   0  0  0  0  0  0  0  0  0  0  0  0
    6.7628    8.1059   24.5030 H   0  0  0  0  0  0  0  0  0  0  0  0
  1  2  2  0  0  0  0
  1  4  1  0  0  0  0
  2  5  1  0  0  0  0
  3  4  2  0  0  0  0
  3 15  1  0  0  0  0
  4 14  1  0  0  0  0
  5 15  2  0  0  0  0
  5 16  1  0  0  0  0
  6  7  2  0  0  0  0
  7  8  1  0  0  0  0
  8 17  1  0  0  0  0
  8 18  2  0  0  0  0
  9 11  1  0  0  0  0
  9 13  1  0  0  0  0
 10 12  1  0  0  0  0
 10 13  1  0  0  0  0
 11 16  1  0  0  0  0
 12 16  1  0  0  0  0
 13 17  1  0  0  0  0
 14 19  1  0  0  0  0
 14 20  1  0  0  0  0
 14 21  1  0  0  0  0
  1 22  1  0  0  0  0
  2 23  1  0  0  0  0
  3 24  1  0  0  0  0
  6 25  1  0  0  0  0
  6 26  1  0  0  0  0
  7 27  1  0  0  0  0
  9 28  1  0  0  0  0
  9 29  1  0  0  0  0
 10 30  1  0  0  0  0
 10 31  1  0  0  0  0
 11 32  1  0  0  0  0
 11 33  1  0  0  0  0
 12 34  1  0  0  0  0
 12 35  1  0  0  0  0
 13 36  1  0  0  0  0
 17 37  1  0  0  0  0
M  END
> <Catalog ID>
Z2737383141

> <MW>
299.292

> <MW (desalted)>
299.292

> <ClogP>
1.158

> <logS>
-3.488

> <HBD>
1

> <HBA>
3

> <TPSA>
45.23

> <RotBonds>
4

> <ROCS_ShapeQuery>
A71EV2A-x0451_0A_A71EV2A-x0310_0A_A71EV2A-x0416_0A_peptide

> <ROCS_TanimotoCombo>
0.410 

> <ROCS_ShapeTanimoto>
0.277 

> <ROCS_ColorTanimoto>
0.133 

> <ROCS_RefTversky>
0.256 

> <ROCS_RefColorTversky>
0.146 

> <ROCS_RefTverskyCombo>
0.402 

> <ROCS_FitTversky>
1.418 

> <ROCS_FitColorTversky>
0.608 

> <ROCS_FitTverskyCombo>
2.026 

> <ROCS_ColorScore>
-4.428

> <ROCS_Overlap>
1778.025

> <ROCS_Rank>
452                 

$$$$
untitled-dbase-421_477
  -OEChem-11112315393D

 34 35  0     0  0  0  0  0  0999 V2000
    7.5980   11.2896   24.9362 C   0  0  0  0  0  0  0  0  0  0  0  0
    8.6822    9.7573   23.4152 C   0  0  0  0  0  0  0  0  0  0  0  0
    8.5486   12.2640   24.6324 C   0  0  0  0  0  0  0  0  0  0  0  0
    9.6329   10.7317   23.1113 C   0  0  0  0  0  0  0  0  0  0  0  0
    7.6648   10.0362   24.3277 C   0  0  0  0  0  0  0  0  0  0  0  0
    9.5661   11.9851   23.7199 C   0  0  0  0  0  0  0  0  0  0  0  0
   15.4712   12.1857   26.5974 C   0  0  0  0  0  0  0  0  0  0  0  0
   13.1784   11.4408   26.0373 C   0  0  0  0  0  0  0  0  0  0  0  0
   14.5981   12.2879   24.2101 C   0  0  0  0  0  0  0  0  0  0  0  0
   12.0292   12.3224   25.5616 C   0  0  0  0  0  0  0  0  0  0  0  0
   13.4518   13.1707   23.7258 C   0  0  0  0  0  0  0  0  0  0  0  0
   15.4880   11.2106   27.7473 C   0  0  0  0  0  0  0  0  0  0  0  0
   14.4686   12.0097   25.6453 N   0  0  0  0  0  0  0  0  0  0  0  0
   12.1476   12.5376   24.0878 N   0  0  0  0  0  0  0  0  0  0  0  0
   16.3254   13.0742   26.5470 O   0  0  0  0  0  0  0  0  0  0  0  0
   10.9636   13.2127   21.8997 O   0  0  0  0  0  0  0  0  0  0  0  0
   10.4026   14.4320   24.0319 O   0  0  0  0  0  0  0  0  0  0  0  0
    6.7524    9.1001   24.6202 F   0  0  0  0  0  0  0  0  0  0  0  0
   10.7681   13.2186   23.3333 S   0  0  0  0  0  0  0  0  0  0  0  0
   14.5085   11.9215   29.0252 Cl  0  0  0  0  0  0  0  0  0  0  0  0
    6.8058   11.5062   25.6469 H   0  0  0  0  0  0  0  0  0  0  0  0
    8.7337    8.7812   22.9418 H   0  0  0  0  0  0  0  0  0  0  0  0
    8.4873   13.2370   25.1123 H   0  0  0  0  0  0  0  0  0  0  0  0
   10.4214   10.5032   22.3992 H   0  0  0  0  0  0  0  0  0  0  0  0
   13.1798   11.3745   27.1332 H   0  0  0  0  0  0  0  0  0  0  0  0
   13.0412   10.4274   25.6528 H   0  0  0  0  0  0  0  0  0  0  0  0
   14.6227   11.3596   23.6335 H   0  0  0  0  0  0  0  0  0  0  0  0
   15.5594   12.7940   24.0681 H   0  0  0  0  0  0  0  0  0  0  0  0
   11.0630   11.8607   25.7935 H   0  0  0  0  0  0  0  0  0  0  0  0
   12.0856   13.2888   26.0733 H   0  0  0  0  0  0  0  0  0  0  0  0
   13.5266   14.1499   24.2121 H   0  0  0  0  0  0  0  0  0  0  0  0
   13.5057   13.3172   22.6404 H   0  0  0  0  0  0  0  0  0  0  0  0
   16.5098   11.0857   28.0874 H   0  0  0  0  0  0  0  0  0  0  0  0
   15.0509   10.2740   27.4204 H   0  0  0  0  0  0  0  0  0  0  0  0
  1  3  2  0  0  0  0
  1  5  1  0  0  0  0
  2  4  1  0  0  0  0
  2  5  2  0  0  0  0
  3  6  1  0  0  0  0
  4  6  2  0  0  0  0
  5 18  1  0  0  0  0
  6 19  1  0  0  0  0
  7 12  1  0  0  0  0
  7 13  1  0  0  0  0
  7 15  2  0  0  0  0
  8 10  1  0  0  0  0
  8 13  1  0  0  0  0
  9 11  1  0  0  0  0
  9 13  1  0  0  0  0
 10 14  1  0  0  0  0
 11 14  1  0  0  0  0
 12 20  1  0  0  0  0
 14 19  1  0  0  0  0
 16 19  2  0  0  0  0
 17 19  2  0  0  0  0
  1 21  1  0  0  0  0
  2 22  1  0  0  0  0
  3 23  1  0  0  0  0
  4 24  1  0  0  0  0
  8 25  1  0  0  0  0
  8 26  1  0  0  0  0
  9 27  1  0  0  0  0
  9 28  1  0  0  0  0
 10 29  1  0  0  0  0
 10 30  1  0  0  0  0
 11 31  1  0  0  0  0
 11 32  1  0  0  0  0
 12 33  1  0  0  0  0
 12 34  1  0  0  0  0
M  END
> <Catalog ID>
Z147647366

> <MW>
320.04

> <MW (desalted)>
320.768

> <ClogP>
1.62

> <logS>
-3.06

> <HBD>
0

> <HBA>
3

> <TPSA>
57.69

> <RotBonds>
2

> <ROCS_ShapeQuery>
A71EV2A-x0451_0A_A71EV2A-x0310_0A_A71EV2A-x0416_0A_peptide

> <ROCS_TanimotoCombo>
0.410 

> <ROCS_ShapeTanimoto>
0.287 

> <ROCS_ColorTanimoto>
0.123 

> <ROCS_RefTversky>
0.260 

> <ROCS_RefColorTversky>
0.133 

> <ROCS_RefTverskyCombo>
0.393 

> <ROCS_FitTversky>
1.541 

> <ROCS_FitColorTversky>
0.636 

> <ROCS_FitTverskyCombo>
2.177 

> <ROCS_ColorScore>
-4.030

> <ROCS_Overlap>
1807.339

> <ROCS_Rank>
453                 

$$$$
untitled-dbase-650_55
  -OEChem-11112315393D

 23 23  0     0  0  0  0  0  0999 V2000
    7.8534   10.6807   25.1773 C   0  0  0  0  0  0  0  0  0  0  0  0
    9.3647   11.4233   23.5246 C   0  0  0  0  0  0  0  0  0  0  0  0
   10.8191   13.4057   23.1813 C   0  0  0  0  0  0  0  0  0  0  0  0
    6.2305    9.1694   26.3754 C   0  0  0  0  0  0  0  0  0  0  0  0
    5.9944   11.6723   26.5610 C   0  0  0  0  0  0  0  0  0  0  0  0
   11.7724   13.9505   22.1431 C   0  0  0  0  0  0  0  0  0  0  0  0
    6.9741   10.5071   26.4016 C   0  0  0  0  0  0  0  0  0  0  0  0
    7.9457    9.8257   24.1811 N   0  0  0  0  0  0  0  0  0  0  0  0
    8.8329   10.2608   23.2122 N   0  0  0  0  0  0  0  0  0  0  0  0
   10.2707   12.1632   22.8155 N   0  0  0  0  0  0  0  0  0  0  0  0
   10.5836   14.0483   24.2010 O   0  0  0  0  0  0  0  0  0  0  0  0
    8.8324   12.0799   25.0169 S   0  0  0  0  0  0  0  0  0  0  0  0
   10.8331   14.9382   21.0128 Cl  0  0  0  0  0  0  0  0  0  0  0  0
    5.5628    9.0882   25.5108 H   0  0  0  0  0  0  0  0  0  0  0  0
    5.6212    9.0502   27.2780 H   0  0  0  0  0  0  0  0  0  0  0  0
    6.9347    8.3309   26.3331 H   0  0  0  0  0  0  0  0  0  0  0  0
    5.3200   11.7375   25.6998 H   0  0  0  0  0  0  0  0  0  0  0  0
    6.5353   12.6220   26.6357 H   0  0  0  0  0  0  0  0  0  0  0  0
    5.3781   11.5696   27.4609 H   0  0  0  0  0  0  0  0  0  0  0  0
   12.2835   13.1633   21.5832 H   0  0  0  0  0  0  0  0  0  0  0  0
   12.5214   14.5804   22.6314 H   0  0  0  0  0  0  0  0  0  0  0  0
    7.6146   10.5015   27.2937 H   0  0  0  0  0  0  0  0  0  0  0  0
   10.5851   11.7681   21.9173 H   0  0  0  0  0  0  0  0  0  0  0  0
  1  7  1  0  0  0  0
  1  8  2  0  0  0  0
  1 12  1  0  0  0  0
  2  9  2  0  0  0  0
  2 10  1  0  0  0  0
  2 12  1  0  0  0  0
  3  6  1  0  0  0  0
  3 10  1  0  0  0  0
  3 11  2  0  0  0  0
  4  7  1  0  0  0  0
  5  7  1  0  0  0  0
  6 13  1  0  0  0  0
  8  9  1  0  0  0  0
  4 14  1  0  0  0  0
  4 15  1  0  0  0  0
  4 16  1  0  0  0  0
  5 17  1  0  0  0  0
  5 18  1  0  0  0  0
  5 19  1  0  0  0  0
  6 20  1  0  0  0  0
  6 21  1  0  0  0  0
  7 22  1  0  0  0  0
 10 23  1  0  0  0  0
M  END
> <Catalog ID>
Z1562128614

> <MW>
219.023

> <MW (desalted)>
219.692

> <ClogP>
1.72

> <logS>
-2.789

> <HBD>
1

> <HBA>
3

> <TPSA>
54.88

> <RotBonds>
3

> <ROCS_ShapeQuery>
A71EV2A-x0451_0A_A71EV2A-x0310_0A_A71EV2A-x0416_0A_peptide

> <ROCS_TanimotoCombo>
0.410 

> <ROCS_ShapeTanimoto>
0.244 

> <ROCS_ColorTanimoto>
0.166 

> <ROCS_RefTversky>
0.221 

> <ROCS_RefColorTversky>
0.178 

> <ROCS_RefTverskyCombo>
0.398 

> <ROCS_FitTversky>
1.764 

> <ROCS_FitColorTversky>
0.715 

> <ROCS_FitTverskyCombo>
2.479 

> <ROCS_ColorScore>
-5.407

> <ROCS_Overlap>
1527.130

> <ROCS_Rank>
454                 

$$$$
untitled-dbase-96_6
  -OEChem-11112315393D

 22 22  0     0  0  0  0  0  0999 V2000
    7.4516   11.5657   24.9414 C   0  0  0  0  0  0  0  0  0  0  0  0
    7.3883   10.1768   24.8291 C   0  0  0  0  0  0  0  0  0  0  0  0
    8.4373   12.2766   24.2567 C   0  0  0  0  0  0  0  0  0  0  0  0
    8.3108    9.4988   24.0323 C   0  0  0  0  0  0  0  0  0  0  0  0
    9.3598   11.5986   23.4599 C   0  0  0  0  0  0  0  0  0  0  0  0
    9.2966   10.2097   23.3477 C   0  0  0  0  0  0  0  0  0  0  0  0
   11.7760   15.1907   21.5542 C   0  0  0  0  0  0  0  0  0  0  0  0
   11.9259   14.0148   22.1721 C   0  0  0  0  0  0  0  0  0  0  0  0
   10.9202   13.5485   23.1703 C   0  0  0  0  0  0  0  0  0  0  0  0
   10.3362   12.3366   22.7836 N   0  0  0  0  0  0  0  0  0  0  0  0
   10.2246    9.4932   22.5406 N   0  3  0  0  0  0  0  0  0  0  0  0
   10.1285    8.2457   22.4710 O   0  5  0  0  0  0  0  0  0  0  0  0
   10.6828   14.1960   24.1831 O   0  0  0  0  0  0  0  0  0  0  0  0
   11.1096   10.1321   21.9247 O   0  0  0  0  0  0  0  0  0  0  0  0
    6.7322   12.0934   25.5607 H   0  0  0  0  0  0  0  0  0  0  0  0
    6.6204    9.6232   25.3615 H   0  0  0  0  0  0  0  0  0  0  0  0
    8.4753   13.3586   24.3526 H   0  0  0  0  0  0  0  0  0  0  0  0
    8.2497    8.4160   23.9548 H   0  0  0  0  0  0  0  0  0  0  0  0
   12.4858   15.5622   20.8236 H   0  0  0  0  0  0  0  0  0  0  0  0
   10.9173   15.8151   21.7777 H   0  0  0  0  0  0  0  0  0  0  0  0
   12.7838   13.3899   21.9491 H   0  0  0  0  0  0  0  0  0  0  0  0
   10.6646   11.9416   21.8956 H   0  0  0  0  0  0  0  0  0  0  0  0
  1  2  1  0  0  0  0
  1  3  2  0  0  0  0
  2  4  2  0  0  0  0
  3  5  1  0  0  0  0
  4  6  1  0  0  0  0
  5  6  2  0  0  0  0
  5 10  1  0  0  0  0
  6 11  1  0  0  0  0
  7  8  2  0  0  0  0
  8  9  1  0  0  0  0
  9 10  1  0  0  0  0
  9 13  2  0  0  0  0
 11 12  1  0  0  0  0
 11 14  2  0  0  0  0
  1 15  1  0  0  0  0
  2 16  1  0  0  0  0
  3 17  1  0  0  0  0
  4 18  1  0  0  0  0
  7 19  1  0  0  0  0
  7 20  1  0  0  0  0
  8 21  1  0  0  0  0
 10 22  1  0  0  0  0
M  CHG  2  11   1  12  -1
M  END
> <Catalog ID>
Z445399636

> <MW>
192.053

> <MW (desalted)>
192.171

> <ClogP>
1.251

> <logS>
-2.965

> <HBD>
1

> <HBA>
3

> <TPSA>
72.24

> <RotBonds>
3

> <ROCS_ShapeQuery>
A71EV2A-x0451_0A_A71EV2A-x0310_0A_A71EV2A-x0416_0A_peptide

> <ROCS_TanimotoCombo>
0.410 

> <ROCS_ShapeTanimoto>
0.283 

> <ROCS_ColorTanimoto>
0.126 

> <ROCS_RefTversky>
0.251 

> <ROCS_RefColorTversky>
0.139 

> <ROCS_RefTverskyCombo>
0.390 

> <ROCS_FitTversky>
1.822 

> <ROCS_FitColorTversky>
0.580 

> <ROCS_FitTverskyCombo>
2.402 

> <ROCS_ColorScore>
-4.236

> <ROCS_Overlap>
1739.979

> <ROCS_Rank>
455                 

$$$$
untitled-dbase-756_170
  -OEChem-11112315393D

 20 20  0     0  0  0  0  0  0999 V2000
    7.1403   10.9222   24.8082 C   0  0  0  0  0  0  0  0  0  0  0  0
    7.9331   12.0999   24.6871 C   0  0  0  0  0  0  0  0  0  0  0  0
    7.7670    9.8191   24.2715 C   0  0  0  0  0  0  0  0  0  0  0  0
    9.1358   11.8519   24.0626 C   0  0  0  0  0  0  0  0  0  0  0  0
   10.2351   12.8008   23.7473 C   0  0  0  0  0  0  0  0  0  0  0  0
   11.4064   15.1394   22.3527 C   0  0  0  0  0  0  0  0  0  0  0  0
   12.5658   15.9726   21.8713 C   0  0  0  0  0  0  0  0  0  0  0  0
   10.5515   12.9270   22.4081 N   0  0  0  0  0  0  0  0  0  0  0  0
   11.5471   13.8009   22.0442 N   0  0  0  0  0  0  0  0  0  0  0  0
   10.7797   13.4164   24.6603 O   0  0  0  0  0  0  0  0  0  0  0  0
   10.4471   15.6379   22.9389 O   0  0  0  0  0  0  0  0  0  0  0  0
    9.3050   10.2050   23.6251 S   0  0  0  0  0  0  0  0  0  0  0  0
   13.6957   14.8996   21.0309 Cl  0  0  0  0  0  0  0  0  0  0  0  0
    6.1597   10.8864   25.2646 H   0  0  0  0  0  0  0  0  0  0  0  0
    7.6316   13.0773   25.0424 H   0  0  0  0  0  0  0  0  0  0  0  0
    7.3945    8.8054   24.2275 H   0  0  0  0  0  0  0  0  0  0  0  0
   12.2034   16.7312   21.1722 H   0  0  0  0  0  0  0  0  0  0  0  0
   13.0950   16.4652   22.6910 H   0  0  0  0  0  0  0  0  0  0  0  0
   10.0582   12.3849   21.7073 H   0  0  0  0  0  0  0  0  0  0  0  0
   12.3724   13.4681   21.5568 H   0  0  0  0  0  0  0  0  0  0  0  0
  1  2  1  0  0  0  0
  1  3  2  0  0  0  0
  2  4  2  0  0  0  0
  3 12  1  0  0  0  0
  4  5  1  0  0  0  0
  4 12  1  0  0  0  0
  5  8  1  0  0  0  0
  5 10  2  0  0  0  0
  6  7  1  0  0  0  0
  6  9  1  0  0  0  0
  6 11  2  0  0  0  0
  7 13  1  0  0  0  0
  8  9  1  0  0  0  0
  1 14  1  0  0  0  0
  2 15  1  0  0  0  0
  3 16  1  0  0  0  0
  7 17  1  0  0  0  0
  7 18  1  0  0  0  0
  8 19  1  0  0  0  0
  9 20  1  0  0  0  0
M  END
> <Catalog ID>
Z56949584

> <MW>
217.992

> <MW (desalted)>
218.661

> <ClogP>
0.762

> <logS>
-2.63

> <HBD>
2

> <HBA>
2

> <TPSA>
58.2

> <RotBonds>
3

> <ROCS_ShapeQuery>
A71EV2A-x0451_0A_A71EV2A-x0310_0A_A71EV2A-x0416_0A_peptide

> <ROCS_TanimotoCombo>
0.410 

> <ROCS_ShapeTanimoto>
0.245 

> <ROCS_ColorTanimoto>
0.165 

> <ROCS_RefTversky>
0.222 

> <ROCS_RefColorTversky>
0.172 

> <ROCS_RefTverskyCombo>
0.394 

> <ROCS_FitTversky>
1.757 

> <ROCS_FitColorTversky>
0.790 

> <ROCS_FitTverskyCombo>
2.547 

> <ROCS_ColorScore>
-5.233

> <ROCS_Overlap>
1533.947

> <ROCS_Rank>
456                 

$$$$
untitled-dbase-883_248
  -OEChem-11112315393D

 40 42  0     1  0  0  0  0  0999 V2000
    8.5939    9.7935   23.6179 C   0  0  0  0  0  0  0  0  0  0  0  0
    7.8387   10.4874   24.5376 C   0  0  0  0  0  0  0  0  0  0  0  0
    9.2925   11.8083   23.5183 C   0  0  0  0  0  0  0  0  0  0  0  0
   14.2067   15.9427   21.2098 C   0  0  0  0  0  0  0  0  0  0  0  0
   13.8431   15.8550   22.4910 C   0  0  0  0  0  0  0  0  0  0  0  0
   13.3144   14.5723   22.9960 C   0  0  0  0  0  0  0  0  0  0  0  0
    6.7679   10.0889   25.4879 C   0  0  0  0  0  0  0  0  0  0  0  0
    5.9856   11.3034   25.9989 C   0  0  0  0  0  0  0  0  0  0  0  0
    6.9325   12.4371   26.4023 C   0  0  0  0  0  0  0  0  0  0  0  0
   10.0751   15.1353   21.6688 C   0  0  0  0  0  0  0  0  0  0  0  0
    9.2995   13.8704   22.0454 C   0  0  0  0  0  0  0  0  0  0  0  0
    7.7785   12.8906   25.2113 C   0  0  0  0  0  0  0  0  0  0  0  0
   11.5258   14.8151   21.3145 C   0  0  0  0  0  0  0  0  0  0  0  0
   11.4862   12.8036   22.7329 C   0  0  0  0  0  0  0  0  0  0  0  0
   10.0312   13.0800   23.1491 C   0  0  2  0  0  0  0  0  0  0  0  0
    9.4941   10.6207   22.9890 N   0  0  0  0  0  0  0  0  0  0  0  0
    8.3071   11.7723   24.4581 N   0  0  0  0  0  0  0  0  0  0  0  0
   12.1639   14.0658   22.3992 N   0  0  0  0  0  0  0  0  0  0  0  0
   13.9281   14.0242   23.9131 O   0  0  0  0  0  0  0  0  0  0  0  0
    8.5403    8.7410   23.3797 H   0  0  0  0  0  0  0  0  0  0  0  0
   14.6019   16.8574   20.7809 H   0  0  0  0  0  0  0  0  0  0  0  0
   14.1123   15.0812   20.5571 H   0  0  0  0  0  0  0  0  0  0  0  0
   13.9227   16.6917   23.1727 H   0  0  0  0  0  0  0  0  0  0  0  0
    6.0791    9.3828   25.0109 H   0  0  0  0  0  0  0  0  0  0  0  0
    7.2285    9.5696   26.3373 H   0  0  0  0  0  0  0  0  0  0  0  0
    5.3068   11.6623   25.2147 H   0  0  0  0  0  0  0  0  0  0  0  0
    5.3644   11.0089   26.8520 H   0  0  0  0  0  0  0  0  0  0  0  0
    6.3630   13.2860   26.7960 H   0  0  0  0  0  0  0  0  0  0  0  0
    7.5894   12.0877   27.2089 H   0  0  0  0  0  0  0  0  0  0  0  0
    9.5873   15.6246   20.8186 H   0  0  0  0  0  0  0  0  0  0  0  0
   10.0494   15.8448   22.5053 H   0  0  0  0  0  0  0  0  0  0  0  0
    8.2912   14.1438   22.3795 H   0  0  0  0  0  0  0  0  0  0  0  0
    9.1750   13.2442   21.1517 H   0  0  0  0  0  0  0  0  0  0  0  0
    7.1723   13.4797   24.5137 H   0  0  0  0  0  0  0  0  0  0  0  0
    8.6178   13.5032   25.5562 H   0  0  0  0  0  0  0  0  0  0  0  0
   11.5760   14.1979   20.4100 H   0  0  0  0  0  0  0  0  0  0  0  0
   12.0663   15.7444   21.1084 H   0  0  0  0  0  0  0  0  0  0  0  0
   12.0118   12.2424   23.5076 H   0  0  0  0  0  0  0  0  0  0  0  0
   11.5186   12.1763   21.8315 H   0  0  0  0  0  0  0  0  0  0  0  0
   10.0509   13.7101   24.0712 H   0  0  0  0  0  0  0  0  0  0  0  0
  1  2  2  0  0  0  0
  1 16  1  0  0  0  0
  2  7  1  0  0  0  0
  2 17  1  0  0  0  0
  3 15  1  0  0  0  0
  3 16  2  0  0  0  0
  3 17  1  0  0  0  0
  4  5  2  0  0  0  0
  5  6  1  0  0  0  0
  6 18  1  0  0  0  0
  6 19  2  0  0  0  0
  7  8  1  0  0  0  0
  8  9  1  0  0  0  0
  9 12  1  0  0  0  0
 10 11  1  0  0  0  0
 10 13  1  0  0  0  0
 11 15  1  0  0  0  0
 12 17  1  0  0  0  0
 13 18  1  0  0  0  0
 14 15  1  0  0  0  0
 14 18  1  0  0  0  0
  1 20  1  0  0  0  0
  4 21  1  0  0  0  0
  4 22  1  0  0  0  0
  5 23  1  0  0  0  0
  7 24  1  0  0  0  0
  7 25  1  0  0  0  0
  8 26  1  0  0  0  0
  8 27  1  0  0  0  0
  9 28  1  0  0  0  0
  9 29  1  0  0  0  0
 10 30  1  0  0  0  0
 10 31  1  0  0  0  0
 11 32  1  0  0  0  0
 11 33  1  0  0  0  0
 12 34  1  0  0  0  0
 12 35  1  0  0  0  0
 13 36  1  0  0  0  0
 13 37  1  0  0  0  0
 14 38  1  0  0  0  0
 14 39  1  0  0  0  0
 15 40  1  0  0  0  0
M  END
> <Catalog ID>
Z2867490834

> <MW>
259.347

> <MW (desalted)>
259.347

> <ClogP>
1.042

> <logS>
-1.801

> <HBD>
0

> <HBA>
2

> <TPSA>
38.13

> <RotBonds>
2

> <ROCS_ShapeQuery>
A71EV2A-x0451_0A_A71EV2A-x0310_0A_A71EV2A-x0416_0A_peptide

> <ROCS_TanimotoCombo>
0.409 

> <ROCS_ShapeTanimoto>
0.313 

> <ROCS_ColorTanimoto>
0.096 

> <ROCS_RefTversky>
0.279 

> <ROCS_RefColorTversky>
0.111 

> <ROCS_RefTverskyCombo>
0.390 

> <ROCS_FitTversky>
1.653 

> <ROCS_FitColorTversky>
0.411 

> <ROCS_FitTverskyCombo>
2.064 

> <ROCS_ColorScore>
-3.389

> <ROCS_Overlap>
1935.305

> <ROCS_Rank>
457                 

$$$$
untitled-dbase-886_275
  -OEChem-11112315393D

 20 20  0     0  0  0  0  0  0999 V2000
    6.9260   12.0581   25.1673 C   0  0  0  0  0  0  0  0  0  0  0  0
    6.4497   10.7550   25.2599 C   0  0  0  0  0  0  0  0  0  0  0  0
    8.1512   12.3028   24.5572 C   0  0  0  0  0  0  0  0  0  0  0  0
    7.2305    9.7400   24.7309 C   0  0  0  0  0  0  0  0  0  0  0  0
    8.8559   11.2184   24.0598 C   0  0  0  0  0  0  0  0  0  0  0  0
   10.5175   13.7591   23.0436 C   0  0  0  0  0  0  0  0  0  0  0  0
   10.6065   14.7984   21.9568 C   0  0  0  0  0  0  0  0  0  0  0  0
    8.4256    9.9388   24.1311 N   0  0  0  0  0  0  0  0  0  0  0  0
   10.1027   11.4841   23.4412 N   0  0  0  0  0  0  0  0  0  0  0  0
   10.1877   12.5100   22.5573 N   0  0  0  0  0  0  0  0  0  0  0  0
   10.7446   14.0313   24.2212 O   0  0  0  0  0  0  0  0  0  0  0  0
   12.2828   14.8459   21.3888 Cl  0  0  0  0  0  0  0  0  0  0  0  0
    6.3439   12.8813   25.5709 H   0  0  0  0  0  0  0  0  0  0  0  0
    5.4975   10.5404   25.7314 H   0  0  0  0  0  0  0  0  0  0  0  0
    8.5302   13.3166   24.4801 H   0  0  0  0  0  0  0  0  0  0  0  0
    6.9038    8.7063   24.7772 H   0  0  0  0  0  0  0  0  0  0  0  0
   10.3371   15.7766   22.3641 H   0  0  0  0  0  0  0  0  0  0  0  0
    9.9551   14.5717   21.1088 H   0  0  0  0  0  0  0  0  0  0  0  0
   10.9443   11.0768   23.8042 H   0  0  0  0  0  0  0  0  0  0  0  0
    9.9659   12.2972   21.5907 H   0  0  0  0  0  0  0  0  0  0  0  0
  1  2  1  0  0  0  0
  1  3  2  0  0  0  0
  2  4  2  0  0  0  0
  3  5  1  0  0  0  0
  4  8  1  0  0  0  0
  5  8  2  0  0  0  0
  5  9  1  0  0  0  0
  6  7  1  0  0  0  0
  6 10  1  0  0  0  0
  6 11  2  0  0  0  0
  7 12  1  0  0  0  0
  9 10  1  0  0  0  0
  1 13  1  0  0  0  0
  2 14  1  0  0  0  0
  3 15  1  0  0  0  0
  4 16  1  0  0  0  0
  7 17  1  0  0  0  0
  7 18  1  0  0  0  0
  9 19  1  0  0  0  0
 10 20  1  0  0  0  0
M  END
> <Catalog ID>
Z104511140

> <MW>
185.036

> <MW (desalted)>
185.611

> <ClogP>
0.359

> <logS>
-1.67

> <HBD>
2

> <HBA>
3

> <TPSA>
54.02

> <RotBonds>
3

> <ROCS_ShapeQuery>
A71EV2A-x0451_0A_A71EV2A-x0310_0A_A71EV2A-x0416_0A_peptide

> <ROCS_TanimotoCombo>
0.409 

> <ROCS_ShapeTanimoto>
0.252 

> <ROCS_ColorTanimoto>
0.157 

> <ROCS_RefTversky>
0.226 

> <ROCS_RefColorTversky>
0.166 

> <ROCS_RefTverskyCombo>
0.391 

> <ROCS_FitTversky>
1.841 

> <ROCS_FitColorTversky>
0.758 

> <ROCS_FitTverskyCombo>
2.599 

> <ROCS_ColorScore>
-5.030

> <ROCS_Overlap>
1564.004

> <ROCS_Rank>
458                 

$$$$
untitled-dbase-486_1749
  -OEChem-11112315393D

 42 43  0     0  0  0  0  0  0999 V2000
   10.5952   13.2005   23.5396 C   0  0  0  0  0  0  0  0  0  0  0  0
   13.2983   16.3207   20.5368 C   0  0  0  0  0  0  0  0  0  0  0  0
    7.2638   10.2625   24.9465 C   0  0  0  0  0  0  0  0  0  0  0  0
    7.9796    9.3307   23.9783 C   0  0  0  0  0  0  0  0  0  0  0  0
    7.2502   11.7278   24.5196 C   0  0  0  0  0  0  0  0  0  0  0  0
    9.4309    9.7049   23.6944 C   0  0  0  0  0  0  0  0  0  0  0  0
   11.1317   13.5625   21.1370 C   0  0  0  0  0  0  0  0  0  0  0  0
   12.9784   13.5884   22.8841 C   0  0  0  0  0  0  0  0  0  0  0  0
    8.5952   12.4228   24.7149 C   0  0  0  0  0  0  0  0  0  0  0  0
    9.5689   10.9830   22.8690 C   0  0  0  0  0  0  0  0  0  0  0  0
   11.2239   15.0863   21.0785 C   0  0  0  0  0  0  0  0  0  0  0  0
   13.0261   15.1117   22.7572 C   0  0  0  0  0  0  0  0  0  0  0  0
   11.6282   12.9943   22.4703 C   0  0  0  0  0  0  0  0  0  0  0  0
   13.0218   16.1058   19.0701 C   0  0  0  0  0  0  0  0  0  0  0  0
    9.6048   12.2146   23.6718 N   0  0  0  0  0  0  0  0  0  0  0  0
   12.5691   15.5382   21.4312 N   0  0  0  0  0  0  0  0  0  0  0  0
   10.6567   14.2129   24.2437 O   0  0  0  0  0  0  0  0  0  0  0  0
   14.1362   17.1606   20.8754 O   0  0  0  0  0  0  0  0  0  0  0  0
   14.5086   16.4992   18.2143 Cl  0  0  0  0  0  0  0  0  0  0  0  0
    6.2174    9.9213   25.0204 H   0  0  0  0  0  0  0  0  0  0  0  0
    7.6843   10.1582   25.9611 H   0  0  0  0  0  0  0  0  0  0  0  0
    7.9615    8.3160   24.3910 H   0  0  0  0  0  0  0  0  0  0  0  0
    7.4257    9.2902   23.0336 H   0  0  0  0  0  0  0  0  0  0  0  0
    6.9011   11.8328   23.4879 H   0  0  0  0  0  0  0  0  0  0  0  0
    6.5186   12.2577   25.1406 H   0  0  0  0  0  0  0  0  0  0  0  0
    9.9885    9.7945   24.6301 H   0  0  0  0  0  0  0  0  0  0  0  0
    9.8871    8.8828   23.1358 H   0  0  0  0  0  0  0  0  0  0  0  0
   10.0962   13.2561   20.9494 H   0  0  0  0  0  0  0  0  0  0  0  0
   11.7410   13.1400   20.3286 H   0  0  0  0  0  0  0  0  0  0  0  0
   13.7576   13.1588   22.2425 H   0  0  0  0  0  0  0  0  0  0  0  0
   13.2218   13.3049   23.9145 H   0  0  0  0  0  0  0  0  0  0  0  0
    8.4321   13.5048   24.7826 H   0  0  0  0  0  0  0  0  0  0  0  0
    9.0121   12.1042   25.6758 H   0  0  0  0  0  0  0  0  0  0  0  0
   10.5099   10.9161   22.2935 H   0  0  0  0  0  0  0  0  0  0  0  0
    8.7750   11.0740   22.1051 H   0  0  0  0  0  0  0  0  0  0  0  0
   10.9455   15.4323   20.0780 H   0  0  0  0  0  0  0  0  0  0  0  0
   10.5249   15.5467   21.7865 H   0  0  0  0  0  0  0  0  0  0  0  0
   12.3666   15.5838   23.4943 H   0  0  0  0  0  0  0  0  0  0  0  0
   14.0387   15.4580   22.9724 H   0  0  0  0  0  0  0  0  0  0  0  0
   11.7333   11.9072   22.3722 H   0  0  0  0  0  0  0  0  0  0  0  0
   12.2264   16.7742   18.7609 H   0  0  0  0  0  0  0  0  0  0  0  0
   12.7641   15.0652   18.9100 H   0  0  0  0  0  0  0  0  0  0  0  0
  1 13  1  0  0  0  0
  1 15  1  0  0  0  0
  1 17  2  0  0  0  0
  2 14  1  0  0  0  0
  2 16  1  0  0  0  0
  2 18  2  0  0  0  0
  3  4  1  0  0  0  0
  3  5  1  0  0  0  0
  4  6  1  0  0  0  0
  5  9  1  0  0  0  0
  6 10  1  0  0  0  0
  7 11  1  0  0  0  0
  7 13  1  0  0  0  0
  8 12  1  0  0  0  0
  8 13  1  0  0  0  0
  9 15  1  0  0  0  0
 10 15  1  0  0  0  0
 11 16  1  0  0  0  0
 12 16  1  0  0  0  0
 14 19  1  0  0  0  0
  3 20  1  0  0  0  0
  3 21  1  0  0  0  0
  4 22  1  0  0  0  0
  4 23  1  0  0  0  0
  5 24  1  0  0  0  0
  5 25  1  0  0  0  0
  6 26  1  0  0  0  0
  6 27  1  0  0  0  0
  7 28  1  0  0  0  0
  7 29  1  0  0  0  0
  8 30  1  0  0  0  0
  8 31  1  0  0  0  0
  9 32  1  0  0  0  0
  9 33  1  0  0  0  0
 10 34  1  0  0  0  0
 10 35  1  0  0  0  0
 11 36  1  0  0  0  0
 11 37  1  0  0  0  0
 12 38  1  0  0  0  0
 12 39  1  0  0  0  0
 13 40  1  0  0  0  0
 14 41  1  0  0  0  0
 14 42  1  0  0  0  0
M  END
> <Catalog ID>
Z291278928

> <MW>
286.145

> <MW (desalted)>
286.798

> <ClogP>
-0.189

> <logS>
-2.199

> <HBD>
0

> <HBA>
2

> <TPSA>
40.62

> <RotBonds>
2

> <ROCS_ShapeQuery>
A71EV2A-x0451_0A_A71EV2A-x0310_0A_A71EV2A-x0416_0A_peptide

> <ROCS_TanimotoCombo>
0.409 

> <ROCS_ShapeTanimoto>
0.307 

> <ROCS_ColorTanimoto>
0.102 

> <ROCS_RefTversky>
0.273 

> <ROCS_RefColorTversky>
0.109 

> <ROCS_RefTverskyCombo>
0.382 

> <ROCS_FitTversky>
1.677 

> <ROCS_FitColorTversky>
0.616 

> <ROCS_FitTverskyCombo>
2.293 

> <ROCS_ColorScore>
-3.318

> <ROCS_Overlap>
1891.971

> <ROCS_Rank>
459                 

$$$$
untitled-dbase-371_6
  -OEChem-11112315393D

 21 21  0     0  0  0  0  0  0999 V2000
    7.4768   11.5908   24.9537 C   0  0  0  0  0  0  0  0  0  0  0  0
    7.3934   10.2032   24.8393 C   0  0  0  0  0  0  0  0  0  0  0  0
    8.4643   12.2898   24.2596 C   0  0  0  0  0  0  0  0  0  0  0  0
    8.2977    9.5145   24.0308 C   0  0  0  0  0  0  0  0  0  0  0  0
    9.3686   11.6011   23.4511 C   0  0  0  0  0  0  0  0  0  0  0  0
    9.2853   10.2135   23.3366 C   0  0  0  0  0  0  0  0  0  0  0  0
   10.9204   13.5204   23.1846 C   0  0  0  0  0  0  0  0  0  0  0  0
   11.9446   14.0258   22.1950 C   0  0  0  0  0  0  0  0  0  0  0  0
   10.3473   12.3273   22.7654 N   0  0  0  0  0  0  0  0  0  0  0  0
   10.1944    9.4863   22.5177 N   0  3  0  0  0  0  0  0  0  0  0  0
    9.9001    9.2883   21.3158 O   0  5  0  0  0  0  0  0  0  0  0  0
   10.6738   14.1640   24.2009 O   0  0  0  0  0  0  0  0  0  0  0  0
   11.2610    9.0661   23.0240 O   0  0  0  0  0  0  0  0  0  0  0  0
   11.4171   15.6224   21.6398 Cl  0  0  0  0  0  0  0  0  0  0  0  0
    6.7716   12.1269   25.5821 H   0  0  0  0  0  0  0  0  0  0  0  0
    6.6240    9.6589   25.3791 H   0  0  0  0  0  0  0  0  0  0  0  0
    8.5181   13.3710   24.3572 H   0  0  0  0  0  0  0  0  0  0  0  0
    8.2210    8.4329   23.9517 H   0  0  0  0  0  0  0  0  0  0  0  0
   12.0554   13.3696   21.3281 H   0  0  0  0  0  0  0  0  0  0  0  0
   12.9142   14.1223   22.6917 H   0  0  0  0  0  0  0  0  0  0  0  0
   10.6686   11.9469   21.8787 H   0  0  0  0  0  0  0  0  0  0  0  0
  1  2  1  0  0  0  0
  1  3  2  0  0  0  0
  2  4  2  0  0  0  0
  3  5  1  0  0  0  0
  4  6  1  0  0  0  0
  5  6  2  0  0  0  0
  5  9  1  0  0  0  0
  6 10  1  0  0  0  0
  7  8  1  0  0  0  0
  7  9  1  0  0  0  0
  7 12  2  0  0  0  0
  8 14  1  0  0  0  0
 10 11  1  0  0  0  0
 10 13  2  0  0  0  0
  1 15  1  0  0  0  0
  2 16  1  0  0  0  0
  3 17  1  0  0  0  0
  4 18  1  0  0  0  0
  8 19  1  0  0  0  0
  8 20  1  0  0  0  0
  9 21  1  0  0  0  0
M  CHG  2  10   1  11  -1
M  END
> <Catalog ID>
Z56822452

> <MW>
214.015

> <MW (desalted)>
214.606

> <ClogP>
1.609

> <logS>
-2.91

> <HBD>
1

> <HBA>
3

> <TPSA>
72.24

> <RotBonds>
3

> <ROCS_ShapeQuery>
A71EV2A-x0451_0A_A71EV2A-x0310_0A_A71EV2A-x0416_0A_peptide

> <ROCS_TanimotoCombo>
0.409 

> <ROCS_ShapeTanimoto>
0.278 

> <ROCS_ColorTanimoto>
0.131 

> <ROCS_RefTversky>
0.247 

> <ROCS_RefColorTversky>
0.140 

> <ROCS_RefTverskyCombo>
0.387 

> <ROCS_FitTversky>
1.809 

> <ROCS_FitColorTversky>
0.671 

> <ROCS_FitTverskyCombo>
2.480 

> <ROCS_ColorScore>
-4.263

> <ROCS_Overlap>
1710.584

> <ROCS_Rank>
460                 

$$$$
untitled-dbase-862_18
  -OEChem-11112315393D

 30 31  0     0  0  0  0  0  0999 V2000
    7.4045   10.1975   24.8381 C   0  0  0  0  0  0  0  0  0  0  0  0
    7.4818   11.5852   24.9558 C   0  0  0  0  0  0  0  0  0  0  0  0
    8.3107    9.5148   24.0265 C   0  0  0  0  0  0  0  0  0  0  0  0
    8.4652   12.2903   24.2620 C   0  0  0  0  0  0  0  0  0  0  0  0
    9.2940   10.2199   23.3327 C   0  0  0  0  0  0  0  0  0  0  0  0
    9.3713   11.6077   23.4504 C   0  0  0  0  0  0  0  0  0  0  0  0
   11.5402    9.8571   22.2196 C   0  0  0  0  0  0  0  0  0  0  0  0
   10.9200   13.5296   23.1853 C   0  0  0  0  0  0  0  0  0  0  0  0
   12.0701    8.8462   21.2281 C   0  0  0  0  0  0  0  0  0  0  0  0
   11.1382    7.6636   21.4013 C   0  0  0  0  0  0  0  0  0  0  0  0
    9.8208    8.3072   21.7804 C   0  0  0  0  0  0  0  0  0  0  0  0
   11.9423   14.0382   22.1954 C   0  0  0  0  0  0  0  0  0  0  0  0
   10.2089    9.4993   22.5092 N   0  0  0  0  0  0  0  0  0  0  0  0
   10.3479   12.3362   22.7650 N   0  0  0  0  0  0  0  0  0  0  0  0
   12.1993   10.8142   22.5987 O   0  0  0  0  0  0  0  0  0  0  0  0
   10.6736   14.1713   24.2029 O   0  0  0  0  0  0  0  0  0  0  0  0
   11.1149   14.3031   20.6524 Cl  0  0  0  0  0  0  0  0  0  0  0  0
    6.6388    9.6486   25.3784 H   0  0  0  0  0  0  0  0  0  0  0  0
    6.7762   12.1166   25.5878 H   0  0  0  0  0  0  0  0  0  0  0  0
    8.2400    8.4332   23.9431 H   0  0  0  0  0  0  0  0  0  0  0  0
    8.5150   13.3717   24.3620 H   0  0  0  0  0  0  0  0  0  0  0  0
   12.0003    9.2716   20.2220 H   0  0  0  0  0  0  0  0  0  0  0  0
   13.1070    8.5848   21.4528 H   0  0  0  0  0  0  0  0  0  0  0  0
   11.0651    7.0540   20.4963 H   0  0  0  0  0  0  0  0  0  0  0  0
   11.4923    7.0227   22.2180 H   0  0  0  0  0  0  0  0  0  0  0  0
    9.2546    8.6151   20.8943 H   0  0  0  0  0  0  0  0  0  0  0  0
    9.2047    7.6532   22.4049 H   0  0  0  0  0  0  0  0  0  0  0  0
   12.7653   13.3364   22.0385 H   0  0  0  0  0  0  0  0  0  0  0  0
   12.3509   14.9888   22.5499 H   0  0  0  0  0  0  0  0  0  0  0  0
   10.6688   11.9575   21.8772 H   0  0  0  0  0  0  0  0  0  0  0  0
  1  2  1  0  0  0  0
  1  3  2  0  0  0  0
  2  4  2  0  0  0  0
  3  5  1  0  0  0  0
  4  6  1  0  0  0  0
  5  6  2  0  0  0  0
  5 13  1  0  0  0  0
  6 14  1  0  0  0  0
  7  9  1  0  0  0  0
  7 13  1  0  0  0  0
  7 15  2  0  0  0  0
  8 12  1  0  0  0  0
  8 14  1  0  0  0  0
  8 16  2  0  0  0  0
  9 10  1  0  0  0  0
 10 11  1  0  0  0  0
 11 13  1  0  0  0  0
 12 17  1  0  0  0  0
  1 18  1  0  0  0  0
  2 19  1  0  0  0  0
  3 20  1  0  0  0  0
  4 21  1  0  0  0  0
  9 22  1  0  0  0  0
  9 23  1  0  0  0  0
 10 24  1  0  0  0  0
 10 25  1  0  0  0  0
 11 26  1  0  0  0  0
 11 27  1  0  0  0  0
 12 28  1  0  0  0  0
 12 29  1  0  0  0  0
 14 30  1  0  0  0  0
M  END
> <Catalog ID>
Z199423636

> <MW>
252.067

> <MW (desalted)>
252.697

> <ClogP>
1.734

> <logS>
-2.79

> <HBD>
1

> <HBA>
2

> <TPSA>
49.41

> <RotBonds>
3

> <ROCS_ShapeQuery>
A71EV2A-x0451_0A_A71EV2A-x0310_0A_A71EV2A-x0416_0A_peptide

> <ROCS_TanimotoCombo>
0.409 

> <ROCS_ShapeTanimoto>
0.278 

> <ROCS_ColorTanimoto>
0.131 

> <ROCS_RefTversky>
0.251 

> <ROCS_RefColorTversky>
0.140 

> <ROCS_RefTverskyCombo>
0.391 

> <ROCS_FitTversky>
1.611 

> <ROCS_FitColorTversky>
0.673 

> <ROCS_FitTverskyCombo>
2.284 

> <ROCS_ColorScore>
-4.262

> <ROCS_Overlap>
1741.139

> <ROCS_Rank>
461                 

$$$$
untitled-dbase-614_2
  -OEChem-11112315393D

 22 22  0     0  0  0  0  0  0999 V2000
    8.8328   10.0092   23.3910 C   0  0  0  0  0  0  0  0  0  0  0  0
    9.8136   10.9330   22.9532 C   0  0  0  0  0  0  0  0  0  0  0  0
    8.0618   10.6461   24.3384 C   0  0  0  0  0  0  0  0  0  0  0  0
    9.6124   12.1061   23.6464 C   0  0  0  0  0  0  0  0  0  0  0  0
   10.3886   13.3673   23.5363 C   0  0  0  0  0  0  0  0  0  0  0  0
   11.7416   14.7312   21.9896 C   0  0  0  0  0  0  0  0  0  0  0  0
    7.9993   12.9054   25.3930 C   0  0  0  0  0  0  0  0  0  0  0  0
   12.1888   14.7608   20.5500 C   0  0  0  0  0  0  0  0  0  0  0  0
    8.5451   11.9200   24.4857 N   0  0  0  0  0  0  0  0  0  0  0  0
   10.9531   13.6206   22.2873 N   0  0  0  0  0  0  0  0  0  0  0  0
   10.5110   14.0820   24.5274 O   0  0  0  0  0  0  0  0  0  0  0  0
   12.0422   15.6260   22.7774 O   0  0  0  0  0  0  0  0  0  0  0  0
   13.7735   15.5479   20.4920 Cl  0  0  0  0  0  0  0  0  0  0  0  0
    8.7003    8.9915   23.0521 H   0  0  0  0  0  0  0  0  0  0  0  0
   10.5809   10.7569   22.2116 H   0  0  0  0  0  0  0  0  0  0  0  0
    7.2143   10.2985   24.9138 H   0  0  0  0  0  0  0  0  0  0  0  0
    8.5160   12.8046   26.3510 H   0  0  0  0  0  0  0  0  0  0  0  0
    8.1529   13.9059   24.9792 H   0  0  0  0  0  0  0  0  0  0  0  0
    6.9269   12.7292   25.5153 H   0  0  0  0  0  0  0  0  0  0  0  0
   12.2831   13.7370   20.1774 H   0  0  0  0  0  0  0  0  0  0  0  0
   11.4983   15.3111   19.9058 H   0  0  0  0  0  0  0  0  0  0  0  0
   10.7915   12.9507   21.5405 H   0  0  0  0  0  0  0  0  0  0  0  0
  1  2  1  0  0  0  0
  1  3  2  0  0  0  0
  2  4  2  0  0  0  0
  3  9  1  0  0  0  0
  4  5  1  0  0  0  0
  4  9  1  0  0  0  0
  5 10  1  0  0  0  0
  5 11  2  0  0  0  0
  6  8  1  0  0  0  0
  6 10  1  0  0  0  0
  6 12  2  0  0  0  0
  7  9  1  0  0  0  0
  8 13  1  0  0  0  0
  1 14  1  0  0  0  0
  2 15  1  0  0  0  0
  3 16  1  0  0  0  0
  7 17  1  0  0  0  0
  7 18  1  0  0  0  0
  7 19  1  0  0  0  0
  8 20  1  0  0  0  0
  8 21  1  0  0  0  0
 10 22  1  0  0  0  0
M  END
> <Catalog ID>
Z56943540

> <MW>
200.035

> <MW (desalted)>
200.622

> <ClogP>
0.976

> <logS>
-1.25

> <HBD>
1

> <HBA>
2

> <TPSA>
51.1

> <RotBonds>
2

> <ROCS_ShapeQuery>
A71EV2A-x0451_0A_A71EV2A-x0310_0A_A71EV2A-x0416_0A_peptide

> <ROCS_TanimotoCombo>
0.409 

> <ROCS_ShapeTanimoto>
0.251 

> <ROCS_ColorTanimoto>
0.158 

> <ROCS_RefTversky>
0.226 

> <ROCS_RefColorTversky>
0.161 

> <ROCS_RefTverskyCombo>
0.387 

> <ROCS_FitTversky>
1.748 

> <ROCS_FitColorTversky>
0.905 

> <ROCS_FitTverskyCombo>
2.653 

> <ROCS_ColorScore>
-4.877

> <ROCS_Overlap>
1567.438

> <ROCS_Rank>
462                 

$$$$
untitled-dbase-916_14
  -OEChem-11112315393D

 22 22  0     0  0  0  0  0  0999 V2000
    8.3592    9.4986   23.9729 C   0  0  0  0  0  0  0  0  0  0  0  0
    9.3277   10.2348   23.2905 C   0  0  0  0  0  0  0  0  0  0  0  0
    8.4645   12.2713   24.2624 C   0  0  0  0  0  0  0  0  0  0  0  0
    7.4433   10.1488   24.8001 C   0  0  0  0  0  0  0  0  0  0  0  0
    9.3804   11.6211   23.4352 C   0  0  0  0  0  0  0  0  0  0  0  0
    7.4960   11.5352   24.9448 C   0  0  0  0  0  0  0  0  0  0  0  0
   10.9204   13.5510   23.1770 C   0  0  0  0  0  0  0  0  0  0  0  0
    6.4216    9.3238   25.5140 C   0  0  0  0  0  0  0  0  0  0  0  0
   11.9352   14.0714   22.1857 C   0  0  0  0  0  0  0  0  0  0  0  0
   10.3485   12.3575   22.7516 N   0  0  0  0  0  0  0  0  0  0  0  0
   10.6773   14.1834   24.2013 O   0  0  0  0  0  0  0  0  0  0  0  0
    6.3790   12.3738   25.9591 Cl  0  0  0  0  0  0  0  0  0  0  0  0
   11.4334   13.5434   20.5716 Cl  0  0  0  0  0  0  0  0  0  0  0  0
    8.3270    8.4190   23.8529 H   0  0  0  0  0  0  0  0  0  0  0  0
   10.0358    9.7177   22.6481 H   0  0  0  0  0  0  0  0  0  0  0  0
    8.5091   13.3531   24.3717 H   0  0  0  0  0  0  0  0  0  0  0  0
    6.8052    9.0076   26.4904 H   0  0  0  0  0  0  0  0  0  0  0  0
    5.4946    9.8890   25.6677 H   0  0  0  0  0  0  0  0  0  0  0  0
    6.1597    8.4306   24.9341 H   0  0  0  0  0  0  0  0  0  0  0  0
   12.9451   13.7013   22.3798 H   0  0  0  0  0  0  0  0  0  0  0  0
   11.9472   15.1645   22.2167 H   0  0  0  0  0  0  0  0  0  0  0  0
   10.6656   11.9861   21.8581 H   0  0  0  0  0  0  0  0  0  0  0  0
  1  2  2  0  0  0  0
  1  4  1  0  0  0  0
  2  5  1  0  0  0  0
  3  5  2  0  0  0  0
  3  6  1  0  0  0  0
  4  6  2  0  0  0  0
  4  8  1  0  0  0  0
  5 10  1  0  0  0  0
  6 12  1  0  0  0  0
  7  9  1  0  0  0  0
  7 10  1  0  0  0  0
  7 11  2  0  0  0  0
  9 13  1  0  0  0  0
  1 14  1  0  0  0  0
  2 15  1  0  0  0  0
  3 16  1  0  0  0  0
  8 17  1  0  0  0  0
  8 18  1  0  0  0  0
  8 19  1  0  0  0  0
  9 20  1  0  0  0  0
  9 21  1  0  0  0  0
 10 22  1  0  0  0  0
M  END
> <Catalog ID>
Z56896162

> <MW>
217.006

> <MW (desalted)>
218.08

> <ClogP>
3.244

> <logS>
-3.22

> <HBD>
1

> <HBA>
1

> <TPSA>
29.1

> <RotBonds>
2

> <ROCS_ShapeQuery>
A71EV2A-x0451_0A_A71EV2A-x0310_0A_A71EV2A-x0416_0A_peptide

> <ROCS_TanimotoCombo>
0.409 

> <ROCS_ShapeTanimoto>
0.269 

> <ROCS_ColorTanimoto>
0.140 

> <ROCS_RefTversky>
0.239 

> <ROCS_RefColorTversky>
0.141 

> <ROCS_RefTverskyCombo>
0.379 

> <ROCS_FitTversky>
1.882 

> <ROCS_FitColorTversky>
0.960 

> <ROCS_FitTverskyCombo>
2.842 

> <ROCS_ColorScore>
-4.256

> <ROCS_Overlap>
1653.347

> <ROCS_Rank>
463                 

$$$$
untitled-dbase-644_1165
  -OEChem-11112315393D

 34 35  0     0  0  0  0  0  0999 V2000
    7.6688   10.0287   24.3254 C   0  0  0  0  0  0  0  0  0  0  0  0
    8.6879    9.7533   23.4137 C   0  0  0  0  0  0  0  0  0  0  0  0
    7.5975   11.2816   24.9344 C   0  0  0  0  0  0  0  0  0  0  0  0
    9.6358   10.7308   23.1111 C   0  0  0  0  0  0  0  0  0  0  0  0
    8.5454   12.2591   24.6317 C   0  0  0  0  0  0  0  0  0  0  0  0
    9.5646   11.9837   23.7201 C   0  0  0  0  0  0  0  0  0  0  0  0
   15.4695   12.1848   26.5979 C   0  0  0  0  0  0  0  0  0  0  0  0
   13.1767   11.4400   26.0380 C   0  0  0  0  0  0  0  0  0  0  0  0
   14.5966   12.2864   24.2106 C   0  0  0  0  0  0  0  0  0  0  0  0
   12.0276   12.3215   25.5619 C   0  0  0  0  0  0  0  0  0  0  0  0
   13.4504   13.1691   23.7258 C   0  0  0  0  0  0  0  0  0  0  0  0
   15.4862   11.2101   27.7481 C   0  0  0  0  0  0  0  0  0  0  0  0
   14.4670   12.0087   25.6458 N   0  0  0  0  0  0  0  0  0  0  0  0
   12.1461   12.5362   24.0879 N   0  0  0  0  0  0  0  0  0  0  0  0
   16.3238   13.0733   26.5473 O   0  0  0  0  0  0  0  0  0  0  0  0
   10.9623   13.2106   21.8995 O   0  0  0  0  0  0  0  0  0  0  0  0
   10.4013   14.4307   24.0313 O   0  0  0  0  0  0  0  0  0  0  0  0
    8.4670   13.4591   25.2236 F   0  0  0  0  0  0  0  0  0  0  0  0
   10.7667   13.2170   23.3332 S   0  0  0  0  0  0  0  0  0  0  0  0
   14.5066   11.9216   29.0257 Cl  0  0  0  0  0  0  0  0  0  0  0  0
    6.9306    9.2676   24.5609 H   0  0  0  0  0  0  0  0  0  0  0  0
    8.7428    8.7780   22.9390 H   0  0  0  0  0  0  0  0  0  0  0  0
    6.8041   11.4962   25.6441 H   0  0  0  0  0  0  0  0  0  0  0  0
   10.4254   10.5054   22.3993 H   0  0  0  0  0  0  0  0  0  0  0  0
   13.1780   11.3741   27.1339 H   0  0  0  0  0  0  0  0  0  0  0  0
   13.0394   10.4264   25.6537 H   0  0  0  0  0  0  0  0  0  0  0  0
   14.6211   11.3578   23.6342 H   0  0  0  0  0  0  0  0  0  0  0  0
   15.5580   12.7924   24.0684 H   0  0  0  0  0  0  0  0  0  0  0  0
   11.0614   11.8599   25.7938 H   0  0  0  0  0  0  0  0  0  0  0  0
   12.0841   13.2881   26.0732 H   0  0  0  0  0  0  0  0  0  0  0  0
   13.5252   14.1484   24.2118 H   0  0  0  0  0  0  0  0  0  0  0  0
   13.5043   13.3152   22.6404 H   0  0  0  0  0  0  0  0  0  0  0  0
   16.5079   11.0853   28.0884 H   0  0  0  0  0  0  0  0  0  0  0  0
   15.0490   10.2735   27.4215 H   0  0  0  0  0  0  0  0  0  0  0  0
  1  2  1  0  0  0  0
  1  3  2  0  0  0  0
  2  4  2  0  0  0  0
  3  5  1  0  0  0  0
  4  6  1  0  0  0  0
  5  6  2  0  0  0  0
  5 18  1  0  0  0  0
  6 19  1  0  0  0  0
  7 12  1  0  0  0  0
  7 13  1  0  0  0  0
  7 15  2  0  0  0  0
  8 10  1  0  0  0  0
  8 13  1  0  0  0  0
  9 11  1  0  0  0  0
  9 13  1  0  0  0  0
 10 14  1  0  0  0  0
 11 14  1  0  0  0  0
 12 20  1  0  0  0  0
 14 19  1  0  0  0  0
 16 19  2  0  0  0  0
 17 19  2  0  0  0  0
  1 21  1  0  0  0  0
  2 22  1  0  0  0  0
  3 23  1  0  0  0  0
  4 24  1  0  0  0  0
  8 25  1  0  0  0  0
  8 26  1  0  0  0  0
  9 27  1  0  0  0  0
  9 28  1  0  0  0  0
 10 29  1  0  0  0  0
 10 30  1  0  0  0  0
 11 31  1  0  0  0  0
 11 32  1  0  0  0  0
 12 33  1  0  0  0  0
 12 34  1  0  0  0  0
M  END
> <Catalog ID>
Z147647392

> <MW>
320.04

> <MW (desalted)>
320.768

> <ClogP>
1.62

> <logS>
-3.06

> <HBD>
0

> <HBA>
3

> <TPSA>
57.69

> <RotBonds>
2

> <ROCS_ShapeQuery>
A71EV2A-x0451_0A_A71EV2A-x0310_0A_A71EV2A-x0416_0A_peptide

> <ROCS_TanimotoCombo>
0.409 

> <ROCS_ShapeTanimoto>
0.285 

> <ROCS_ColorTanimoto>
0.123 

> <ROCS_RefTversky>
0.260 

> <ROCS_RefColorTversky>
0.133 

> <ROCS_RefTverskyCombo>
0.392 

> <ROCS_FitTversky>
1.530 

> <ROCS_FitColorTversky>
0.636 

> <ROCS_FitTverskyCombo>
2.166 

> <ROCS_ColorScore>
-4.029

> <ROCS_Overlap>
1801.510

> <ROCS_Rank>
464                 

$$$$
untitled-dbase-428_7
  -OEChem-11112315393D

 20 20  0     0  0  0  0  0  0999 V2000
    7.4152   10.0972   24.6589 C   0  0  0  0  0  0  0  0  0  0  0  0
    7.1091   11.3136   25.2283 C   0  0  0  0  0  0  0  0  0  0  0  0
    8.5047   10.1927   23.7456 C   0  0  0  0  0  0  0  0  0  0  0  0
    8.9897   11.4788   23.6516 C   0  0  0  0  0  0  0  0  0  0  0  0
    9.0531    9.0910   22.9970 C   0  0  0  0  0  0  0  0  0  0  0  0
   10.8171   13.1089   23.2444 C   0  0  0  0  0  0  0  0  0  0  0  0
   11.8491   13.4192   22.1851 C   0  0  0  0  0  0  0  0  0  0  0  0
    8.4834    7.8256   23.1691 N   0  0  0  0  0  0  0  0  0  0  0  0
   10.0093   12.0083   22.9081 N   0  0  0  0  0  0  0  0  0  0  0  0
   10.0233    9.2356   22.2209 O   0  0  0  0  0  0  0  0  0  0  0  0
   10.7411   13.8033   24.2544 O   0  0  0  0  0  0  0  0  0  0  0  0
    8.1329   12.5639   24.6619 S   0  0  0  0  0  0  0  0  0  0  0  0
   13.3091   12.4922   22.5655 Cl  0  0  0  0  0  0  0  0  0  0  0  0
    6.8792    9.1851   24.8903 H   0  0  0  0  0  0  0  0  0  0  0  0
    6.3332   11.5280   25.9497 H   0  0  0  0  0  0  0  0  0  0  0  0
   12.1062   14.4806   22.1425 H   0  0  0  0  0  0  0  0  0  0  0  0
   11.4722   13.1072   21.2070 H   0  0  0  0  0  0  0  0  0  0  0  0
    8.8601    7.0413   22.6479 H   0  0  0  0  0  0  0  0  0  0  0  0
    7.7041    7.6687   23.8001 H   0  0  0  0  0  0  0  0  0  0  0  0
   10.2059   11.5518   22.0057 H   0  0  0  0  0  0  0  0  0  0  0  0
  1  2  2  0  0  0  0
  1  3  1  0  0  0  0
  2 12  1  0  0  0  0
  3  4  2  0  0  0  0
  3  5  1  0  0  0  0
  4  9  1  0  0  0  0
  4 12  1  0  0  0  0
  5  8  1  0  0  0  0
  5 10  2  0  0  0  0
  6  7  1  0  0  0  0
  6  9  1  0  0  0  0
  6 11  2  0  0  0  0
  7 13  1  0  0  0  0
  1 14  1  0  0  0  0
  2 15  1  0  0  0  0
  7 16  1  0  0  0  0
  7 17  1  0  0  0  0
  8 18  1  0  0  0  0
  8 19  1  0  0  0  0
  9 20  1  0  0  0  0
M  END
> <Catalog ID>
Z56854493

> <MW>
217.992

> <MW (desalted)>
218.661

> <ClogP>
0.726

> <logS>
-2.59

> <HBD>
2

> <HBA>
2

> <TPSA>
72.19

> <RotBonds>
3

> <ROCS_ShapeQuery>
A71EV2A-x0451_0A_A71EV2A-x0310_0A_A71EV2A-x0416_0A_peptide

> <ROCS_TanimotoCombo>
0.409 

> <ROCS_ShapeTanimoto>
0.262 

> <ROCS_ColorTanimoto>
0.147 

> <ROCS_RefTversky>
0.234 

> <ROCS_RefColorTversky>
0.155 

> <ROCS_RefTverskyCombo>
0.389 

> <ROCS_FitTversky>
1.842 

> <ROCS_FitColorTversky>
0.743 

> <ROCS_FitTverskyCombo>
2.585 

> <ROCS_ColorScore>
-4.706

> <ROCS_Overlap>
1617.177

> <ROCS_Rank>
465                 

$$$$
untitled-dbase-468_24
  -OEChem-11112315393D

 25 25  0     0  0  0  0  0  0999 V2000
    9.5756   10.3417   23.1751 C   0  0  0  0  0  0  0  0  0  0  0  0
    8.3746    9.7329   23.5390 C   0  0  0  0  0  0  0  0  0  0  0  0
    8.9651   12.3047   24.4444 C   0  0  0  0  0  0  0  0  0  0  0  0
    9.8709   11.6276   23.6279 C   0  0  0  0  0  0  0  0  0  0  0  0
    7.7640   11.6958   24.8082 C   0  0  0  0  0  0  0  0  0  0  0  0
    7.4687   10.4099   24.3555 C   0  0  0  0  0  0  0  0  0  0  0  0
   10.7233   14.6157   22.5378 C   0  0  0  0  0  0  0  0  0  0  0  0
    6.7967   12.4225   25.6805 C   0  0  0  0  0  0  0  0  0  0  0  0
   11.1553   12.2783   23.2391 C   0  0  0  0  0  0  0  0  0  0  0  0
   10.5892   15.4937   21.3199 C   0  0  0  0  0  0  0  0  0  0  0  0
   10.9735   13.2880   22.2272 N   0  0  0  0  0  0  0  0  0  0  0  0
   10.6308   15.0687   23.6774 O   0  0  0  0  0  0  0  0  0  0  0  0
    6.3165    9.8172   24.6985 F   0  0  0  0  0  0  0  0  0  0  0  0
   12.1977   16.1134   20.9156 Cl  0  0  0  0  0  0  0  0  0  0  0  0
   10.2757    9.8062   22.5394 H   0  0  0  0  0  0  0  0  0  0  0  0
    8.1449    8.7310   23.1883 H   0  0  0  0  0  0  0  0  0  0  0  0
    9.1952   13.3075   24.7966 H   0  0  0  0  0  0  0  0  0  0  0  0
    6.0956   13.0052   25.0705 H   0  0  0  0  0  0  0  0  0  0  0  0
    6.2205   11.7259   26.3031 H   0  0  0  0  0  0  0  0  0  0  0  0
    7.3142   13.1069   26.3653 H   0  0  0  0  0  0  0  0  0  0  0  0
   11.6330   12.7600   24.1037 H   0  0  0  0  0  0  0  0  0  0  0  0
   11.8748   11.5468   22.8461 H   0  0  0  0  0  0  0  0  0  0  0  0
   10.1940   14.9548   20.4552 H   0  0  0  0  0  0  0  0  0  0  0  0
    9.9287   16.3344   21.5491 H   0  0  0  0  0  0  0  0  0  0  0  0
   11.0310   13.0165   21.2488 H   0  0  0  0  0  0  0  0  0  0  0  0
  1  2  2  0  0  0  0
  1  4  1  0  0  0  0
  2  6  1  0  0  0  0
  3  4  2  0  0  0  0
  3  5  1  0  0  0  0
  4  9  1  0  0  0  0
  5  6  2  0  0  0  0
  5  8  1  0  0  0  0
  6 13  1  0  0  0  0
  7 10  1  0  0  0  0
  7 11  1  0  0  0  0
  7 12  2  0  0  0  0
  9 11  1  0  0  0  0
 10 14  1  0  0  0  0
  1 15  1  0  0  0  0
  2 16  1  0  0  0  0
  3 17  1  0  0  0  0
  8 18  1  0  0  0  0
  8 19  1  0  0  0  0
  8 20  1  0  0  0  0
  9 21  1  0  0  0  0
  9 22  1  0  0  0  0
 10 23  1  0  0  0  0
 10 24  1  0  0  0  0
 11 25  1  0  0  0  0
M  END
> <Catalog ID>
Z258588542

> <MW>
215.051

> <MW (desalted)>
215.652

> <ClogP>
2.205

> <logS>
-2.59

> <HBD>
1

> <HBA>
1

> <TPSA>
29.1

> <RotBonds>
3

> <ROCS_ShapeQuery>
A71EV2A-x0451_0A_A71EV2A-x0310_0A_A71EV2A-x0416_0A_peptide

> <ROCS_TanimotoCombo>
0.408 

> <ROCS_ShapeTanimoto>
0.278 

> <ROCS_ColorTanimoto>
0.130 

> <ROCS_RefTversky>
0.247 

> <ROCS_RefColorTversky>
0.132 

> <ROCS_RefTverskyCombo>
0.379 

> <ROCS_FitTversky>
1.848 

> <ROCS_FitColorTversky>
0.903 

> <ROCS_FitTverskyCombo>
2.751 

> <ROCS_ColorScore>
-4.005

> <ROCS_Overlap>
1707.554

> <ROCS_Rank>
466                 

$$$$
untitled-dbase-591_9
  -OEChem-11112315393D

 24 25  0     0  0  0  0  0  0999 V2000
    6.9005   12.9158   25.9256 C   0  0  0  0  0  0  0  0  0  0  0  0
    6.4768   11.6565   26.3203 C   0  0  0  0  0  0  0  0  0  0  0  0
    7.9102   13.0482   24.9669 C   0  0  0  0  0  0  0  0  0  0  0  0
    7.0435   10.5307   25.7339 C   0  0  0  0  0  0  0  0  0  0  0  0
    8.5347   11.9285   24.3826 C   0  0  0  0  0  0  0  0  0  0  0  0
    8.0485   10.6569   24.7577 C   0  0  0  0  0  0  0  0  0  0  0  0
   10.4160   13.2645   23.4263 C   0  0  0  0  0  0  0  0  0  0  0  0
   10.0214   10.9454   22.5935 C   0  0  0  0  0  0  0  0  0  0  0  0
    9.0120    9.8290   22.4189 C   0  0  0  0  0  0  0  0  0  0  0  0
   11.1936   13.5399   22.1571 C   0  0  0  0  0  0  0  0  0  0  0  0
    9.6185   12.0929   23.4287 N   0  0  0  0  0  0  0  0  0  0  0  0
   10.5514   14.0539   24.3641 O   0  0  0  0  0  0  0  0  0  0  0  0
    8.6398    9.1385   24.0341 S   0  0  0  0  0  0  0  0  0  0  0  0
   11.3159   15.2890   22.0144 Cl  0  0  0  0  0  0  0  0  0  0  0  0
    6.4588   13.8029   26.3711 H   0  0  0  0  0  0  0  0  0  0  0  0
    5.7157   11.5499   27.0863 H   0  0  0  0  0  0  0  0  0  0  0  0
    8.2206   14.0636   24.7333 H   0  0  0  0  0  0  0  0  0  0  0  0
    6.6866    9.5528   26.0468 H   0  0  0  0  0  0  0  0  0  0  0  0
   10.9979   10.5667   22.9965 H   0  0  0  0  0  0  0  0  0  0  0  0
   10.2886   11.2912   21.5683 H   0  0  0  0  0  0  0  0  0  0  0  0
    8.0994   10.1896   21.9407 H   0  0  0  0  0  0  0  0  0  0  0  0
    9.4304    9.0374   21.7957 H   0  0  0  0  0  0  0  0  0  0  0  0
   10.6441   13.1338   21.3167 H   0  0  0  0  0  0  0  0  0  0  0  0
   12.1798   13.1024   22.2509 H   0  0  0  0  0  0  0  0  0  0  0  0
  1  2  1  0  0  0  0
  1  3  2  0  0  0  0
  2  4  2  0  0  0  0
  3  5  1  0  0  0  0
  4  6  1  0  0  0  0
  5  6  2  0  0  0  0
  5 11  1  0  0  0  0
  6 13  1  0  0  0  0
  7 10  1  0  0  0  0
  7 11  1  0  0  0  0
  7 12  2  0  0  0  0
  8  9  1  0  0  0  0
  8 11  1  0  0  0  0
  9 13  1  0  0  0  0
 10 14  1  0  0  0  0
  1 15  1  0  0  0  0
  2 16  1  0  0  0  0
  3 17  1  0  0  0  0
  4 18  1  0  0  0  0
  8 19  1  0  0  0  0
  8 20  1  0  0  0  0
  9 21  1  0  0  0  0
  9 22  1  0  0  0  0
 10 23  1  0  0  0  0
 10 24  1  0  0  0  0
M  END
> <Catalog ID>
Z89267042

> <MW>
227.017

> <MW (desalted)>
227.711

> <ClogP>
2.315

> <logS>
-3.63

> <HBD>
0

> <HBA>
1

> <TPSA>
20.31

> <RotBonds>
1

> <ROCS_ShapeQuery>
A71EV2A-x0451_0A_A71EV2A-x0310_0A_A71EV2A-x0416_0A_peptide

> <ROCS_TanimotoCombo>
0.408 

> <ROCS_ShapeTanimoto>
0.281 

> <ROCS_ColorTanimoto>
0.127 

> <ROCS_RefTversky>
0.249 

> <ROCS_RefColorTversky>
0.129 

> <ROCS_RefTverskyCombo>
0.378 

> <ROCS_FitTversky>
1.858 

> <ROCS_FitColorTversky>
0.883 

> <ROCS_FitTverskyCombo>
2.741 

> <ROCS_ColorScore>
-3.919

> <ROCS_Overlap>
1723.615

> <ROCS_Rank>
467                 

$$$$
untitled-dbase-249_0
  -OEChem-11112315393D

 28 28  0     0  0  0  0  0  0999 V2000
    7.1726   11.4673   24.4367 C   0  0  0  0  0  0  0  0  0  0  0  0
    8.6640    9.5678   24.5030 C   0  0  0  0  0  0  0  0  0  0  0  0
    7.4353   10.1503   24.8137 C   0  0  0  0  0  0  0  0  0  0  0  0
    8.1386   12.2017   23.7488 C   0  0  0  0  0  0  0  0  0  0  0  0
    9.6301   10.3022   23.8151 C   0  0  0  0  0  0  0  0  0  0  0  0
    9.3673   11.6192   23.4381 C   0  0  0  0  0  0  0  0  0  0  0  0
   10.9170   13.5410   23.1777 C   0  0  0  0  0  0  0  0  0  0  0  0
    6.4025    9.3650   25.5487 C   0  0  0  0  0  0  0  0  0  0  0  0
    7.8276   13.6104   23.3578 C   0  0  0  0  0  0  0  0  0  0  0  0
   10.9372    9.6509   23.4968 C   0  0  0  0  0  0  0  0  0  0  0  0
   11.9260   14.0612   22.1803 C   0  0  0  0  0  0  0  0  0  0  0  0
   10.3366   12.3558   22.7482 N   0  0  0  0  0  0  0  0  0  0  0  0
   10.6872   14.1686   24.2079 O   0  0  0  0  0  0  0  0  0  0  0  0
   11.0714   15.1263   21.0530 Cl  0  0  0  0  0  0  0  0  0  0  0  0
    6.2146   11.9204   24.6800 H   0  0  0  0  0  0  0  0  0  0  0  0
    8.8674    8.5409   24.7973 H   0  0  0  0  0  0  0  0  0  0  0  0
    5.7542    8.8313   24.8429 H   0  0  0  0  0  0  0  0  0  0  0  0
    6.8641    8.6300   26.2210 H   0  0  0  0  0  0  0  0  0  0  0  0
    5.7759   10.0160   26.1725 H   0  0  0  0  0  0  0  0  0  0  0  0
    8.1323   14.3002   24.1528 H   0  0  0  0  0  0  0  0  0  0  0  0
    8.3485   13.8883   22.4338 H   0  0  0  0  0  0  0  0  0  0  0  0
    6.7546   13.7413   23.1723 H   0  0  0  0  0  0  0  0  0  0  0  0
   10.8848    9.1531   22.5221 H   0  0  0  0  0  0  0  0  0  0  0  0
   11.7496   10.3870   23.4714 H   0  0  0  0  0  0  0  0  0  0  0  0
   11.2032    8.9065   24.2570 H   0  0  0  0  0  0  0  0  0  0  0  0
   12.4106   13.2628   21.6127 H   0  0  0  0  0  0  0  0  0  0  0  0
   12.6930   14.6377   22.7051 H   0  0  0  0  0  0  0  0  0  0  0  0
   10.6434   11.9895   21.8510 H   0  0  0  0  0  0  0  0  0  0  0  0
  1  3  1  0  0  0  0
  1  4  2  0  0  0  0
  2  3  2  0  0  0  0
  2  5  1  0  0  0  0
  3  8  1  0  0  0  0
  4  6  1  0  0  0  0
  4  9  1  0  0  0  0
  5  6  2  0  0  0  0
  5 10  1  0  0  0  0
  6 12  1  0  0  0  0
  7 11  1  0  0  0  0
  7 12  1  0  0  0  0
  7 13  2  0  0  0  0
 11 14  1  0  0  0  0
  1 15  1  0  0  0  0
  2 16  1  0  0  0  0
  8 17  1  0  0  0  0
  8 18  1  0  0  0  0
  8 19  1  0  0  0  0
  9 20  1  0  0  0  0
  9 21  1  0  0  0  0
  9 22  1  0  0  0  0
 10 23  1  0  0  0  0
 10 24  1  0  0  0  0
 10 25  1  0  0  0  0
 11 26  1  0  0  0  0
 11 27  1  0  0  0  0
 12 28  1  0  0  0  0
M  END
> <Catalog ID>
Z56812705

> <MW>
211.076

> <MW (desalted)>
211.688

> <ClogP>
1.971

> <logS>
-3.25

> <HBD>
1

> <HBA>
1

> <TPSA>
29.1

> <RotBonds>
2

> <ROCS_ShapeQuery>
A71EV2A-x0451_0A_A71EV2A-x0310_0A_A71EV2A-x0416_0A_peptide

> <ROCS_TanimotoCombo>
0.408 

> <ROCS_ShapeTanimoto>
0.269 

> <ROCS_ColorTanimoto>
0.140 

> <ROCS_RefTversky>
0.240 

> <ROCS_RefColorTversky>
0.141 

> <ROCS_RefTverskyCombo>
0.381 

> <ROCS_FitTversky>
1.794 

> <ROCS_FitColorTversky>
0.959 

> <ROCS_FitTverskyCombo>
2.754 

> <ROCS_ColorScore>
-4.256

> <ROCS_Overlap>
1662.854

> <ROCS_Rank>
468                 

$$$$
untitled-dbase-212_165
  -OEChem-11112315393D

 26 26  0     0  0  0  0  0  0999 V2000
    6.1603   13.4096   25.7952 C   0  0  0  0  0  0  0  0  0  0  0  0
    6.4577   10.9887   25.6193 C   0  0  0  0  0  0  0  0  0  0  0  0
    7.1812    9.8854   25.1667 C   0  0  0  0  0  0  0  0  0  0  0  0
    8.0692   12.4668   24.5921 C   0  0  0  0  0  0  0  0  0  0  0  0
    6.9016   12.2794   25.3319 C   0  0  0  0  0  0  0  0  0  0  0  0
    8.7928   11.3635   24.1396 C   0  0  0  0  0  0  0  0  0  0  0  0
    8.3488   10.0727   24.4269 C   0  0  0  0  0  0  0  0  0  0  0  0
   10.5105   13.9824   23.0992 C   0  0  0  0  0  0  0  0  0  0  0  0
    9.4173   12.6563   21.2259 C   0  0  0  0  0  0  0  0  0  0  0  0
   10.0497   11.5676   23.3442 C   0  0  0  0  0  0  0  0  0  0  0  0
   11.0837   14.9660   22.0986 C   0  0  0  0  0  0  0  0  0  0  0  0
    5.5581   14.3275   26.1716 N   0  0  0  0  0  0  0  0  0  0  0  0
   10.0042   12.7938   22.5571 N   0  0  0  0  0  0  0  0  0  0  0  0
   10.4989   14.2290   24.3077 O   0  0  0  0  0  0  0  0  0  0  0  0
    9.0374    9.0062   23.9968 F   0  0  0  0  0  0  0  0  0  0  0  0
   12.8060   14.6448   21.8147 Cl  0  0  0  0  0  0  0  0  0  0  0  0
    5.5492   10.8262   26.1944 H   0  0  0  0  0  0  0  0  0  0  0  0
    6.8359    8.8799   25.3887 H   0  0  0  0  0  0  0  0  0  0  0  0
    8.4207   13.4714   24.3653 H   0  0  0  0  0  0  0  0  0  0  0  0
   10.2051   12.4010   20.5019 H   0  0  0  0  0  0  0  0  0  0  0  0
    8.6599   11.8588   21.2399 H   0  0  0  0  0  0  0  0  0  0  0  0
    8.9448   13.6057   20.9338 H   0  0  0  0  0  0  0  0  0  0  0  0
   10.9207   11.6239   24.0062 H   0  0  0  0  0  0  0  0  0  0  0  0
   10.2184   10.7335   22.6550 H   0  0  0  0  0  0  0  0  0  0  0  0
   10.5699   14.8700   21.1389 H   0  0  0  0  0  0  0  0  0  0  0  0
   10.9983   15.9858   22.4822 H   0  0  0  0  0  0  0  0  0  0  0  0
  1  5  1  0  0  0  0
  1 12  3  0  0  0  0
  2  3  2  0  0  0  0
  2  5  1  0  0  0  0
  3  7  1  0  0  0  0
  4  5  2  0  0  0  0
  4  6  1  0  0  0  0
  6  7  2  0  0  0  0
  6 10  1  0  0  0  0
  7 15  1  0  0  0  0
  8 11  1  0  0  0  0
  8 13  1  0  0  0  0
  8 14  2  0  0  0  0
  9 13  1  0  0  0  0
 10 13  1  0  0  0  0
 11 16  1  0  0  0  0
  2 17  1  0  0  0  0
  3 18  1  0  0  0  0
  4 19  1  0  0  0  0
  9 20  1  0  0  0  0
  9 21  1  0  0  0  0
  9 22  1  0  0  0  0
 10 23  1  0  0  0  0
 10 24  1  0  0  0  0
 11 25  1  0  0  0  0
 11 26  1  0  0  0  0
M  END
> <Catalog ID>
Z561675578

> <MW>
240.047

> <MW (desalted)>
240.661

> <ClogP>
1.155

> <logS>
-2.755

> <HBD>
0

> <HBA>
2

> <TPSA>
44.1

> <RotBonds>
3

> <ROCS_ShapeQuery>
A71EV2A-x0451_0A_A71EV2A-x0310_0A_A71EV2A-x0416_0A_peptide

> <ROCS_TanimotoCombo>
0.408 

> <ROCS_ShapeTanimoto>
0.292 

> <ROCS_ColorTanimoto>
0.117 

> <ROCS_RefTversky>
0.259 

> <ROCS_RefColorTversky>
0.120 

> <ROCS_RefTverskyCombo>
0.379 

> <ROCS_FitTversky>
1.773 

> <ROCS_FitColorTversky>
0.817 

> <ROCS_FitTverskyCombo>
2.589 

> <ROCS_ColorScore>
-3.623

> <ROCS_Overlap>
1794.078

> <ROCS_Rank>
469                 

$$$$
untitled-dbase-949_12
  -OEChem-11112315393D

 20 20  0     0  0  0  0  0  0999 V2000
    6.8792   12.6063   25.4679 C   0  0  0  0  0  0  0  0  0  0  0  0
    6.4346   11.3207   25.7763 C   0  0  0  0  0  0  0  0  0  0  0  0
    8.0115   12.7805   24.6720 C   0  0  0  0  0  0  0  0  0  0  0  0
    7.1221   10.2092   25.2888 C   0  0  0  0  0  0  0  0  0  0  0  0
    8.6990   11.6690   24.1846 C   0  0  0  0  0  0  0  0  0  0  0  0
    8.2544   10.3834   24.4930 C   0  0  0  0  0  0  0  0  0  0  0  0
   10.7099   12.9333   23.4631 C   0  0  0  0  0  0  0  0  0  0  0  0
   11.8256   12.8141   22.4509 C   0  0  0  0  0  0  0  0  0  0  0  0
    9.8316   11.8595   23.3894 N   0  0  0  0  0  0  0  0  0  0  0  0
   10.6535   13.9082   24.2078 O   0  0  0  0  0  0  0  0  0  0  0  0
    8.9118    9.2839   24.0271 O   0  0  0  0  0  0  0  0  0  0  0  0
   12.3253   14.4526   22.0024 Cl  0  0  0  0  0  0  0  0  0  0  0  0
    6.3434   13.4715   25.8472 H   0  0  0  0  0  0  0  0  0  0  0  0
    5.5526   11.1851   26.3953 H   0  0  0  0  0  0  0  0  0  0  0  0
    8.3483   13.7874   24.4385 H   0  0  0  0  0  0  0  0  0  0  0  0
    6.7700    9.2105   25.5328 H   0  0  0  0  0  0  0  0  0  0  0  0
   11.5226   12.2780   21.5480 H   0  0  0  0  0  0  0  0  0  0  0  0
   12.6738   12.2929   22.9036 H   0  0  0  0  0  0  0  0  0  0  0  0
   10.0317   11.1461   22.6920 H   0  0  0  0  0  0  0  0  0  0  0  0
    9.6744    9.5524   23.4915 H   0  0  0  0  0  0  0  0  0  0  0  0
  1  2  1  0  0  0  0
  1  3  2  0  0  0  0
  2  4  2  0  0  0  0
  3  5  1  0  0  0  0
  4  6  1  0  0  0  0
  5  6  2  0  0  0  0
  5  9  1  0  0  0  0
  6 11  1  0  0  0  0
  7  8  1  0  0  0  0
  7  9  1  0  0  0  0
  7 10  2  0  0  0  0
  8 12  1  0  0  0  0
  1 13  1  0  0  0  0
  2 14  1  0  0  0  0
  3 15  1  0  0  0  0
  4 16  1  0  0  0  0
  8 17  1  0  0  0  0
  8 18  1  0  0  0  0
  9 19  1  0  0  0  0
 11 20  1  0  0  0  0
M  END
> <Catalog ID>
Z57764509

> <MW>
185.024

> <MW (desalted)>
185.608

> <ClogP>
1.337

> <logS>
-1.786

> <HBD>
2

> <HBA>
2

> <TPSA>
49.33

> <RotBonds>
2

> <ROCS_ShapeQuery>
A71EV2A-x0451_0A_A71EV2A-x0310_0A_A71EV2A-x0416_0A_peptide

> <ROCS_TanimotoCombo>
0.408 

> <ROCS_ShapeTanimoto>
0.255 

> <ROCS_ColorTanimoto>
0.153 

> <ROCS_RefTversky>
0.228 

> <ROCS_RefColorTversky>
0.161 

> <ROCS_RefTverskyCombo>
0.389 

> <ROCS_FitTversky>
1.858 

> <ROCS_FitColorTversky>
0.770 

> <ROCS_FitTverskyCombo>
2.628 

> <ROCS_ColorScore>
-4.881

> <ROCS_Overlap>
1578.233

> <ROCS_Rank>
470                 

$$$$
untitled-dbase-274_7
  -OEChem-11112315393D

 21 21  0     0  0  0  0  0  0999 V2000
    8.4951   12.2898   24.2341 C   0  0  0  0  0  0  0  0  0  0  0  0
    7.5156   11.5747   24.9231 C   0  0  0  0  0  0  0  0  0  0  0  0
    8.3570    9.5150   23.9814 C   0  0  0  0  0  0  0  0  0  0  0  0
    9.4055   11.6176   23.4186 C   0  0  0  0  0  0  0  0  0  0  0  0
    7.4466   10.1873   24.7968 C   0  0  0  0  0  0  0  0  0  0  0  0
    9.3365   10.2301   23.2923 C   0  0  0  0  0  0  0  0  0  0  0  0
   10.9327   13.5595   23.1755 C   0  0  0  0  0  0  0  0  0  0  0  0
   11.9502   14.0900   22.1922 C   0  0  0  0  0  0  0  0  0  0  0  0
   10.3746   12.3643   22.7420 N   0  0  0  0  0  0  0  0  0  0  0  0
    6.4492    9.4599   25.4985 N   0  3  0  0  0  0  0  0  0  0  0  0
    5.6401   10.0845   26.2265 O   0  5  0  0  0  0  0  0  0  0  0  0
   10.6780   14.1876   24.1996 O   0  0  0  0  0  0  0  0  0  0  0  0
    6.4042    8.2123   25.3718 O   0  0  0  0  0  0  0  0  0  0  0  0
   10.4439    9.3585   22.2928 Cl  0  0  0  0  0  0  0  0  0  0  0  0
   11.4632   13.5623   20.5736 Cl  0  0  0  0  0  0  0  0  0  0  0  0
    8.5382   13.3709   24.3411 H   0  0  0  0  0  0  0  0  0  0  0  0
    6.8123   12.1112   25.5553 H   0  0  0  0  0  0  0  0  0  0  0  0
    8.3005    8.4325   23.8849 H   0  0  0  0  0  0  0  0  0  0  0  0
   12.9615   13.7270   22.3923 H   0  0  0  0  0  0  0  0  0  0  0  0
   11.9537   15.1831   22.2260 H   0  0  0  0  0  0  0  0  0  0  0  0
   10.7006   11.9986   21.8507 H   0  0  0  0  0  0  0  0  0  0  0  0
  1  2  2  0  0  0  0
  1  4  1  0  0  0  0
  2  5  1  0  0  0  0
  3  5  2  0  0  0  0
  3  6  1  0  0  0  0
  4  6  2  0  0  0  0
  4  9  1  0  0  0  0
  5 10  1  0  0  0  0
  6 14  1  0  0  0  0
  7  8  1  0  0  0  0
  7  9  1  0  0  0  0
  7 12  2  0  0  0  0
  8 15  1  0  0  0  0
 10 11  1  0  0  0  0
 10 13  2  0  0  0  0
  1 16  1  0  0  0  0
  2 17  1  0  0  0  0
  3 18  1  0  0  0  0
  8 19  1  0  0  0  0
  8 20  1  0  0  0  0
  9 21  1  0  0  0  0
M  CHG  2  10   1  11  -1
M  END
> <Catalog ID>
Z56823024

> <MW>
247.976

> <MW (desalted)>
249.051

> <ClogP>
2.022

> <logS>
-3.66

> <HBD>
1

> <HBA>
3

> <TPSA>
72.24

> <RotBonds>
3

> <ROCS_ShapeQuery>
A71EV2A-x0451_0A_A71EV2A-x0310_0A_A71EV2A-x0416_0A_peptide

> <ROCS_TanimotoCombo>
0.408 

> <ROCS_ShapeTanimoto>
0.276 

> <ROCS_ColorTanimoto>
0.132 

> <ROCS_RefTversky>
0.247 

> <ROCS_RefColorTversky>
0.141 

> <ROCS_RefTverskyCombo>
0.388 

> <ROCS_FitTversky>
1.753 

> <ROCS_FitColorTversky>
0.674 

> <ROCS_FitTverskyCombo>
2.427 

> <ROCS_ColorScore>
-4.279

> <ROCS_Overlap>
1711.002

> <ROCS_Rank>
471                 

$$$$
untitled-dbase-223_22
  -OEChem-11112315393D

 21 21  0     0  0  0  0  0  0999 V2000
    5.7659   12.7603   26.4975 C   0  0  0  0  0  0  0  0  0  0  0  0
    6.5556   12.2009   25.7868 C   0  0  0  0  0  0  0  0  0  0  0  0
    8.3584    9.4977   23.9704 C   0  0  0  0  0  0  0  0  0  0  0  0
    7.4420   10.1485   24.7964 C   0  0  0  0  0  0  0  0  0  0  0  0
    9.3280   10.2333   23.2889 C   0  0  0  0  0  0  0  0  0  0  0  0
    8.4647   12.2704   24.2593 C   0  0  0  0  0  0  0  0  0  0  0  0
    7.4951   11.5349   24.9409 C   0  0  0  0  0  0  0  0  0  0  0  0
    9.3812   11.6196   23.4333 C   0  0  0  0  0  0  0  0  0  0  0  0
   10.9235   13.5482   23.1791 C   0  0  0  0  0  0  0  0  0  0  0  0
   11.9418   14.0673   22.1907 C   0  0  0  0  0  0  0  0  0  0  0  0
   10.3519   12.3548   22.7525 N   0  0  0  0  0  0  0  0  0  0  0  0
   10.6777   14.1812   24.2023 O   0  0  0  0  0  0  0  0  0  0  0  0
   11.4447   13.5390   20.5754 Cl  0  0  0  0  0  0  0  0  0  0  0  0
    5.0651   13.2566   27.1274 H   0  0  0  0  0  0  0  0  0  0  0  0
    8.3175    8.4181   23.8587 H   0  0  0  0  0  0  0  0  0  0  0  0
    6.6918    9.5612   25.3203 H   0  0  0  0  0  0  0  0  0  0  0  0
   10.0371    9.7154   22.6479 H   0  0  0  0  0  0  0  0  0  0  0  0
    8.5088   13.3523   24.3692 H   0  0  0  0  0  0  0  0  0  0  0  0
   12.9508   13.6965   22.3882 H   0  0  0  0  0  0  0  0  0  0  0  0
   11.9546   15.1605   22.2213 H   0  0  0  0  0  0  0  0  0  0  0  0
   10.6715   11.9827   21.8601 H   0  0  0  0  0  0  0  0  0  0  0  0
  1  2  3  0  0  0  0
  2  7  1  0  0  0  0
  3  4  1  0  0  0  0
  3  5  2  0  0  0  0
  4  7  2  0  0  0  0
  5  8  1  0  0  0  0
  6  7  1  0  0  0  0
  6  8  2  0  0  0  0
  8 11  1  0  0  0  0
  9 10  1  0  0  0  0
  9 11  1  0  0  0  0
  9 12  2  0  0  0  0
 10 13  1  0  0  0  0
  1 14  1  0  0  0  0
  3 15  1  0  0  0  0
  4 16  1  0  0  0  0
  5 17  1  0  0  0  0
  6 18  1  0  0  0  0
 10 19  1  0  0  0  0
 10 20  1  0  0  0  0
 11 21  1  0  0  0  0
M  END
> <Catalog ID>
Z316107652

> <MW>
193.029

> <MW (desalted)>
193.63

> <ClogP>
2.044

> <logS>
-3

> <HBD>
1

> <HBA>
1

> <TPSA>
29.1

> <RotBonds>
2

> <ROCS_ShapeQuery>
A71EV2A-x0451_0A_A71EV2A-x0310_0A_A71EV2A-x0416_0A_peptide

> <ROCS_TanimotoCombo>
0.408 

> <ROCS_ShapeTanimoto>
0.273 

> <ROCS_ColorTanimoto>
0.135 

> <ROCS_RefTversky>
0.242 

> <ROCS_RefColorTversky>
0.140 

> <ROCS_RefTverskyCombo>
0.382 

> <ROCS_FitTversky>
1.885 

> <ROCS_FitColorTversky>
0.790 

> <ROCS_FitTverskyCombo>
2.676 

> <ROCS_ColorScore>
-4.257

> <ROCS_Overlap>
1674.356

> <ROCS_Rank>
472                 

$$$$
untitled-dbase-623_90
  -OEChem-11112315393D

 36 38  0     1  0  0  0  0  0999 V2000
    6.1381   11.5084   26.1331 C   0  0  0  0  0  0  0  0  0  0  0  0
    6.8931   12.6721   26.2260 C   0  0  0  0  0  0  0  0  0  0  0  0
    6.5479   10.4821   25.2846 C   0  0  0  0  0  0  0  0  0  0  0  0
    8.0516   12.8149   25.4616 C   0  0  0  0  0  0  0  0  0  0  0  0
    7.7189   10.6081   24.5191 C   0  0  0  0  0  0  0  0  0  0  0  0
    8.4689   11.8002   24.5814 C   0  0  0  0  0  0  0  0  0  0  0  0
   10.8980   14.2103   23.4866 C   0  0  0  0  0  0  0  0  0  0  0  0
    8.1119    9.4695   23.6112 C   0  0  0  0  0  0  0  0  0  0  0  0
    9.5747    9.5282   23.1831 C   0  0  0  0  0  0  0  0  0  0  0  0
    9.9108   10.9207   22.6709 C   0  0  0  0  0  0  0  0  0  0  0  0
    8.3076   15.0815   22.1992 C   0  0  0  0  0  0  0  0  0  0  0  0
    9.1162   14.5223   21.0668 C   0  0  0  0  0  0  0  0  0  0  0  0
    9.7491   11.9653   23.7824 C   0  0  1  0  0  0  0  0  0  0  0  0
    8.8181   13.6683   22.2685 C   0  0  0  0  0  0  0  0  0  0  0  0
   12.2370   13.5976   23.8453 C   0  0  0  0  0  0  0  0  0  0  0  0
    9.8717   13.2875   23.2092 N   0  0  0  0  0  0  0  0  0  0  0  0
   10.7415   15.4332   23.4466 O   0  0  0  0  0  0  0  0  0  0  0  0
   12.8598   12.6148   22.5050 Cl  0  0  0  0  0  0  0  0  0  0  0  0
    5.2330   11.3981   26.7221 H   0  0  0  0  0  0  0  0  0  0  0  0
    6.5824   13.4709   26.8936 H   0  0  0  0  0  0  0  0  0  0  0  0
    5.9501    9.5757   25.2226 H   0  0  0  0  0  0  0  0  0  0  0  0
    8.6345   13.7299   25.5551 H   0  0  0  0  0  0  0  0  0  0  0  0
    7.9302    8.5321   24.1474 H   0  0  0  0  0  0  0  0  0  0  0  0
    7.4825    9.4713   22.7161 H   0  0  0  0  0  0  0  0  0  0  0  0
   10.2154    9.2726   24.0326 H   0  0  0  0  0  0  0  0  0  0  0  0
    9.7655    8.7850   22.4012 H   0  0  0  0  0  0  0  0  0  0  0  0
   10.9486   10.9309   22.3134 H   0  0  0  0  0  0  0  0  0  0  0  0
    9.2844   11.1736   21.8078 H   0  0  0  0  0  0  0  0  0  0  0  0
    8.7732   15.8304   22.8281 H   0  0  0  0  0  0  0  0  0  0  0  0
    7.2464   15.2269   22.0384 H   0  0  0  0  0  0  0  0  0  0  0  0
    8.5996   14.2911   20.1433 H   0  0  0  0  0  0  0  0  0  0  0  0
   10.1244   14.8961   20.9359 H   0  0  0  0  0  0  0  0  0  0  0  0
   10.6139   11.8534   24.4612 H   0  0  0  0  0  0  0  0  0  0  0  0
    8.0856   12.8795   22.1349 H   0  0  0  0  0  0  0  0  0  0  0  0
   12.9701   14.3834   24.0437 H   0  0  0  0  0  0  0  0  0  0  0  0
   12.1303   12.9410   24.7125 H   0  0  0  0  0  0  0  0  0  0  0  0
  1  2  1  0  0  0  0
  1  3  2  0  0  0  0
  2  4  2  0  0  0  0
  3  5  1  0  0  0  0
  4  6  1  0  0  0  0
  5  6  2  0  0  0  0
  5  8  1  0  0  0  0
  6 13  1  0  0  0  0
  7 15  1  0  0  0  0
  7 16  1  0  0  0  0
  7 17  2  0  0  0  0
  8  9  1  0  0  0  0
  9 10  1  0  0  0  0
 10 13  1  0  0  0  0
 11 12  1  0  0  0  0
 11 14  1  0  0  0  0
 12 14  1  0  0  0  0
 13 16  1  0  0  0  0
 14 16  1  0  0  0  0
 15 18  1  0  0  0  0
  1 19  1  0  0  0  0
  2 20  1  0  0  0  0
  3 21  1  0  0  0  0
  4 22  1  0  0  0  0
  8 23  1  0  0  0  0
  8 24  1  0  0  0  0
  9 25  1  0  0  0  0
  9 26  1  0  0  0  0
 10 27  1  0  0  0  0
 10 28  1  0  0  0  0
 11 29  1  0  0  0  0
 11 30  1  0  0  0  0
 12 31  1  0  0  0  0
 12 32  1  0  0  0  0
 13 33  1  0  0  0  0
 14 34  1  0  0  0  0
 15 35  1  0  0  0  0
 15 36  1  0  0  0  0
M  END
> <Catalog ID>
Z381549104

> <MW>
263.108

> <MW (desalted)>
263.763

> <ClogP>
3.136

> <logS>
-3.57

> <HBD>
0

> <HBA>
1

> <TPSA>
20.31

> <RotBonds>
3

> <ROCS_ShapeQuery>
A71EV2A-x0451_0A_A71EV2A-x0310_0A_A71EV2A-x0416_0A_peptide

> <ROCS_TanimotoCombo>
0.408 

> <ROCS_ShapeTanimoto>
0.299 

> <ROCS_ColorTanimoto>
0.109 

> <ROCS_RefTversky>
0.267 

> <ROCS_RefColorTversky>
0.113 

> <ROCS_RefTverskyCombo>
0.380 

> <ROCS_FitTversky>
1.669 

> <ROCS_FitColorTversky>
0.768 

> <ROCS_FitTverskyCombo>
2.437 

> <ROCS_ColorScore>
-3.411

> <ROCS_Overlap>
1852.162

> <ROCS_Rank>
473                 

$$$$
untitled-dbase-490_34
  -OEChem-11112315393D

 25 25  0     0  0  0  0  0  0999 V2000
    7.4080   10.1879   24.8277 C   0  0  0  0  0  0  0  0  0  0  0  0
    7.4825   11.5753   24.9510 C   0  0  0  0  0  0  0  0  0  0  0  0
    8.3152    9.5104   24.0129 C   0  0  0  0  0  0  0  0  0  0  0  0
    8.4641   12.2852   24.2595 C   0  0  0  0  0  0  0  0  0  0  0  0
    9.2967   10.2204   23.3214 C   0  0  0  0  0  0  0  0  0  0  0  0
    9.3712   11.6078   23.4447 C   0  0  0  0  0  0  0  0  0  0  0  0
   10.9206   13.5295   23.1816 C   0  0  0  0  0  0  0  0  0  0  0  0
   10.5510    8.0736   22.9979 C   0  0  0  0  0  0  0  0  0  0  0  0
   10.2550    9.4684   22.4558 C   0  0  0  0  0  0  0  0  0  0  0  0
   11.9422   14.0393   22.1918 C   0  0  0  0  0  0  0  0  0  0  0  0
   10.3470   12.3367   22.7601 N   0  0  0  0  0  0  0  0  0  0  0  0
   10.6754   14.1694   24.2007 O   0  0  0  0  0  0  0  0  0  0  0  0
   11.4120   15.6373   21.6431 Cl  0  0  0  0  0  0  0  0  0  0  0  0
    6.6436    9.6350   25.3655 H   0  0  0  0  0  0  0  0  0  0  0  0
    6.7756   12.1029   25.5849 H   0  0  0  0  0  0  0  0  0  0  0  0
    8.2484    8.4294   23.9234 H   0  0  0  0  0  0  0  0  0  0  0  0
    8.5118   13.3661   24.3642 H   0  0  0  0  0  0  0  0  0  0  0  0
   10.9490    8.1236   24.0171 H   0  0  0  0  0  0  0  0  0  0  0  0
   11.2893    7.5646   22.3703 H   0  0  0  0  0  0  0  0  0  0  0  0
    9.6443    7.4596   23.0209 H   0  0  0  0  0  0  0  0  0  0  0  0
    9.8577    9.3824   21.4328 H   0  0  0  0  0  0  0  0  0  0  0  0
   11.1989   10.0266   22.3580 H   0  0  0  0  0  0  0  0  0  0  0  0
   12.0519   13.3862   21.3223 H   0  0  0  0  0  0  0  0  0  0  0  0
   12.9127   14.1350   22.6868 H   0  0  0  0  0  0  0  0  0  0  0  0
   10.6668   11.9591   21.8711 H   0  0  0  0  0  0  0  0  0  0  0  0
  1  2  1  0  0  0  0
  1  3  2  0  0  0  0
  2  4  2  0  0  0  0
  3  5  1  0  0  0  0
  4  6  1  0  0  0  0
  5  6  2  0  0  0  0
  5  9  1  0  0  0  0
  6 11  1  0  0  0  0
  7 10  1  0  0  0  0
  7 11  1  0  0  0  0
  7 12  2  0  0  0  0
  8  9  1  0  0  0  0
 10 13  1  0  0  0  0
  1 14  1  0  0  0  0
  2 15  1  0  0  0  0
  3 16  1  0  0  0  0
  4 17  1  0  0  0  0
  8 18  1  0  0  0  0
  8 19  1  0  0  0  0
  8 20  1  0  0  0  0
  9 21  1  0  0  0  0
  9 22  1  0  0  0  0
 10 23  1  0  0  0  0
 10 24  1  0  0  0  0
 11 25  1  0  0  0  0
M  END
> <Catalog ID>
Z55993074

> <MW>
197.061

> <MW (desalted)>
197.661

> <ClogP>
1.932

> <logS>
-2.98

> <HBD>
1

> <HBA>
1

> <TPSA>
29.1

> <RotBonds>
3

> <ROCS_ShapeQuery>
A71EV2A-x0451_0A_A71EV2A-x0310_0A_A71EV2A-x0416_0A_peptide

> <ROCS_TanimotoCombo>
0.408 

> <ROCS_ShapeTanimoto>
0.273 

> <ROCS_ColorTanimoto>
0.136 

> <ROCS_RefTversky>
0.241 

> <ROCS_RefColorTversky>
0.141 

> <ROCS_RefTverskyCombo>
0.382 

> <ROCS_FitTversky>
1.894 

> <ROCS_FitColorTversky>
0.791 

> <ROCS_FitTverskyCombo>
2.685 

> <ROCS_ColorScore>
-4.262

> <ROCS_Overlap>
1671.639

> <ROCS_Rank>
474                 

$$$$
untitled-dbase-890_18
  -OEChem-11112315393D

 24 24  0     0  0  0  0  0  0999 V2000
    7.4507   11.5496   24.9384 C   0  0  0  0  0  0  0  0  0  0  0  0
    7.3980   10.1608   24.8195 C   0  0  0  0  0  0  0  0  0  0  0  0
    8.4313   12.2712   24.2576 C   0  0  0  0  0  0  0  0  0  0  0  0
    8.3259    9.4936   24.0198 C   0  0  0  0  0  0  0  0  0  0  0  0
    9.3592   11.6040   23.4579 C   0  0  0  0  0  0  0  0  0  0  0  0
    9.3065   10.2152   23.3390 C   0  0  0  0  0  0  0  0  0  0  0  0
   11.7802   15.1939   21.5541 C   0  0  0  0  0  0  0  0  0  0  0  0
   11.9285   14.0178   22.1717 C   0  0  0  0  0  0  0  0  0  0  0  0
   10.9218   13.5523   23.1694 C   0  0  0  0  0  0  0  0  0  0  0  0
   10.0727    8.1253   22.5017 C   0  0  0  0  0  0  0  0  0  0  0  0
   10.3356   12.3403   22.7829 N   0  0  0  0  0  0  0  0  0  0  0  0
   10.6846   14.1999   24.1823 O   0  0  0  0  0  0  0  0  0  0  0  0
   10.2038    9.5438   22.5630 O   0  0  0  0  0  0  0  0  0  0  0  0
    6.7278   12.0689   25.5607 H   0  0  0  0  0  0  0  0  0  0  0  0
    6.6341    9.5991   25.3489 H   0  0  0  0  0  0  0  0  0  0  0  0
    8.4622   13.3532   24.3581 H   0  0  0  0  0  0  0  0  0  0  0  0
    8.2789    8.4115   23.9315 H   0  0  0  0  0  0  0  0  0  0  0  0
   12.4907   15.5649   20.8239 H   0  0  0  0  0  0  0  0  0  0  0  0
   10.9220   15.8192   21.7773 H   0  0  0  0  0  0  0  0  0  0  0  0
   12.7858   13.3920   21.9490 H   0  0  0  0  0  0  0  0  0  0  0  0
   10.8482    7.7147   21.8505 H   0  0  0  0  0  0  0  0  0  0  0  0
    9.0834    7.8662   22.1161 H   0  0  0  0  0  0  0  0  0  0  0  0
   10.1888    7.7138   23.5071 H   0  0  0  0  0  0  0  0  0  0  0  0
   10.6639   11.9445   21.8945 H   0  0  0  0  0  0  0  0  0  0  0  0
  1  2  1  0  0  0  0
  1  3  2  0  0  0  0
  2  4  2  0  0  0  0
  3  5  1  0  0  0  0
  4  6  1  0  0  0  0
  5  6  2  0  0  0  0
  5 11  1  0  0  0  0
  6 13  1  0  0  0  0
  7  8  2  0  0  0  0
  8  9  1  0  0  0  0
  9 11  1  0  0  0  0
  9 12  2  0  0  0  0
 10 13  1  0  0  0  0
  1 14  1  0  0  0  0
  2 15  1  0  0  0  0
  3 16  1  0  0  0  0
  4 17  1  0  0  0  0
  7 18  1  0  0  0  0
  7 19  1  0  0  0  0
  8 20  1  0  0  0  0
 10 21  1  0  0  0  0
 10 22  1  0  0  0  0
 10 23  1  0  0  0  0
 11 24  1  0  0  0  0
M  END
> <Catalog ID>
Z440633834

> <MW>
177.079

> <MW (desalted)>
177.2

> <ClogP>
0.901

> <logS>
-2.26

> <HBD>
1

> <HBA>
2

> <TPSA>
38.33

> <RotBonds>
3

> <ROCS_ShapeQuery>
A71EV2A-x0451_0A_A71EV2A-x0310_0A_A71EV2A-x0416_0A_peptide

> <ROCS_TanimotoCombo>
0.408 

> <ROCS_ShapeTanimoto>
0.277 

> <ROCS_ColorTanimoto>
0.130 

> <ROCS_RefTversky>
0.245 

> <ROCS_RefColorTversky>
0.139 

> <ROCS_RefTverskyCombo>
0.385 

> <ROCS_FitTversky>
1.890 

> <ROCS_FitColorTversky>
0.668 

> <ROCS_FitTverskyCombo>
2.558 

> <ROCS_ColorScore>
-4.234

> <ROCS_Overlap>
1699.177

> <ROCS_Rank>
475                 

$$$$
untitled-dbase-579_20
  -OEChem-11112315393D

 25 25  0     0  0  0  0  0  0999 V2000
    9.5768   10.3416   23.1762 C   0  0  0  0  0  0  0  0  0  0  0  0
    8.3748    9.7338   23.5386 C   0  0  0  0  0  0  0  0  0  0  0  0
    8.9657   12.3059   24.4431 C   0  0  0  0  0  0  0  0  0  0  0  0
    9.8723   11.6276   23.6285 C   0  0  0  0  0  0  0  0  0  0  0  0
    7.4682   10.4120   24.3533 C   0  0  0  0  0  0  0  0  0  0  0  0
    7.7636   11.6981   24.8056 C   0  0  0  0  0  0  0  0  0  0  0  0
   10.7270   14.6148   22.5378 C   0  0  0  0  0  0  0  0  0  0  0  0
    6.1831    9.7602   24.7383 C   0  0  0  0  0  0  0  0  0  0  0  0
   11.1572   12.2776   23.2407 C   0  0  0  0  0  0  0  0  0  0  0  0
   10.5946   15.4922   21.3192 C   0  0  0  0  0  0  0  0  0  0  0  0
   10.9770   13.2868   22.2281 N   0  0  0  0  0  0  0  0  0  0  0  0
   10.6334   15.0684   23.6770 O   0  0  0  0  0  0  0  0  0  0  0  0
    6.8981   12.3580   25.5879 F   0  0  0  0  0  0  0  0  0  0  0  0
   12.2038   16.1111   20.9165 Cl  0  0  0  0  0  0  0  0  0  0  0  0
   10.2773    9.8051   22.5419 H   0  0  0  0  0  0  0  0  0  0  0  0
    8.1534    8.7311   23.1825 H   0  0  0  0  0  0  0  0  0  0  0  0
    9.1865   13.3085   24.7996 H   0  0  0  0  0  0  0  0  0  0  0  0
    6.3057    9.1955   25.6706 H   0  0  0  0  0  0  0  0  0  0  0  0
    5.3876   10.5025   24.8831 H   0  0  0  0  0  0  0  0  0  0  0  0
    5.8363    9.0712   23.9571 H   0  0  0  0  0  0  0  0  0  0  0  0
   11.6342   12.7596   24.1056 H   0  0  0  0  0  0  0  0  0  0  0  0
   11.8770   11.5457   22.8490 H   0  0  0  0  0  0  0  0  0  0  0  0
   10.2003   14.9530   20.4544 H   0  0  0  0  0  0  0  0  0  0  0  0
    9.9342   16.3333   21.5472 H   0  0  0  0  0  0  0  0  0  0  0  0
   11.0355   13.0148   21.2500 H   0  0  0  0  0  0  0  0  0  0  0  0
  1  2  2  0  0  0  0
  1  4  1  0  0  0  0
  2  5  1  0  0  0  0
  3  4  2  0  0  0  0
  3  6  1  0  0  0  0
  4  9  1  0  0  0  0
  5  6  2  0  0  0  0
  5  8  1  0  0  0  0
  6 13  1  0  0  0  0
  7 10  1  0  0  0  0
  7 11  1  0  0  0  0
  7 12  2  0  0  0  0
  9 11  1  0  0  0  0
 10 14  1  0  0  0  0
  1 15  1  0  0  0  0
  2 16  1  0  0  0  0
  3 17  1  0  0  0  0
  8 18  1  0  0  0  0
  8 19  1  0  0  0  0
  8 20  1  0  0  0  0
  9 21  1  0  0  0  0
  9 22  1  0  0  0  0
 10 23  1  0  0  0  0
 10 24  1  0  0  0  0
 11 25  1  0  0  0  0
M  END
> <Catalog ID>
Z199423744

> <MW>
215.051

> <MW (desalted)>
215.652

> <ClogP>
2.205

> <logS>
-2.59

> <HBD>
1

> <HBA>
1

> <TPSA>
29.1

> <RotBonds>
3

> <ROCS_ShapeQuery>
A71EV2A-x0451_0A_A71EV2A-x0310_0A_A71EV2A-x0416_0A_peptide

> <ROCS_TanimotoCombo>
0.408 

> <ROCS_ShapeTanimoto>
0.277 

> <ROCS_ColorTanimoto>
0.130 

> <ROCS_RefTversky>
0.246 

> <ROCS_RefColorTversky>
0.132 

> <ROCS_RefTverskyCombo>
0.378 

> <ROCS_FitTversky>
1.845 

> <ROCS_FitColorTversky>
0.903 

> <ROCS_FitTverskyCombo>
2.748 

> <ROCS_ColorScore>
-4.005

> <ROCS_Overlap>
1704.300

> <ROCS_Rank>
476                 

$$$$
untitled-dbase-856_13
  -OEChem-11112315393D

 21 21  0     0  0  0  0  0  0999 V2000
    8.3574    8.0660   23.8162 C   0  0  0  0  0  0  0  0  0  0  0  0
    8.4343   12.2643   24.2550 C   0  0  0  0  0  0  0  0  0  0  0  0
    7.4630   11.5233   24.9281 C   0  0  0  0  0  0  0  0  0  0  0  0
    9.3307   10.2300   23.3090 C   0  0  0  0  0  0  0  0  0  0  0  0
    8.3594    9.4889   23.9822 C   0  0  0  0  0  0  0  0  0  0  0  0
    9.3681   11.6176   23.4454 C   0  0  0  0  0  0  0  0  0  0  0  0
    7.4256   10.1356   24.7918 C   0  0  0  0  0  0  0  0  0  0  0  0
   11.7759   15.2248   21.5573 C   0  0  0  0  0  0  0  0  0  0  0  0
   11.9285   14.0452   22.1674 C   0  0  0  0  0  0  0  0  0  0  0  0
   10.9255   13.5712   23.1648 C   0  0  0  0  0  0  0  0  0  0  0  0
    8.3556    6.9133   23.6817 N   0  0  0  0  0  0  0  0  0  0  0  0
   10.3400   12.3594   22.7731 N   0  0  0  0  0  0  0  0  0  0  0  0
   10.6895   14.2121   24.1822 O   0  0  0  0  0  0  0  0  0  0  0  0
    6.2007    9.2667   25.6498 Cl  0  0  0  0  0  0  0  0  0  0  0  0
    8.4534   13.3453   24.3684 H   0  0  0  0  0  0  0  0  0  0  0  0
    6.7423   12.0436   25.5540 H   0  0  0  0  0  0  0  0  0  0  0  0
   10.0633    9.7310   22.6769 H   0  0  0  0  0  0  0  0  0  0  0  0
   12.4836   15.6019   20.8276 H   0  0  0  0  0  0  0  0  0  0  0  0
   10.9168   15.8467   21.7866 H   0  0  0  0  0  0  0  0  0  0  0  0
   12.7867   13.4227   21.9385 H   0  0  0  0  0  0  0  0  0  0  0  0
   10.6668   11.9693   21.8809 H   0  0  0  0  0  0  0  0  0  0  0  0
  1  5  1  0  0  0  0
  1 11  3  0  0  0  0
  2  3  2  0  0  0  0
  2  6  1  0  0  0  0
  3  7  1  0  0  0  0
  4  5  1  0  0  0  0
  4  6  2  0  0  0  0
  5  7  2  0  0  0  0
  6 12  1  0  0  0  0
  7 14  1  0  0  0  0
  8  9  2  0  0  0  0
  9 10  1  0  0  0  0
 10 12  1  0  0  0  0
 10 13  2  0  0  0  0
  2 15  1  0  0  0  0
  3 16  1  0  0  0  0
  4 17  1  0  0  0  0
  8 18  1  0  0  0  0
  8 19  1  0  0  0  0
  9 20  1  0  0  0  0
 12 21  1  0  0  0  0
M  END
> <Catalog ID>
Z440634408

> <MW>
206.025

> <MW (desalted)>
206.628

> <ClogP>
2.12

> <logS>
-3.3

> <HBD>
1

> <HBA>
2

> <TPSA>
52.89

> <RotBonds>
2

> <ROCS_ShapeQuery>
A71EV2A-x0451_0A_A71EV2A-x0310_0A_A71EV2A-x0416_0A_peptide

> <ROCS_TanimotoCombo>
0.408 

> <ROCS_ShapeTanimoto>
0.278 

> <ROCS_ColorTanimoto>
0.130 

> <ROCS_RefTversky>
0.247 

> <ROCS_RefColorTversky>
0.139 

> <ROCS_RefTverskyCombo>
0.386 

> <ROCS_FitTversky>
1.830 

> <ROCS_FitColorTversky>
0.668 

> <ROCS_FitTverskyCombo>
2.498 

> <ROCS_ColorScore>
-4.230

> <ROCS_Overlap>
1707.353

> <ROCS_Rank>
477                 

$$$$
untitled-dbase-751_55
  -OEChem-11112315393D

 34 36  0     0  0  0  0  0  0999 V2000
    5.6838   11.6014   25.2782 C   0  0  0  0  0  0  0  0  0  0  0  0
    6.8095   12.3654   24.9494 C   0  0  0  0  0  0  0  0  0  0  0  0
    5.7130   10.2128   25.1807 C   0  0  0  0  0  0  0  0  0  0  0  0
    7.9854   11.7176   24.5140 C   0  0  0  0  0  0  0  0  0  0  0  0
    9.2832   12.1657   24.1082 C   0  0  0  0  0  0  0  0  0  0  0  0
    7.9820   10.3247   24.4285 C   0  0  0  0  0  0  0  0  0  0  0  0
    6.8645    9.5469   24.7533 C   0  0  0  0  0  0  0  0  0  0  0  0
   10.0255   11.0386   23.7887 C   0  0  0  0  0  0  0  0  0  0  0  0
   14.9787   11.6158   24.9754 C   0  0  0  0  0  0  0  0  0  0  0  0
   14.1708   11.4522   23.9258 C   0  0  0  0  0  0  0  0  0  0  0  0
   13.2373   12.5399   23.5675 C   0  0  0  0  0  0  0  0  0  0  0  0
    9.7807   13.5734   24.0460 C   0  0  0  0  0  0  0  0  0  0  0  0
   11.4244   10.8844   23.2874 C   0  0  0  0  0  0  0  0  0  0  0  0
   10.2986   13.9865   22.6634 C   0  0  0  0  0  0  0  0  0  0  0  0
   11.2916   13.0195   22.0007 C   0  0  0  0  0  0  0  0  0  0  0  0
    9.2268    9.9418   23.9899 N   0  0  0  0  0  0  0  0  0  0  0  0
   12.0312   12.1850   22.9613 N   0  0  0  0  0  0  0  0  0  0  0  0
   13.5830   13.6951   23.8206 O   0  0  0  0  0  0  0  0  0  0  0  0
    6.8860    8.2115   24.6605 F   0  0  0  0  0  0  0  0  0  0  0  0
    4.7780   12.0994   25.6132 H   0  0  0  0  0  0  0  0  0  0  0  0
    6.7679   13.4476   25.0328 H   0  0  0  0  0  0  0  0  0  0  0  0
    4.8284    9.6370   25.4399 H   0  0  0  0  0  0  0  0  0  0  0  0
   15.6850   10.8537   25.2873 H   0  0  0  0  0  0  0  0  0  0  0  0
   14.9445   12.5351   25.5505 H   0  0  0  0  0  0  0  0  0  0  0  0
   14.1758   10.5503   23.3278 H   0  0  0  0  0  0  0  0  0  0  0  0
    8.9770   14.2510   24.3590 H   0  0  0  0  0  0  0  0  0  0  0  0
   10.5961   13.7057   24.7664 H   0  0  0  0  0  0  0  0  0  0  0  0
   12.0529   10.3334   24.0103 H   0  0  0  0  0  0  0  0  0  0  0  0
   11.4284   10.2594   22.3732 H   0  0  0  0  0  0  0  0  0  0  0  0
    9.4262   14.0758   21.9923 H   0  0  0  0  0  0  0  0  0  0  0  0
   10.7397   14.9989   22.7079 H   0  0  0  0  0  0  0  0  0  0  0  0
   10.7822   12.3626   21.2805 H   0  0  0  0  0  0  0  0  0  0  0  0
   12.0115   13.6126   21.4186 H   0  0  0  0  0  0  0  0  0  0  0  0
    9.5143    8.9830   23.8417 H   0  0  0  0  0  0  0  0  0  0  0  0
  1  2  1  0  0  0  0
  1  3  2  0  0  0  0
  2  4  2  0  0  0  0
  3  7  1  0  0  0  0
  4  5  1  0  0  0  0
  4  6  1  0  0  0  0
  5  8  2  0  0  0  0
  5 12  1  0  0  0  0
  6  7  2  0  0  0  0
  6 16  1  0  0  0  0
  7 19  1  0  0  0  0
  8 13  1  0  0  0  0
  8 16  1  0  0  0  0
  9 10  2  0  0  0  0
 10 11  1  0  0  0  0
 11 17  1  0  0  0  0
 11 18  2  0  0  0  0
 12 14  1  0  0  0  0
 13 17  1  0  0  0  0
 14 15  1  0  0  0  0
 15 17  1  0  0  0  0
  1 20  1  0  0  0  0
  2 21  1  0  0  0  0
  3 22  1  0  0  0  0
  9 23  1  0  0  0  0
  9 24  1  0  0  0  0
 10 25  1  0  0  0  0
 12 26  1  0  0  0  0
 12 27  1  0  0  0  0
 13 28  1  0  0  0  0
 13 29  1  0  0  0  0
 14 30  1  0  0  0  0
 14 31  1  0  0  0  0
 15 32  1  0  0  0  0
 15 33  1  0  0  0  0
 16 34  1  0  0  0  0
M  END
> <Catalog ID>
Z2867490857

> <MW>
258.291

> <MW (desalted)>
258.291

> <ClogP>
2.096

> <logS>
-3.926

> <HBD>
1

> <HBA>
1

> <TPSA>
36.1

> <RotBonds>
1

> <ROCS_ShapeQuery>
A71EV2A-x0451_0A_A71EV2A-x0310_0A_A71EV2A-x0416_0A_peptide

> <ROCS_TanimotoCombo>
0.408 

> <ROCS_ShapeTanimoto>
0.305 

> <ROCS_ColorTanimoto>
0.103 

> <ROCS_RefTversky>
0.273 

> <ROCS_RefColorTversky>
0.116 

> <ROCS_RefTverskyCombo>
0.389 

> <ROCS_FitTversky>
1.597 

> <ROCS_FitColorTversky>
0.482 

> <ROCS_FitTverskyCombo>
2.079 

> <ROCS_ColorScore>
-3.526

> <ROCS_Overlap>
1897.475

> <ROCS_Rank>
478                 

$$$$
untitled-dbase-488_13
  -OEChem-11112315393D

 36 37  0     1  0  0  0  0  0999 V2000
    9.2053    8.1681   23.7914 C   0  0  0  0  0  0  0  0  0  0  0  0
    8.5989    9.4241   23.9693 C   0  0  0  0  0  0  0  0  0  0  0  0
    9.6254   10.3270   23.8073 C   0  0  0  0  0  0  0  0  0  0  0  0
   12.1205   15.3523   21.7521 C   0  0  0  0  0  0  0  0  0  0  0  0
   11.5267   14.1558   21.7969 C   0  0  0  0  0  0  0  0  0  0  0  0
   10.8156   13.7139   23.0262 C   0  0  0  0  0  0  0  0  0  0  0  0
    7.2007    9.8306   24.2541 C   0  0  0  0  0  0  0  0  0  0  0  0
    7.1478   11.2927   24.7457 C   0  0  0  0  0  0  0  0  0  0  0  0
    8.0386   12.2258   23.8973 C   0  0  0  0  0  0  0  0  0  0  0  0
    9.5253   11.8045   23.9327 C   0  0  2  0  0  0  0  0  0  0  0  0
   13.0707    8.9471   23.0573 C   0  0  0  0  0  0  0  0  0  0  0  0
   12.5720   10.9453   24.5287 C   0  0  0  0  0  0  0  0  0  0  0  0
   12.0888   10.0797   23.3634 C   0  0  0  0  0  0  0  0  0  0  0  0
   10.5179    8.2624   23.5488 N   0  0  0  0  0  0  0  0  0  0  0  0
   10.7472    9.5894   23.5746 N   0  0  0  0  0  0  0  0  0  0  0  0
   10.2665   12.4501   22.8807 N   0  0  0  0  0  0  0  0  0  0  0  0
   10.7401   14.4120   24.0322 O   0  0  0  0  0  0  0  0  0  0  0  0
    8.7524    7.1880   23.8314 H   0  0  0  0  0  0  0  0  0  0  0  0
   12.6383   15.6673   20.8522 H   0  0  0  0  0  0  0  0  0  0  0  0
   12.1103   16.0415   22.5893 H   0  0  0  0  0  0  0  0  0  0  0  0
   11.5601   13.4963   20.9366 H   0  0  0  0  0  0  0  0  0  0  0  0
    6.5753    9.7180   23.3632 H   0  0  0  0  0  0  0  0  0  0  0  0
    6.7930    9.1739   25.0308 H   0  0  0  0  0  0  0  0  0  0  0  0
    6.1125   11.6511   24.7074 H   0  0  0  0  0  0  0  0  0  0  0  0
    7.4597   11.3331   25.7942 H   0  0  0  0  0  0  0  0  0  0  0  0
    7.6762   12.2567   22.8670 H   0  0  0  0  0  0  0  0  0  0  0  0
    7.9493   13.2410   24.2967 H   0  0  0  0  0  0  0  0  0  0  0  0
    9.9666   12.1503   24.8881 H   0  0  0  0  0  0  0  0  0  0  0  0
   13.1690    8.2529   23.8986 H   0  0  0  0  0  0  0  0  0  0  0  0
   14.0659    9.3493   22.8396 H   0  0  0  0  0  0  0  0  0  0  0  0
   12.7421    8.3705   22.1855 H   0  0  0  0  0  0  0  0  0  0  0  0
   12.6332   10.3584   25.4518 H   0  0  0  0  0  0  0  0  0  0  0  0
   11.8804   11.7764   24.7028 H   0  0  0  0  0  0  0  0  0  0  0  0
   13.5629   11.3711   24.3380 H   0  0  0  0  0  0  0  0  0  0  0  0
   12.0501   10.7239   22.4755 H   0  0  0  0  0  0  0  0  0  0  0  0
   10.3543   11.9581   21.9951 H   0  0  0  0  0  0  0  0  0  0  0  0
  1  2  1  0  0  0  0
  1 14  2  0  0  0  0
  2  3  2  0  0  0  0
  2  7  1  0  0  0  0
  3 10  1  0  0  0  0
  3 15  1  0  0  0  0
  4  5  2  0  0  0  0
  5  6  1  0  0  0  0
  6 16  1  0  0  0  0
  6 17  2  0  0  0  0
  7  8  1  0  0  0  0
  8  9  1  0  0  0  0
  9 10  1  0  0  0  0
 10 16  1  0  0  0  0
 11 13  1  0  0  0  0
 12 13  1  0  0  0  0
 13 15  1  0  0  0  0
 14 15  1  0  0  0  0
  1 18  1  0  0  0  0
  4 19  1  0  0  0  0
  4 20  1  0  0  0  0
  5 21  1  0  0  0  0
  7 22  1  0  0  0  0
  7 23  1  0  0  0  0
  8 24  1  0  0  0  0
  8 25  1  0  0  0  0
  9 26  1  0  0  0  0
  9 27  1  0  0  0  0
 10 28  1  0  0  0  0
 11 29  1  0  0  0  0
 11 30  1  0  0  0  0
 11 31  1  0  0  0  0
 12 32  1  0  0  0  0
 12 33  1  0  0  0  0
 12 34  1  0  0  0  0
 13 35  1  0  0  0  0
 16 36  1  0  0  0  0
M  END
> <Catalog ID>
Z2867490840

> <MW>
233.309

> <MW (desalted)>
233.309

> <ClogP>
0.881

> <logS>
-1.767

> <HBD>
1

> <HBA>
2

> <TPSA>
46.92

> <RotBonds>
3

> <ROCS_ShapeQuery>
A71EV2A-x0451_0A_A71EV2A-x0310_0A_A71EV2A-x0416_0A_peptide

> <ROCS_TanimotoCombo>
0.408 

> <ROCS_ShapeTanimoto>
0.292 

> <ROCS_ColorTanimoto>
0.116 

> <ROCS_RefTversky>
0.261 

> <ROCS_RefColorTversky>
0.132 

> <ROCS_RefTverskyCombo>
0.393 

> <ROCS_FitTversky>
1.683 

> <ROCS_FitColorTversky>
0.486 

> <ROCS_FitTverskyCombo>
2.170 

> <ROCS_ColorScore>
-4.011

> <ROCS_Overlap>
1809.756

> <ROCS_Rank>
479                 

$$$$
untitled-dbase-368_7
  -OEChem-11112315393D

 19 19  0     0  0  0  0  0  0999 V2000
    7.5038   11.5820   24.9485 C   0  0  0  0  0  0  0  0  0  0  0  0
    8.4851   12.2867   24.2514 C   0  0  0  0  0  0  0  0  0  0  0  0
    7.4215   10.1949   24.8259 C   0  0  0  0  0  0  0  0  0  0  0  0
    9.3841   11.6044   23.4317 C   0  0  0  0  0  0  0  0  0  0  0  0
    8.3205    9.5126   24.0062 C   0  0  0  0  0  0  0  0  0  0  0  0
    9.3018   10.2174   23.3090 C   0  0  0  0  0  0  0  0  0  0  0  0
   10.9191   13.5394   23.1819 C   0  0  0  0  0  0  0  0  0  0  0  0
   11.9334   14.0661   22.1933 C   0  0  0  0  0  0  0  0  0  0  0  0
   10.3532   12.3477   22.7499 N   0  0  0  0  0  0  0  0  0  0  0  0
   10.6735   14.1674   24.2082 O   0  0  0  0  0  0  0  0  0  0  0  0
    8.1589    7.7936   23.9006 Cl  0  0  0  0  0  0  0  0  0  0  0  0
   10.4298    9.3847   22.2838 Cl  0  0  0  0  0  0  0  0  0  0  0  0
   11.4344   13.5426   20.5769 Cl  0  0  0  0  0  0  0  0  0  0  0  0
    6.8038   12.1132   25.5868 H   0  0  0  0  0  0  0  0  0  0  0  0
    8.5383   13.3676   24.3560 H   0  0  0  0  0  0  0  0  0  0  0  0
    6.6500    9.6623   25.3765 H   0  0  0  0  0  0  0  0  0  0  0  0
   12.9441   13.6980   22.3870 H   0  0  0  0  0  0  0  0  0  0  0  0
   11.9424   15.1591   22.2283 H   0  0  0  0  0  0  0  0  0  0  0  0
   10.6723   11.9818   21.8565 H   0  0  0  0  0  0  0  0  0  0  0  0
  1  2  2  0  0  0  0
  1  3  1  0  0  0  0
  2  4  1  0  0  0  0
  3  5  2  0  0  0  0
  4  6  2  0  0  0  0
  4  9  1  0  0  0  0
  5  6  1  0  0  0  0
  5 11  1  0  0  0  0
  6 12  1  0  0  0  0
  7  8  1  0  0  0  0
  7  9  1  0  0  0  0
  7 10  2  0  0  0  0
  8 13  1  0  0  0  0
  1 14  1  0  0  0  0
  2 15  1  0  0  0  0
  3 16  1  0  0  0  0
  8 17  1  0  0  0  0
  8 18  1  0  0  0  0
  9 19  1  0  0  0  0
M  END
> <Catalog ID>
Z56896335

> <MW>
236.951

> <MW (desalted)>
238.498

> <ClogP>
2.578

> <logS>
-3.69

> <HBD>
1

> <HBA>
1

> <TPSA>
29.1

> <RotBonds>
2

> <ROCS_ShapeQuery>
A71EV2A-x0451_0A_A71EV2A-x0310_0A_A71EV2A-x0416_0A_peptide

> <ROCS_TanimotoCombo>
0.407 

> <ROCS_ShapeTanimoto>
0.267 

> <ROCS_ColorTanimoto>
0.140 

> <ROCS_RefTversky>
0.237 

> <ROCS_RefColorTversky>
0.141 

> <ROCS_RefTverskyCombo>
0.378 

> <ROCS_FitTversky>
1.883 

> <ROCS_FitColorTversky>
0.962 

> <ROCS_FitTverskyCombo>
2.846 

> <ROCS_ColorScore>
-4.268

> <ROCS_Overlap>
1644.133

> <ROCS_Rank>
480                 

$$$$
untitled-dbase-840_7
  -OEChem-11112315393D

 19 19  0     0  0  0  0  0  0999 V2000
    8.4802   12.2863   24.2512 C   0  0  0  0  0  0  0  0  0  0  0  0
    7.4991   11.5785   24.9454 C   0  0  0  0  0  0  0  0  0  0  0  0
    8.3246    9.5118   24.0050 C   0  0  0  0  0  0  0  0  0  0  0  0
    9.3835   11.6069   23.4338 C   0  0  0  0  0  0  0  0  0  0  0  0
    7.4213   10.1913   24.8224 C   0  0  0  0  0  0  0  0  0  0  0  0
    9.3057   10.2196   23.3107 C   0  0  0  0  0  0  0  0  0  0  0  0
   10.9215   13.5390   23.1806 C   0  0  0  0  0  0  0  0  0  0  0  0
   11.9385   14.0611   22.1923 C   0  0  0  0  0  0  0  0  0  0  0  0
   10.3546   12.3463   22.7518 N   0  0  0  0  0  0  0  0  0  0  0  0
   10.6745   14.1708   24.2042 O   0  0  0  0  0  0  0  0  0  0  0  0
    6.4797    9.5115   25.4899 F   0  0  0  0  0  0  0  0  0  0  0  0
   10.4047    9.3381   22.3108 Cl  0  0  0  0  0  0  0  0  0  0  0  0
   11.4422   13.5327   20.5767 Cl  0  0  0  0  0  0  0  0  0  0  0  0
    8.5302   13.3671   24.3557 H   0  0  0  0  0  0  0  0  0  0  0  0
    6.7951   12.1072   25.5814 H   0  0  0  0  0  0  0  0  0  0  0  0
    8.2500    8.4309   23.9204 H   0  0  0  0  0  0  0  0  0  0  0  0
   12.9483   13.6924   22.3894 H   0  0  0  0  0  0  0  0  0  0  0  0
   11.9488   15.1542   22.2236 H   0  0  0  0  0  0  0  0  0  0  0  0
   10.6750   11.9767   21.8601 H   0  0  0  0  0  0  0  0  0  0  0  0
  1  2  2  0  0  0  0
  1  4  1  0  0  0  0
  2  5  1  0  0  0  0
  3  5  2  0  0  0  0
  3  6  1  0  0  0  0
  4  6  2  0  0  0  0
  4  9  1  0  0  0  0
  5 11  1  0  0  0  0
  6 12  1  0  0  0  0
  7  8  1  0  0  0  0
  7  9  1  0  0  0  0
  7 10  2  0  0  0  0
  8 13  1  0  0  0  0
  1 14  1  0  0  0  0
  2 15  1  0  0  0  0
  3 16  1  0  0  0  0
  8 17  1  0  0  0  0
  8 18  1  0  0  0  0
  9 19  1  0  0  0  0
M  END
> <Catalog ID>
Z56896193

> <MW>
220.981

> <MW (desalted)>
222.044

> <ClogP>
2.128

> <logS>
-3.23

> <HBD>
1

> <HBA>
1

> <TPSA>
29.1

> <RotBonds>
2

> <ROCS_ShapeQuery>
A71EV2A-x0451_0A_A71EV2A-x0310_0A_A71EV2A-x0416_0A_peptide

> <ROCS_TanimotoCombo>
0.407 

> <ROCS_ShapeTanimoto>
0.267 

> <ROCS_ColorTanimoto>
0.140 

> <ROCS_RefTversky>
0.238 

> <ROCS_RefColorTversky>
0.141 

> <ROCS_RefTverskyCombo>
0.379 

> <ROCS_FitTversky>
1.863 

> <ROCS_FitColorTversky>
0.962 

> <ROCS_FitTverskyCombo>
2.825 

> <ROCS_ColorScore>
-4.266

> <ROCS_Overlap>
1645.926

> <ROCS_Rank>
481                 

$$$$
untitled-dbase-297_671
  -OEChem-11112315393D

 33 34  0     0  0  0  0  0  0999 V2000
   10.3880   10.0305   22.6413 C   0  0  0  0  0  0  0  0  0  0  0  0
    7.0982   12.1580   25.4731 C   0  0  0  0  0  0  0  0  0  0  0  0
    6.5543   10.8878   25.6282 C   0  0  0  0  0  0  0  0  0  0  0  0
    8.2250   12.3332   24.6775 C   0  0  0  0  0  0  0  0  0  0  0  0
    7.1697    9.8342   24.9717 C   0  0  0  0  0  0  0  0  0  0  0  0
    8.7657   11.2149   24.0637 C   0  0  0  0  0  0  0  0  0  0  0  0
   12.7055   16.1222   20.1912 C   0  0  0  0  0  0  0  0  0  0  0  0
   11.6030   15.7344   20.8358 C   0  0  0  0  0  0  0  0  0  0  0  0
   11.7118   15.3186   22.2499 C   0  0  0  0  0  0  0  0  0  0  0  0
   11.2862   11.9106   23.8958 C   0  0  0  0  0  0  0  0  0  0  0  0
    9.6461   12.3049   21.9824 C   0  0  0  0  0  0  0  0  0  0  0  0
   11.3736   13.4362   23.9118 C   0  0  0  0  0  0  0  0  0  0  0  0
   10.8228   13.1476   21.4955 C   0  0  0  0  0  0  0  0  0  0  0  0
   10.0140   11.3709   23.1753 C   0  0  0  0  0  0  0  0  0  0  0  0
   10.6792    8.9871   22.2258 N   0  0  0  0  0  0  0  0  0  0  0  0
    8.2653    9.9654   24.1907 N   0  0  0  0  0  0  0  0  0  0  0  0
   11.3229   14.0167   22.5631 N   0  0  0  0  0  0  0  0  0  0  0  0
   12.1437   16.1382   23.0615 O   0  0  0  0  0  0  0  0  0  0  0  0
    6.6448   13.0096   25.9713 H   0  0  0  0  0  0  0  0  0  0  0  0
    5.6764   10.7276   26.2434 H   0  0  0  0  0  0  0  0  0  0  0  0
    8.6590   13.3189   24.5484 H   0  0  0  0  0  0  0  0  0  0  0  0
    6.7843    8.8238   25.0602 H   0  0  0  0  0  0  0  0  0  0  0  0
   12.6891   16.4382   19.1536 H   0  0  0  0  0  0  0  0  0  0  0  0
   13.6616   16.1293   20.7040 H   0  0  0  0  0  0  0  0  0  0  0  0
   10.6319   15.7140   20.3588 H   0  0  0  0  0  0  0  0  0  0  0  0
   12.1867   11.5044   23.4251 H   0  0  0  0  0  0  0  0  0  0  0  0
   11.2908   11.5580   24.9332 H   0  0  0  0  0  0  0  0  0  0  0  0
    8.8356   12.9808   22.2816 H   0  0  0  0  0  0  0  0  0  0  0  0
    9.2605   11.7119   21.1451 H   0  0  0  0  0  0  0  0  0  0  0  0
   10.5649   13.8135   24.5445 H   0  0  0  0  0  0  0  0  0  0  0  0
   12.3177   13.7663   24.3677 H   0  0  0  0  0  0  0  0  0  0  0  0
   11.6545   12.5106   21.1802 H   0  0  0  0  0  0  0  0  0  0  0  0
   10.5172   13.7344   20.6264 H   0  0  0  0  0  0  0  0  0  0  0  0
  1 14  1  0  0  0  0
  1 15  3  0  0  0  0
  2  3  1  0  0  0  0
  2  4  2  0  0  0  0
  3  5  2  0  0  0  0
  4  6  1  0  0  0  0
  5 16  1  0  0  0  0
  6 14  1  0  0  0  0
  6 16  2  0  0  0  0
  7  8  2  0  0  0  0
  8  9  1  0  0  0  0
  9 17  1  0  0  0  0
  9 18  2  0  0  0  0
 10 12  1  0  0  0  0
 10 14  1  0  0  0  0
 11 13  1  0  0  0  0
 11 14  1  0  0  0  0
 12 17  1  0  0  0  0
 13 17  1  0  0  0  0
  2 19  1  0  0  0  0
  3 20  1  0  0  0  0
  4 21  1  0  0  0  0
  5 22  1  0  0  0  0
  7 23  1  0  0  0  0
  7 24  1  0  0  0  0
  8 25  1  0  0  0  0
 10 26  1  0  0  0  0
 10 27  1  0  0  0  0
 11 28  1  0  0  0  0
 11 29  1  0  0  0  0
 12 30  1  0  0  0  0
 12 31  1  0  0  0  0
 13 32  1  0  0  0  0
 13 33  1  0  0  0  0
M  END
> <Catalog ID>
Z2737383491

> <MW>
241.288

> <MW (desalted)>
241.288

> <ClogP>
-0.24

> <logS>
-1.52

> <HBD>
0

> <HBA>
3

> <TPSA>
56.99

> <RotBonds>
2

> <ROCS_ShapeQuery>
A71EV2A-x0451_0A_A71EV2A-x0310_0A_A71EV2A-x0416_0A_peptide

> <ROCS_TanimotoCombo>
0.407 

> <ROCS_ShapeTanimoto>
0.318 

> <ROCS_ColorTanimoto>
0.089 

> <ROCS_RefTversky>
0.280 

> <ROCS_RefColorTversky>
0.102 

> <ROCS_RefTverskyCombo>
0.382 

> <ROCS_FitTversky>
1.737 

> <ROCS_FitColorTversky>
0.425 

> <ROCS_FitTverskyCombo>
2.162 

> <ROCS_ColorScore>
-3.095

> <ROCS_Overlap>
1941.655

> <ROCS_Rank>
482                 

$$$$
untitled-dbase-813_160
  -OEChem-11112315393D

 22 22  0     0  0  0  0  0  0999 V2000
    7.4031   10.1926   24.8363 C   0  0  0  0  0  0  0  0  0  0  0  0
    7.4810   11.5801   24.9560 C   0  0  0  0  0  0  0  0  0  0  0  0
    8.3089    9.5107   24.0237 C   0  0  0  0  0  0  0  0  0  0  0  0
    8.4645   12.2857   24.2630 C   0  0  0  0  0  0  0  0  0  0  0  0
    9.2924   10.2163   23.3307 C   0  0  0  0  0  0  0  0  0  0  0  0
    9.3703   11.6039   23.4503 C   0  0  0  0  0  0  0  0  0  0  0  0
   10.2231    9.4735   22.4901 C   0  0  0  0  0  0  0  0  0  0  0  0
   10.9192   13.5254   23.1831 C   0  0  0  0  0  0  0  0  0  0  0  0
   11.9406   14.0335   22.1921 C   0  0  0  0  0  0  0  0  0  0  0  0
   10.3462   12.3319   22.7639 N   0  0  0  0  0  0  0  0  0  0  0  0
    9.9692    8.4166   21.9069 O   0  0  0  0  0  0  0  0  0  0  0  0
   10.6739   14.1674   24.2009 O   0  0  0  0  0  0  0  0  0  0  0  0
   11.4389   10.0771   22.4059 O   0  0  0  0  0  0  0  0  0  0  0  0
   11.0991   15.0800   21.0379 Cl  0  0  0  0  0  0  0  0  0  0  0  0
    6.6369    9.6434   25.3758 H   0  0  0  0  0  0  0  0  0  0  0  0
    6.7757   12.1105   25.5890 H   0  0  0  0  0  0  0  0  0  0  0  0
    8.2379    8.4292   23.9390 H   0  0  0  0  0  0  0  0  0  0  0  0
    8.5147   13.3669   24.3647 H   0  0  0  0  0  0  0  0  0  0  0  0
   12.4347   13.2281   21.6429 H   0  0  0  0  0  0  0  0  0  0  0  0
   12.6991   14.6193   22.7190 H   0  0  0  0  0  0  0  0  0  0  0  0
   10.6660   11.9527   21.8758 H   0  0  0  0  0  0  0  0  0  0  0  0
   11.4901   10.9092   22.9230 H   0  0  0  0  0  0  0  0  0  0  0  0
  1  2  1  0  0  0  0
  1  3  2  0  0  0  0
  2  4  2  0  0  0  0
  3  5  1  0  0  0  0
  4  6  1  0  0  0  0
  5  6  2  0  0  0  0
  5  7  1  0  0  0  0
  6 10  1  0  0  0  0
  7 11  2  0  0  0  0
  7 13  1  0  0  0  0
  8  9  1  0  0  0  0
  8 10  1  0  0  0  0
  8 12  2  0  0  0  0
  9 14  1  0  0  0  0
  1 15  1  0  0  0  0
  2 16  1  0  0  0  0
  3 17  1  0  0  0  0
  4 18  1  0  0  0  0
  9 19  1  0  0  0  0
  9 20  1  0  0  0  0
 10 21  1  0  0  0  0
 13 22  1  0  0  0  0
M  END
> <Catalog ID>
Z56891406

> <MW>
213.019

> <MW (desalted)>
213.618

> <ClogP>
2.441

> <logS>
-2.32

> <HBD>
2

> <HBA>
3

> <TPSA>
66.4

> <RotBonds>
3

> <ROCS_ShapeQuery>
A71EV2A-x0451_0A_A71EV2A-x0310_0A_A71EV2A-x0416_0A_peptide

> <ROCS_TanimotoCombo>
0.407 

> <ROCS_ShapeTanimoto>
0.280 

> <ROCS_ColorTanimoto>
0.127 

> <ROCS_RefTversky>
0.248 

> <ROCS_RefColorTversky>
0.140 

> <ROCS_RefTverskyCombo>
0.388 

> <ROCS_FitTversky>
1.829 

> <ROCS_FitColorTversky>
0.584 

> <ROCS_FitTverskyCombo>
2.413 

> <ROCS_ColorScore>
-4.262

> <ROCS_Overlap>
1719.335

> <ROCS_Rank>
483                 

$$$$
untitled-dbase-831_4
  -OEChem-11112315393D

 25 25  0     0  0  0  0  0  0999 V2000
    7.4802   11.5878   24.9505 C   0  0  0  0  0  0  0  0  0  0  0  0
    7.4012   10.2000   24.8354 C   0  0  0  0  0  0  0  0  0  0  0  0
    8.4656   12.2902   24.2567 C   0  0  0  0  0  0  0  0  0  0  0  0
    8.3076    9.5145   24.0266 C   0  0  0  0  0  0  0  0  0  0  0  0
    9.3720   11.6048   23.4479 C   0  0  0  0  0  0  0  0  0  0  0  0
    9.2931   10.2169   23.3328 C   0  0  0  0  0  0  0  0  0  0  0  0
   10.9210   13.5268   23.1844 C   0  0  0  0  0  0  0  0  0  0  0  0
   11.7574    8.9231   23.4176 C   0  0  0  0  0  0  0  0  0  0  0  0
   11.9450   14.0348   22.1961 C   0  0  0  0  0  0  0  0  0  0  0  0
   10.3494   12.3327   22.7641 N   0  0  0  0  0  0  0  0  0  0  0  0
   10.6726   14.1690   24.2012 O   0  0  0  0  0  0  0  0  0  0  0  0
    9.7619    8.0765   21.9424 O   0  0  0  0  0  0  0  0  0  0  0  0
   10.9379   10.2111   21.3049 O   0  0  0  0  0  0  0  0  0  0  0  0
   10.4112    9.3197   22.3270 S   0  0  0  0  0  0  0  0  0  0  0  0
   11.1065   15.0806   21.0391 Cl  0  0  0  0  0  0  0  0  0  0  0  0
    6.7744   12.1214   25.5802 H   0  0  0  0  0  0  0  0  0  0  0  0
    6.6345    9.6527   25.3760 H   0  0  0  0  0  0  0  0  0  0  0  0
    8.5157   13.3716   24.3551 H   0  0  0  0  0  0  0  0  0  0  0  0
    8.2354    8.4332   23.9447 H   0  0  0  0  0  0  0  0  0  0  0  0
   12.5015    8.3576   22.8546 H   0  0  0  0  0  0  0  0  0  0  0  0
   12.1859    9.8553   23.7888 H   0  0  0  0  0  0  0  0  0  0  0  0
   11.3672    8.3259   24.2430 H   0  0  0  0  0  0  0  0  0  0  0  0
   12.4410   13.2293   21.6486 H   0  0  0  0  0  0  0  0  0  0  0  0
   12.7018   14.6211   22.7249 H   0  0  0  0  0  0  0  0  0  0  0  0
   10.6719   11.9532   21.8770 H   0  0  0  0  0  0  0  0  0  0  0  0
  1  2  1  0  0  0  0
  1  3  2  0  0  0  0
  2  4  2  0  0  0  0
  3  5  1  0  0  0  0
  4  6  1  0  0  0  0
  5  6  2  0  0  0  0
  5 10  1  0  0  0  0
  6 14  1  0  0  0  0
  7  9  1  0  0  0  0
  7 10  1  0  0  0  0
  7 11  2  0  0  0  0
  8 14  1  0  0  0  0
  9 15  1  0  0  0  0
 12 14  2  0  0  0  0
 13 14  2  0  0  0  0
  1 16  1  0  0  0  0
  2 17  1  0  0  0  0
  3 18  1  0  0  0  0
  4 19  1  0  0  0  0
  8 20  1  0  0  0  0
  8 21  1  0  0  0  0
  8 22  1  0  0  0  0
  9 23  1  0  0  0  0
  9 24  1  0  0  0  0
 10 25  1  0  0  0  0
M  END
> <Catalog ID>
Z147652038

> <MW>
247.007

> <MW (desalted)>
247.699

> <ClogP>
0.777

> <logS>
-2.03

> <HBD>
1

> <HBA>
3

> <TPSA>
63.24

> <RotBonds>
3

> <ROCS_ShapeQuery>
A71EV2A-x0451_0A_A71EV2A-x0310_0A_A71EV2A-x0416_0A_peptide

> <ROCS_TanimotoCombo>
0.407 

> <ROCS_ShapeTanimoto>
0.276 

> <ROCS_ColorTanimoto>
0.131 

> <ROCS_RefTversky>
0.246 

> <ROCS_RefColorTversky>
0.140 

> <ROCS_RefTverskyCombo>
0.386 

> <ROCS_FitTversky>
1.783 

> <ROCS_FitColorTversky>
0.673 

> <ROCS_FitTverskyCombo>
2.456 

> <ROCS_ColorScore>
-4.263

> <ROCS_Overlap>
1702.988

> <ROCS_Rank>
484                 

$$$$
untitled-dbase-663_364
  -OEChem-11112315393D

 36 38  0     1  0  0  0  0  0999 V2000
    7.5800    9.8543   24.2778 C   0  0  0  0  0  0  0  0  0  0  0  0
    9.0010   11.4812   24.0713 C   0  0  0  0  0  0  0  0  0  0  0  0
   10.1025   14.9612   21.0398 C   0  0  0  0  0  0  0  0  0  0  0  0
   10.3153   15.8379   22.0233 C   0  0  0  0  0  0  0  0  0  0  0  0
   11.4294   15.5997   22.9624 C   0  0  0  0  0  0  0  0  0  0  0  0
   12.7530   12.3705   23.5880 C   0  0  0  0  0  0  0  0  0  0  0  0
   11.5336   11.5513   24.0184 C   0  0  0  0  0  0  0  0  0  0  0  0
    9.0739    8.0051   22.3792 C   0  0  0  0  0  0  0  0  0  0  0  0
   10.2227    8.1157   23.3321 C   0  0  0  0  0  0  0  0  0  0  0  0
   12.6736   13.8041   24.1084 C   0  0  0  0  0  0  0  0  0  0  0  0
   10.2149   13.7029   24.1737 C   0  0  0  0  0  0  0  0  0  0  0  0
   10.2224   12.2639   23.6297 C   0  0  2  0  0  0  0  0  0  0  0  0
    9.5558    9.3690   22.8155 C   0  0  0  0  0  0  0  0  0  0  0  0
    7.1318   10.8627   24.9909 N   0  0  0  0  0  0  0  0  0  0  0  0
    8.0359   11.8978   24.8596 N   0  0  0  0  0  0  0  0  0  0  0  0
    8.7546   10.1998   23.6814 N   0  0  0  0  0  0  0  0  0  0  0  0
   11.4089   14.4246   23.7074 N   0  0  0  0  0  0  0  0  0  0  0  0
   12.3145   16.4546   23.0254 O   0  0  0  0  0  0  0  0  0  0  0  0
    7.1103    8.8878   24.1626 H   0  0  0  0  0  0  0  0  0  0  0  0
    9.3004   15.0819   20.3194 H   0  0  0  0  0  0  0  0  0  0  0  0
   10.7422   14.0907   20.9388 H   0  0  0  0  0  0  0  0  0  0  0  0
    9.6994   16.7177   22.1563 H   0  0  0  0  0  0  0  0  0  0  0  0
   13.6656   11.8928   23.9613 H   0  0  0  0  0  0  0  0  0  0  0  0
   12.8211   12.3805   22.4930 H   0  0  0  0  0  0  0  0  0  0  0  0
   11.5770   10.5577   23.5559 H   0  0  0  0  0  0  0  0  0  0  0  0
   11.5702   11.3938   25.1048 H   0  0  0  0  0  0  0  0  0  0  0  0
    9.2890    7.6977   21.3630 H   0  0  0  0  0  0  0  0  0  0  0  0
    8.1302    7.6417   22.7668 H   0  0  0  0  0  0  0  0  0  0  0  0
   10.0521    7.8275   24.3623 H   0  0  0  0  0  0  0  0  0  0  0  0
   11.2129    7.8831   22.9599 H   0  0  0  0  0  0  0  0  0  0  0  0
   12.7196   13.8213   25.2035 H   0  0  0  0  0  0  0  0  0  0  0  0
   13.5279   14.3774   23.7348 H   0  0  0  0  0  0  0  0  0  0  0  0
    9.2891   14.2148   23.9050 H   0  0  0  0  0  0  0  0  0  0  0  0
   10.2514   13.7020   25.2717 H   0  0  0  0  0  0  0  0  0  0  0  0
   10.1745   12.3172   22.5150 H   0  0  0  0  0  0  0  0  0  0  0  0
   10.1065    9.9497   22.0840 H   0  0  0  0  0  0  0  0  0  0  0  0
  1 14  2  0  0  0  0
  1 16  1  0  0  0  0
  2 12  1  0  0  0  0
  2 15  2  0  0  0  0
  2 16  1  0  0  0  0
  3  4  2  0  0  0  0
  4  5  1  0  0  0  0
  5 17  1  0  0  0  0
  5 18  2  0  0  0  0
  6  7  1  0  0  0  0
  6 10  1  0  0  0  0
  7 12  1  0  0  0  0
  8  9  1  0  0  0  0
  8 13  1  0  0  0  0
  9 13  1  0  0  0  0
 10 17  1  0  0  0  0
 11 12  1  0  0  0  0
 11 17  1  0  0  0  0
 13 16  1  0  0  0  0
 14 15  1  0  0  0  0
  1 19  1  0  0  0  0
  3 20  1  0  0  0  0
  3 21  1  0  0  0  0
  4 22  1  0  0  0  0
  6 23  1  0  0  0  0
  6 24  1  0  0  0  0
  7 25  1  0  0  0  0
  7 26  1  0  0  0  0
  8 27  1  0  0  0  0
  8 28  1  0  0  0  0
  9 29  1  0  0  0  0
  9 30  1  0  0  0  0
 10 31  1  0  0  0  0
 10 32  1  0  0  0  0
 11 33  1  0  0  0  0
 11 34  1  0  0  0  0
 12 35  1  0  0  0  0
 13 36  1  0  0  0  0
M  END
> <Catalog ID>
Z2285377501

> <MW>
246.308

> <MW (desalted)>
246.308

> <ClogP>
-0.285

> <logS>
-1.9

> <HBD>
0

> <HBA>
3

> <TPSA>
51.02

> <RotBonds>
3

> <ROCS_ShapeQuery>
A71EV2A-x0451_0A_A71EV2A-x0310_0A_A71EV2A-x0416_0A_peptide

> <ROCS_TanimotoCombo>
0.407 

> <ROCS_ShapeTanimoto>
0.305 

> <ROCS_ColorTanimoto>
0.102 

> <ROCS_RefTversky>
0.272 

> <ROCS_RefColorTversky>
0.115 

> <ROCS_RefTverskyCombo>
0.387 

> <ROCS_FitTversky>
1.674 

> <ROCS_FitColorTversky>
0.464 

> <ROCS_FitTverskyCombo>
2.138 

> <ROCS_ColorScore>
-3.514

> <ROCS_Overlap>
1883.608

> <ROCS_Rank>
485                 

$$$$
untitled-dbase-515_13
  -OEChem-11112315393D

 38 39  0     1  0  0  0  0  0999 V2000
   10.7442    9.4620   23.5295 C   0  0  0  0  0  0  0  0  0  0  0  0
    9.6557   10.3173   23.7903 C   0  0  0  0  0  0  0  0  0  0  0  0
    8.5951    9.4606   23.9795 C   0  0  0  0  0  0  0  0  0  0  0  0
   10.8185   13.7097   23.0295 C   0  0  0  0  0  0  0  0  0  0  0  0
    7.1947    9.8370   24.2865 C   0  0  0  0  0  0  0  0  0  0  0  0
    7.1524   11.3060   24.7542 C   0  0  0  0  0  0  0  0  0  0  0  0
    8.0415   12.2224   23.8860 C   0  0  0  0  0  0  0  0  0  0  0  0
    9.5272   11.7933   23.9195 C   0  0  2  0  0  0  0  0  0  0  0  0
    7.2032    6.9476   22.8670 C   0  0  0  0  0  0  0  0  0  0  0  0
    7.7542    6.8160   25.3284 C   0  0  0  0  0  0  0  0  0  0  0  0
    9.2037    5.6991   23.6490 C   0  0  0  0  0  0  0  0  0  0  0  0
   11.5690   14.1832   21.8109 C   0  0  0  0  0  0  0  0  0  0  0  0
    8.3445    6.9614   23.9080 C   0  0  0  0  0  0  0  0  0  0  0  0
   10.3968    8.1696   23.5337 N   0  0  0  0  0  0  0  0  0  0  0  0
    9.0788    8.2005   23.8095 N   0  0  0  0  0  0  0  0  0  0  0  0
   10.2701   12.4471   22.8728 N   0  0  0  0  0  0  0  0  0  0  0  0
   10.7364   14.3947   24.0475 O   0  0  0  0  0  0  0  0  0  0  0  0
   12.8663   15.2586   22.3542 Cl  0  0  0  0  0  0  0  0  0  0  0  0
   11.7747    9.7227   23.3339 H   0  0  0  0  0  0  0  0  0  0  0  0
    6.5460    9.7096   23.4145 H   0  0  0  0  0  0  0  0  0  0  0  0
    6.8159    9.1904   25.0859 H   0  0  0  0  0  0  0  0  0  0  0  0
    6.1184   11.6690   24.7173 H   0  0  0  0  0  0  0  0  0  0  0  0
    7.4704   11.3621   25.8007 H   0  0  0  0  0  0  0  0  0  0  0  0
    7.6741   12.2367   22.8568 H   0  0  0  0  0  0  0  0  0  0  0  0
    7.9594   13.2454   24.2676 H   0  0  0  0  0  0  0  0  0  0  0  0
    9.9696   12.1340   24.8734 H   0  0  0  0  0  0  0  0  0  0  0  0
    7.5957    7.0494   21.8486 H   0  0  0  0  0  0  0  0  0  0  0  0
    6.6269    6.0167   22.8952 H   0  0  0  0  0  0  0  0  0  0  0  0
    6.5034    7.7733   23.0408 H   0  0  0  0  0  0  0  0  0  0  0  0
    8.5289    6.8206   26.1024 H   0  0  0  0  0  0  0  0  0  0  0  0
    7.0689    7.6401   25.5581 H   0  0  0  0  0  0  0  0  0  0  0  0
    7.1957    5.8779   25.4273 H   0  0  0  0  0  0  0  0  0  0  0  0
   10.0404    5.6403   24.3557 H   0  0  0  0  0  0  0  0  0  0  0  0
    8.6185    4.7801   23.7696 H   0  0  0  0  0  0  0  0  0  0  0  0
    9.6355    5.7042   22.6414 H   0  0  0  0  0  0  0  0  0  0  0  0
   12.0108   13.3601   21.2439 H   0  0  0  0  0  0  0  0  0  0  0  0
   10.8901   14.7412   21.1603 H   0  0  0  0  0  0  0  0  0  0  0  0
   10.3965   11.9648   21.9874 H   0  0  0  0  0  0  0  0  0  0  0  0
  1  2  1  0  0  0  0
  1 14  2  0  0  0  0
  2  3  2  0  0  0  0
  2  8  1  0  0  0  0
  3  5  1  0  0  0  0
  3 15  1  0  0  0  0
  4 12  1  0  0  0  0
  4 16  1  0  0  0  0
  4 17  2  0  0  0  0
  5  6  1  0  0  0  0
  6  7  1  0  0  0  0
  7  8  1  0  0  0  0
  8 16  1  0  0  0  0
  9 13  1  0  0  0  0
 10 13  1  0  0  0  0
 11 13  1  0  0  0  0
 12 18  1  0  0  0  0
 13 15  1  0  0  0  0
 14 15  1  0  0  0  0
  1 19  1  0  0  0  0
  5 20  1  0  0  0  0
  5 21  1  0  0  0  0
  6 22  1  0  0  0  0
  6 23  1  0  0  0  0
  7 24  1  0  0  0  0
  7 25  1  0  0  0  0
  8 26  1  0  0  0  0
  9 27  1  0  0  0  0
  9 28  1  0  0  0  0
  9 29  1  0  0  0  0
 10 30  1  0  0  0  0
 10 31  1  0  0  0  0
 10 32  1  0  0  0  0
 11 33  1  0  0  0  0
 11 34  1  0  0  0  0
 11 35  1  0  0  0  0
 12 36  1  0  0  0  0
 12 37  1  0  0  0  0
 16 38  1  0  0  0  0
M  END
> <Catalog ID>
Z2595683871

> <MW>
305.106

> <MW (desalted)>
269.77

> <ClogP>
1.658

> <logS>
-2.357

> <HBD>
1

> <HBA>
2

> <TPSA>
46.92

> <RotBonds>
3

> <ROCS_ShapeQuery>
A71EV2A-x0451_0A_A71EV2A-x0310_0A_A71EV2A-x0416_0A_peptide

> <ROCS_TanimotoCombo>
0.407 

> <ROCS_ShapeTanimoto>
0.287 

> <ROCS_ColorTanimoto>
0.120 

> <ROCS_RefTversky>
0.259 

> <ROCS_RefColorTversky>
0.133 

> <ROCS_RefTverskyCombo>
0.391 

> <ROCS_FitTversky>
1.618 

> <ROCS_FitColorTversky>
0.552 

> <ROCS_FitTverskyCombo>
2.171 

> <ROCS_ColorScore>
-4.033

> <ROCS_Overlap>
1793.941

> <ROCS_Rank>
486                 

$$$$
untitled-dbase-521_138
  -OEChem-11112315393D

 34 36  0     0  0  0  0  0  0999 V2000
    7.7325    9.2643   24.2475 C   0  0  0  0  0  0  0  0  0  0  0  0
    7.9552   12.8026   25.1647 C   0  0  0  0  0  0  0  0  0  0  0  0
    8.7527    9.1721   23.3171 C   0  0  0  0  0  0  0  0  0  0  0  0
    6.9051   12.5930   26.0269 C   0  0  0  0  0  0  0  0  0  0  0  0
    8.3387   11.6172   24.4527 C   0  0  0  0  0  0  0  0  0  0  0  0
    7.5400   10.5291   24.8157 C   0  0  0  0  0  0  0  0  0  0  0  0
    9.3460   11.4090   23.4973 C   0  0  0  0  0  0  0  0  0  0  0  0
   12.1476   17.3953   20.1897 C   0  0  0  0  0  0  0  0  0  0  0  0
   11.3210   16.7689   21.0297 C   0  0  0  0  0  0  0  0  0  0  0  0
   11.8850   16.0997   22.2185 C   0  0  0  0  0  0  0  0  0  0  0  0
    9.7329   13.2869   21.9591 C   0  0  0  0  0  0  0  0  0  0  0  0
   11.0045   13.1498   24.1052 C   0  0  0  0  0  0  0  0  0  0  0  0
   10.9234   14.0091   21.3293 C   0  0  0  0  0  0  0  0  0  0  0  0
   12.1710   13.8648   23.4254 C   0  0  0  0  0  0  0  0  0  0  0  0
    9.5450   10.1941   22.9390 N   0  0  0  0  0  0  0  0  0  0  0  0
   10.1708   12.4694   23.1031 N   0  0  0  0  0  0  0  0  0  0  0  0
   11.6808   14.7308   22.3496 N   0  0  0  0  0  0  0  0  0  0  0  0
   12.5081   16.7951   23.0226 O   0  0  0  0  0  0  0  0  0  0  0  0
    6.3650   10.9765   25.9948 S   0  0  0  0  0  0  0  0  0  0  0  0
    7.1235    8.4094   24.5159 H   0  0  0  0  0  0  0  0  0  0  0  0
    8.4307   13.7688   25.0490 H   0  0  0  0  0  0  0  0  0  0  0  0
    8.9661    8.2253   22.8304 H   0  0  0  0  0  0  0  0  0  0  0  0
    6.4308   13.3168   26.6745 H   0  0  0  0  0  0  0  0  0  0  0  0
   11.7929   17.9047   19.2999 H   0  0  0  0  0  0  0  0  0  0  0  0
   13.2147   17.4079   20.3845 H   0  0  0  0  0  0  0  0  0  0  0  0
   10.2513   16.7347   20.8696 H   0  0  0  0  0  0  0  0  0  0  0  0
    8.9999   14.0282   22.2932 H   0  0  0  0  0  0  0  0  0  0  0  0
    9.2453   12.6468   21.2159 H   0  0  0  0  0  0  0  0  0  0  0  0
   11.4031   12.4323   24.8295 H   0  0  0  0  0  0  0  0  0  0  0  0
   10.3873   13.8652   24.6565 H   0  0  0  0  0  0  0  0  0  0  0  0
   11.5647   13.2821   20.8437 H   0  0  0  0  0  0  0  0  0  0  0  0
   10.5834   14.7341   20.5956 H   0  0  0  0  0  0  0  0  0  0  0  0
   12.7221   14.4537   24.1575 H   0  0  0  0  0  0  0  0  0  0  0  0
   12.8630   13.1478   22.9813 H   0  0  0  0  0  0  0  0  0  0  0  0
  1  3  1  0  0  0  0
  1  6  2  0  0  0  0
  2  4  2  0  0  0  0
  2  5  1  0  0  0  0
  3 15  2  0  0  0  0
  4 19  1  0  0  0  0
  5  6  1  0  0  0  0
  5  7  2  0  0  0  0
  6 19  1  0  0  0  0
  7 15  1  0  0  0  0
  7 16  1  0  0  0  0
  8  9  2  0  0  0  0
  9 10  1  0  0  0  0
 10 17  1  0  0  0  0
 10 18  2  0  0  0  0
 11 13  1  0  0  0  0
 11 16  1  0  0  0  0
 12 14  1  0  0  0  0
 12 16  1  0  0  0  0
 13 17  1  0  0  0  0
 14 17  1  0  0  0  0
  1 20  1  0  0  0  0
  2 21  1  0  0  0  0
  3 22  1  0  0  0  0
  4 23  1  0  0  0  0
  8 24  1  0  0  0  0
  8 25  1  0  0  0  0
  9 26  1  0  0  0  0
 11 27  1  0  0  0  0
 11 28  1  0  0  0  0
 12 29  1  0  0  0  0
 12 30  1  0  0  0  0
 13 31  1  0  0  0  0
 13 32  1  0  0  0  0
 14 33  1  0  0  0  0
 14 34  1  0  0  0  0
M  END
> <Catalog ID>
Z2285378161

> <MW>
273.353

> <MW (desalted)>
273.353

> <ClogP>
2.184

> <logS>
-3.6

> <HBD>
0

> <HBA>
3

> <TPSA>
36.44

> <RotBonds>
2

> <ROCS_ShapeQuery>
A71EV2A-x0451_0A_A71EV2A-x0310_0A_A71EV2A-x0416_0A_peptide

> <ROCS_TanimotoCombo>
0.407 

> <ROCS_ShapeTanimoto>
0.331 

> <ROCS_ColorTanimoto>
0.076 

> <ROCS_RefTversky>
0.291 

> <ROCS_RefColorTversky>
0.087 

> <ROCS_RefTverskyCombo>
0.378 

> <ROCS_FitTversky>
1.721 

> <ROCS_FitColorTversky>
0.364 

> <ROCS_FitTverskyCombo>
2.084 

> <ROCS_ColorScore>
-2.655

> <ROCS_Overlap>
2016.564

> <ROCS_Rank>
487                 

$$$$
untitled-dbase-163_1516
  -OEChem-11112315393D

 38 39  0     1  0  0  0  0  0999 V2000
    8.3588    6.1894   23.1652 C   0  0  0  0  0  0  0  0  0  0  0  0
    8.7189    7.4738   23.1194 C   0  0  0  0  0  0  0  0  0  0  0  0
    7.7781    8.5149   23.6755 C   0  0  0  0  0  0  0  0  0  0  0  0
   10.9062   13.1658   23.5587 C   0  0  0  0  0  0  0  0  0  0  0  0
   12.9228   15.1769   22.1346 C   0  0  0  0  0  0  0  0  0  0  0  0
   12.4019   13.8388   21.6671 C   0  0  0  0  0  0  0  0  0  0  0  0
    7.9111   12.1593   24.6008 C   0  0  0  0  0  0  0  0  0  0  0  0
    7.4714   10.7017   24.7608 C   0  0  0  0  0  0  0  0  0  0  0  0
    8.5606   12.4874   23.2571 C   0  0  0  0  0  0  0  0  0  0  0  0
    9.8095    9.8939   24.2913 C   0  0  0  0  0  0  0  0  0  0  0  0
   10.3110   10.7284   23.1146 C   0  0  0  0  0  0  0  0  0  0  0  0
   13.7899   14.7848   23.3090 C   0  0  0  0  0  0  0  0  0  0  0  0
   12.2720   13.0580   22.9606 C   0  0  1  0  0  0  0  0  0  0  0  0
    8.3588    9.6742   24.2076 N   0  0  0  0  0  0  0  0  0  0  0  0
    9.9884   12.1510   23.2787 N   0  0  0  0  0  0  0  0  0  0  0  0
    6.5627    8.3031   23.6428 O   0  0  0  0  0  0  0  0  0  0  0  0
   10.6748   14.1423   24.2741 O   0  0  0  0  0  0  0  0  0  0  0  0
   13.1601   13.6482   23.9144 O   0  0  0  0  0  0  0  0  0  0  0  0
    8.9918    5.3961   22.7818 H   0  0  0  0  0  0  0  0  0  0  0  0
    7.4043    5.9069   23.5966 H   0  0  0  0  0  0  0  0  0  0  0  0
    9.6623    7.7946   22.6975 H   0  0  0  0  0  0  0  0  0  0  0  0
   13.4690   15.7280   21.3647 H   0  0  0  0  0  0  0  0  0  0  0  0
   12.0888   15.8008   22.4767 H   0  0  0  0  0  0  0  0  0  0  0  0
   11.4752   13.9172   21.0921 H   0  0  0  0  0  0  0  0  0  0  0  0
   13.1555   13.3569   21.0334 H   0  0  0  0  0  0  0  0  0  0  0  0
    7.0539   12.8262   24.7770 H   0  0  0  0  0  0  0  0  0  0  0  0
    8.6334   12.3841   25.3992 H   0  0  0  0  0  0  0  0  0  0  0  0
    7.3134   10.4684   25.8394 H   0  0  0  0  0  0  0  0  0  0  0  0
    6.4584   10.5927   24.3100 H   0  0  0  0  0  0  0  0  0  0  0  0
    8.0713   11.8943   22.4827 H   0  0  0  0  0  0  0  0  0  0  0  0
    8.4390   13.5373   22.9898 H   0  0  0  0  0  0  0  0  0  0  0  0
   10.3287    8.9389   24.3223 H   0  0  0  0  0  0  0  0  0  0  0  0
   10.0306   10.3957   25.2332 H   0  0  0  0  0  0  0  0  0  0  0  0
   11.3896   10.6514   23.0444 H   0  0  0  0  0  0  0  0  0  0  0  0
    9.8786   10.3447   22.2041 H   0  0  0  0  0  0  0  0  0  0  0  0
   14.7894   14.4803   22.9802 H   0  0  0  0  0  0  0  0  0  0  0  0
   13.8922   15.5867   24.0453 H   0  0  0  0  0  0  0  0  0  0  0  0
   12.4974   11.9974   22.8430 H   0  0  0  0  0  0  0  0  0  0  0  0
  1  2  2  0  0  0  0
  2  3  1  0  0  0  0
  3 14  1  0  0  0  0
  3 16  2  0  0  0  0
  4 13  1  0  0  0  0
  4 15  1  0  0  0  0
  4 17  2  0  0  0  0
  5  6  1  0  0  0  0
  5 12  1  0  0  0  0
  6 13  1  0  0  0  0
  7  8  1  0  0  0  0
  7  9  1  0  0  0  0
  8 14  1  0  0  0  0
  9 15  1  0  0  0  0
 10 11  1  0  0  0  0
 10 14  1  0  0  0  0
 11 15  1  0  0  0  0
 12 18  1  0  0  0  0
 13 18  1  0  0  0  0
  1 19  1  0  0  0  0
  1 20  1  0  0  0  0
  2 21  1  0  0  0  0
  5 22  1  0  0  0  0
  5 23  1  0  0  0  0
  6 24  1  0  0  0  0
  6 25  1  0  0  0  0
  7 26  1  0  0  0  0
  7 27  1  0  0  0  0
  8 28  1  0  0  0  0
  8 29  1  0  0  0  0
  9 30  1  0  0  0  0
  9 31  1  0  0  0  0
 10 32  1  0  0  0  0
 10 33  1  0  0  0  0
 11 34  1  0  0  0  0
 11 35  1  0  0  0  0
 12 36  1  0  0  0  0
 12 37  1  0  0  0  0
 13 38  1  0  0  0  0
M  END
> <Catalog ID>
Z2737383218

> <MW>
252.31

> <MW (desalted)>
252.31

> <ClogP>
0.057

> <logS>
-1.957

> <HBD>
0

> <HBA>
3

> <TPSA>
49.85

> <RotBonds>
2

> <ROCS_ShapeQuery>
A71EV2A-x0451_0A_A71EV2A-x0310_0A_A71EV2A-x0416_0A_peptide

> <ROCS_TanimotoCombo>
0.407 

> <ROCS_ShapeTanimoto>
0.283 

> <ROCS_ColorTanimoto>
0.124 

> <ROCS_RefTversky>
0.256 

> <ROCS_RefColorTversky>
0.137 

> <ROCS_RefTverskyCombo>
0.392 

> <ROCS_FitTversky>
1.594 

> <ROCS_FitColorTversky>
0.571 

> <ROCS_FitTverskyCombo>
2.165 

> <ROCS_ColorScore>
-4.157

> <ROCS_Overlap>
1773.586

> <ROCS_Rank>
488                 

$$$$
untitled-dbase-149_2
  -OEChem-11112315393D

 25 25  0     0  0  0  0  0  0999 V2000
    8.6695    9.5679   24.5018 C   0  0  0  0  0  0  0  0  0  0  0  0
    7.1676   11.4592   24.4364 C   0  0  0  0  0  0  0  0  0  0  0  0
    7.4375   10.1434   24.8125 C   0  0  0  0  0  0  0  0  0  0  0  0
    9.6317   10.3082   23.8150 C   0  0  0  0  0  0  0  0  0  0  0  0
    9.3619   11.6241   23.4389 C   0  0  0  0  0  0  0  0  0  0  0  0
    8.1299   12.1996   23.7496 C   0  0  0  0  0  0  0  0  0  0  0  0
   10.9187   13.5401   23.1779 C   0  0  0  0  0  0  0  0  0  0  0  0
    6.4081    9.3514   25.5461 C   0  0  0  0  0  0  0  0  0  0  0  0
   10.9414    9.6621   23.4973 C   0  0  0  0  0  0  0  0  0  0  0  0
   11.9327   14.0539   22.1824 C   0  0  0  0  0  0  0  0  0  0  0  0
   10.3366   12.3559   22.7496 N   0  0  0  0  0  0  0  0  0  0  0  0
   10.6875   14.1715   24.2055 O   0  0  0  0  0  0  0  0  0  0  0  0
    7.7511   13.8260   23.3038 Cl  0  0  0  0  0  0  0  0  0  0  0  0
   11.0854   15.1183   21.0489 Cl  0  0  0  0  0  0  0  0  0  0  0  0
    8.8787    8.5417   24.7954 H   0  0  0  0  0  0  0  0  0  0  0  0
    6.2044   11.9011   24.6819 H   0  0  0  0  0  0  0  0  0  0  0  0
    6.5260    9.4820   26.6287 H   0  0  0  0  0  0  0  0  0  0  0  0
    5.3930    9.6618   25.2666 H   0  0  0  0  0  0  0  0  0  0  0  0
    6.4886    8.2816   25.3136 H   0  0  0  0  0  0  0  0  0  0  0  0
   10.8917    9.1646   22.5223 H   0  0  0  0  0  0  0  0  0  0  0  0
   11.7512   10.4011   23.4728 H   0  0  0  0  0  0  0  0  0  0  0  0
   11.2097    8.9182   24.2572 H   0  0  0  0  0  0  0  0  0  0  0  0
   12.4167   13.2522   21.6189 H   0  0  0  0  0  0  0  0  0  0  0  0
   12.6998   14.6295   22.7081 H   0  0  0  0  0  0  0  0  0  0  0  0
   10.6453   11.9863   21.8549 H   0  0  0  0  0  0  0  0  0  0  0  0
  1  3  1  0  0  0  0
  1  4  2  0  0  0  0
  2  3  2  0  0  0  0
  2  6  1  0  0  0  0
  3  8  1  0  0  0  0
  4  5  1  0  0  0  0
  4  9  1  0  0  0  0
  5  6  2  0  0  0  0
  5 11  1  0  0  0  0
  6 13  1  0  0  0  0
  7 10  1  0  0  0  0
  7 11  1  0  0  0  0
  7 12  2  0  0  0  0
 10 14  1  0  0  0  0
  1 15  1  0  0  0  0
  2 16  1  0  0  0  0
  8 17  1  0  0  0  0
  8 18  1  0  0  0  0
  8 19  1  0  0  0  0
  9 20  1  0  0  0  0
  9 21  1  0  0  0  0
  9 22  1  0  0  0  0
 10 23  1  0  0  0  0
 10 24  1  0  0  0  0
 11 25  1  0  0  0  0
M  END
> <Catalog ID>
Z56983147

> <MW>
231.022

> <MW (desalted)>
232.106

> <ClogP>
2.243

> <logS>
-3.72

> <HBD>
1

> <HBA>
1

> <TPSA>
29.1

> <RotBonds>
2

> <ROCS_ShapeQuery>
A71EV2A-x0451_0A_A71EV2A-x0310_0A_A71EV2A-x0416_0A_peptide

> <ROCS_TanimotoCombo>
0.406 

> <ROCS_ShapeTanimoto>
0.267 

> <ROCS_ColorTanimoto>
0.140 

> <ROCS_RefTversky>
0.239 

> <ROCS_RefColorTversky>
0.140 

> <ROCS_RefTverskyCombo>
0.379 

> <ROCS_FitTversky>
1.795 

> <ROCS_FitColorTversky>
0.959 

> <ROCS_FitTverskyCombo>
2.754 

> <ROCS_ColorScore>
-4.253

> <ROCS_Overlap>
1651.785

> <ROCS_Rank>
489                 

$$$$
untitled-dbase-935_14
  -OEChem-11112315393D

 19 19  0     0  0  0  0  0  0999 V2000
    9.3276   10.2350   23.2907 C   0  0  0  0  0  0  0  0  0  0  0  0
    8.3592    9.4994   23.9739 C   0  0  0  0  0  0  0  0  0  0  0  0
    8.4659   12.2721   24.2626 C   0  0  0  0  0  0  0  0  0  0  0  0
    9.3810   11.6214   23.4351 C   0  0  0  0  0  0  0  0  0  0  0  0
    7.4441   10.1502   24.8014 C   0  0  0  0  0  0  0  0  0  0  0  0
    7.4975   11.5366   24.9458 C   0  0  0  0  0  0  0  0  0  0  0  0
   10.9226   13.5500   23.1775 C   0  0  0  0  0  0  0  0  0  0  0  0
   11.9386   14.0693   22.1867 C   0  0  0  0  0  0  0  0  0  0  0  0
   10.3502   12.3567   22.7520 N   0  0  0  0  0  0  0  0  0  0  0  0
   10.6792   14.1830   24.2013 O   0  0  0  0  0  0  0  0  0  0  0  0
    6.2666    9.1837   25.6184 Cl  0  0  0  0  0  0  0  0  0  0  0  0
    6.3903   12.4000   25.9546 Cl  0  0  0  0  0  0  0  0  0  0  0  0
   11.4378   13.5411   20.5725 Cl  0  0  0  0  0  0  0  0  0  0  0  0
   10.0369    9.7179   22.6496 H   0  0  0  0  0  0  0  0  0  0  0  0
    8.3334    8.4195   23.8507 H   0  0  0  0  0  0  0  0  0  0  0  0
    8.5117   13.3540   24.3702 H   0  0  0  0  0  0  0  0  0  0  0  0
   12.9481   13.6985   22.3819 H   0  0  0  0  0  0  0  0  0  0  0  0
   11.9514   15.1624   22.2174 H   0  0  0  0  0  0  0  0  0  0  0  0
   10.6678   11.9847   21.8589 H   0  0  0  0  0  0  0  0  0  0  0  0
  1  2  2  0  0  0  0
  1  4  1  0  0  0  0
  2  5  1  0  0  0  0
  3  4  2  0  0  0  0
  3  6  1  0  0  0  0
  4  9  1  0  0  0  0
  5  6  2  0  0  0  0
  5 11  1  0  0  0  0
  6 12  1  0  0  0  0
  7  8  1  0  0  0  0
  7  9  1  0  0  0  0
  7 10  2  0  0  0  0
  8 13  1  0  0  0  0
  1 14  1  0  0  0  0
  2 15  1  0  0  0  0
  3 16  1  0  0  0  0
  8 17  1  0  0  0  0
  8 18  1  0  0  0  0
  9 19  1  0  0  0  0
M  END
> <Catalog ID>
Z56821872

> <MW>
236.951

> <MW (desalted)>
238.498

> <ClogP>
3.428

> <logS>
-3.69

> <HBD>
1

> <HBA>
1

> <TPSA>
29.1

> <RotBonds>
2

> <ROCS_ShapeQuery>
A71EV2A-x0451_0A_A71EV2A-x0310_0A_A71EV2A-x0416_0A_peptide

> <ROCS_TanimotoCombo>
0.406 

> <ROCS_ShapeTanimoto>
0.267 

> <ROCS_ColorTanimoto>
0.140 

> <ROCS_RefTversky>
0.237 

> <ROCS_RefColorTversky>
0.141 

> <ROCS_RefTverskyCombo>
0.378 

> <ROCS_FitTversky>
1.881 

> <ROCS_FitColorTversky>
0.960 

> <ROCS_FitTverskyCombo>
2.841 

> <ROCS_ColorScore>
-4.256

> <ROCS_Overlap>
1640.351

> <ROCS_Rank>
490                 

$$$$
untitled-dbase-595_185
  -OEChem-11112315393D

 28 28  0     1  0  0  0  0  0999 V2000
    9.3622   10.0228   23.4382 C   0  0  0  0  0  0  0  0  0  0  0  0
    8.2315    9.5055   24.0703 C   0  0  0  0  0  0  0  0  0  0  0  0
    8.7004   12.2556   24.0813 C   0  0  0  0  0  0  0  0  0  0  0  0
    9.5967   11.3978   23.4437 C   0  0  0  0  0  0  0  0  0  0  0  0
    7.3352   10.3633   24.7079 C   0  0  0  0  0  0  0  0  0  0  0  0
    7.5697   11.7384   24.7134 C   0  0  0  0  0  0  0  0  0  0  0  0
   10.7897   14.4253   22.9160 C   0  0  0  0  0  0  0  0  0  0  0  0
   12.0307   12.0351   23.6919 C   0  0  0  0  0  0  0  0  0  0  0  0
   10.0362   13.2326   20.8012 C   0  0  0  0  0  0  0  0  0  0  0  0
   11.1755   15.6519   22.1136 C   0  0  0  0  0  0  0  0  0  0  0  0
   10.8237   11.9600   22.7590 C   0  0  2  0  0  0  0  0  0  0  0  0
   10.5494   13.2647   22.1691 N   0  0  0  0  0  0  0  0  0  0  0  0
   10.6979   14.4650   24.1455 O   0  0  0  0  0  0  0  0  0  0  0  0
    6.2491    9.8663   25.3138 F   0  0  0  0  0  0  0  0  0  0  0  0
    6.7099   12.5620   25.3267 F   0  0  0  0  0  0  0  0  0  0  0  0
   12.9337   15.7264   21.8826 Cl  0  0  0  0  0  0  0  0  0  0  0  0
   10.0550    9.3471   22.9436 H   0  0  0  0  0  0  0  0  0  0  0  0
    8.0485    8.4350   24.0665 H   0  0  0  0  0  0  0  0  0  0  0  0
    8.8751   13.3281   24.0924 H   0  0  0  0  0  0  0  0  0  0  0  0
   11.8210   12.6723   24.5579 H   0  0  0  0  0  0  0  0  0  0  0  0
   12.2937   11.0372   24.0605 H   0  0  0  0  0  0  0  0  0  0  0  0
   12.9164   12.4345   23.1851 H   0  0  0  0  0  0  0  0  0  0  0  0
   10.8773   13.2585   20.0928 H   0  0  0  0  0  0  0  0  0  0  0  0
    9.4567   12.3102   20.6487 H   0  0  0  0  0  0  0  0  0  0  0  0
    9.3878   14.1051   20.6325 H   0  0  0  0  0  0  0  0  0  0  0  0
   10.7161   15.6139   21.1227 H   0  0  0  0  0  0  0  0  0  0  0  0
   10.8749   16.5587   22.6444 H   0  0  0  0  0  0  0  0  0  0  0  0
   11.0939   11.3118   21.9162 H   0  0  0  0  0  0  0  0  0  0  0  0
  1  2  2  0  0  0  0
  1  4  1  0  0  0  0
  2  5  1  0  0  0  0
  3  4  2  0  0  0  0
  3  6  1  0  0  0  0
  4 11  1  0  0  0  0
  5  6  2  0  0  0  0
  5 14  1  0  0  0  0
  6 15  1  0  0  0  0
  7 10  1  0  0  0  0
  7 12  1  0  0  0  0
  7 13  2  0  0  0  0
  8 11  1  0  0  0  0
  9 12  1  0  0  0  0
 10 16  1  0  0  0  0
 11 12  1  0  0  0  0
  1 17  1  0  0  0  0
  2 18  1  0  0  0  0
  3 19  1  0  0  0  0
  8 20  1  0  0  0  0
  8 21  1  0  0  0  0
  8 22  1  0  0  0  0
  9 23  1  0  0  0  0
  9 24  1  0  0  0  0
  9 25  1  0  0  0  0
 10 26  1  0  0  0  0
 10 27  1  0  0  0  0
 11 28  1  0  0  0  0
M  END
> <Catalog ID>
Z561155506

> <MW>
247.058

> <MW (desalted)>
247.669

> <ClogP>
2.104

> <logS>
-2.889

> <HBD>
0

> <HBA>
1

> <TPSA>
20.31

> <RotBonds>
3

> <ROCS_ShapeQuery>
A71EV2A-x0451_0A_A71EV2A-x0310_0A_A71EV2A-x0416_0A_peptide

> <ROCS_TanimotoCombo>
0.406 

> <ROCS_ShapeTanimoto>
0.303 

> <ROCS_ColorTanimoto>
0.103 

> <ROCS_RefTversky>
0.267 

> <ROCS_RefColorTversky>
0.104 

> <ROCS_RefTverskyCombo>
0.371 

> <ROCS_FitTversky>
1.825 

> <ROCS_FitColorTversky>
0.902 

> <ROCS_FitTverskyCombo>
2.727 

> <ROCS_ColorScore>
-3.143

> <ROCS_Overlap>
1849.291

> <ROCS_Rank>
491                 

$$$$
untitled-dbase-943_2
  -OEChem-11112315393D

 24 24  0     0  0  0  0  0  0999 V2000
    7.4217   10.1588   24.8201 C   0  0  0  0  0  0  0  0  0  0  0  0
    7.1667   11.4773   24.4433 C   0  0  0  0  0  0  0  0  0  0  0  0
    8.6464    9.5686   24.5076 C   0  0  0  0  0  0  0  0  0  0  0  0
    8.1361   12.2057   23.7540 C   0  0  0  0  0  0  0  0  0  0  0  0
    9.3608   11.6155   23.4414 C   0  0  0  0  0  0  0  0  0  0  0  0
    9.6159   10.2970   23.8183 C   0  0  0  0  0  0  0  0  0  0  0  0
   10.9122   13.5357   23.1793 C   0  0  0  0  0  0  0  0  0  0  0  0
    7.8316   13.6156   23.3622 C   0  0  0  0  0  0  0  0  0  0  0  0
   11.9185   14.0564   22.1795 C   0  0  0  0  0  0  0  0  0  0  0  0
   10.3296   12.3527   22.7490 N   0  0  0  0  0  0  0  0  0  0  0  0
   10.8557    9.6673   23.5135 N   0  3  0  0  0  0  0  0  0  0  0  0
   11.0360    8.4810   23.8744 O   0  5  0  0  0  0  0  0  0  0  0  0
   10.6868   14.1617   24.2115 O   0  0  0  0  0  0  0  0  0  0  0  0
   11.7285   10.3192   22.8942 O   0  0  0  0  0  0  0  0  0  0  0  0
   11.0616   15.1247   21.0570 Cl  0  0  0  0  0  0  0  0  0  0  0  0
    6.6662    9.5914   25.3559 H   0  0  0  0  0  0  0  0  0  0  0  0
    6.2090   11.9277   24.6905 H   0  0  0  0  0  0  0  0  0  0  0  0
    8.8299    8.5395   24.8071 H   0  0  0  0  0  0  0  0  0  0  0  0
    8.1406   14.3044   24.1564 H   0  0  0  0  0  0  0  0  0  0  0  0
    8.3530   13.8902   22.4374 H   0  0  0  0  0  0  0  0  0  0  0  0
    6.7592   13.7515   23.1776 H   0  0  0  0  0  0  0  0  0  0  0  0
   12.4002   13.2583   21.6088 H   0  0  0  0  0  0  0  0  0  0  0  0
   12.6881   14.6308   22.7028 H   0  0  0  0  0  0  0  0  0  0  0  0
   10.6330   11.9882   21.8505 H   0  0  0  0  0  0  0  0  0  0  0  0
  1  2  2  0  0  0  0
  1  3  1  0  0  0  0
  2  4  1  0  0  0  0
  3  6  2  0  0  0  0
  4  5  2  0  0  0  0
  4  8  1  0  0  0  0
  5  6  1  0  0  0  0
  5 10  1  0  0  0  0
  6 11  1  0  0  0  0
  7  9  1  0  0  0  0
  7 10  1  0  0  0  0
  7 13  2  0  0  0  0
  9 15  1  0  0  0  0
 11 12  1  0  0  0  0
 11 14  2  0  0  0  0
  1 16  1  0  0  0  0
  2 17  1  0  0  0  0
  3 18  1  0  0  0  0
  8 19  1  0  0  0  0
  8 20  1  0  0  0  0
  8 21  1  0  0  0  0
  9 22  1  0  0  0  0
  9 23  1  0  0  0  0
 10 24  1  0  0  0  0
M  CHG  2  11   1  12  -1
M  END
> <Catalog ID>
Z57032572

> <MW>
228.03

> <MW (desalted)>
228.632

> <ClogP>
1.458

> <logS>
-3.18

> <HBD>
1

> <HBA>
3

> <TPSA>
72.24

> <RotBonds>
3

> <ROCS_ShapeQuery>
A71EV2A-x0451_0A_A71EV2A-x0310_0A_A71EV2A-x0416_0A_peptide

> <ROCS_TanimotoCombo>
0.406 

> <ROCS_ShapeTanimoto>
0.275 

> <ROCS_ColorTanimoto>
0.131 

> <ROCS_RefTversky>
0.246 

> <ROCS_RefColorTversky>
0.140 

> <ROCS_RefTverskyCombo>
0.387 

> <ROCS_FitTversky>
1.737 

> <ROCS_FitColorTversky>
0.670 

> <ROCS_FitTverskyCombo>
2.407 

> <ROCS_ColorScore>
-4.256

> <ROCS_Overlap>
1707.384

> <ROCS_Rank>
492                 

$$$$
untitled-dbase-370_13
  -OEChem-11112315393D

 22 22  0     0  0  0  0  0  0999 V2000
    7.4637   10.3283   24.9203 C   0  0  0  0  0  0  0  0  0  0  0  0
    7.9170   11.5353   25.2847 C   0  0  0  0  0  0  0  0  0  0  0  0
    8.0528    9.6771   23.7320 C   0  0  0  0  0  0  0  0  0  0  0  0
    9.4416   11.6768   23.5779 C   0  0  0  0  0  0  0  0  0  0  0  0
   10.9526   13.5267   23.1629 C   0  0  0  0  0  0  0  0  0  0  0  0
    7.9203   13.3934   26.6722 C   0  0  0  0  0  0  0  0  0  0  0  0
   12.0443   13.9519   22.2130 C   0  0  0  0  0  0  0  0  0  0  0  0
    8.9052   12.2315   24.6300 N   0  0  0  0  0  0  0  0  0  0  0  0
    9.0385   10.4279   23.1233 N   0  0  0  0  0  0  0  0  0  0  0  0
   10.4289   12.2809   22.8542 N   0  0  0  0  0  0  0  0  0  0  0  0
    7.6725    8.5741   23.3550 O   0  0  0  0  0  0  0  0  0  0  0  0
   10.6068   14.2368   24.1061 O   0  0  0  0  0  0  0  0  0  0  0  0
    7.3575   12.1348   26.3996 O   0  0  0  0  0  0  0  0  0  0  0  0
   11.2863   14.7997   20.8558 Cl  0  0  0  0  0  0  0  0  0  0  0  0
    6.6819    9.8098   25.4622 H   0  0  0  0  0  0  0  0  0  0  0  0
    7.4453   13.8216   27.5583 H   0  0  0  0  0  0  0  0  0  0  0  0
    7.7743   14.0527   25.8128 H   0  0  0  0  0  0  0  0  0  0  0  0
    8.9901   13.2717   26.8579 H   0  0  0  0  0  0  0  0  0  0  0  0
   12.5638   13.0662   21.8371 H   0  0  0  0  0  0  0  0  0  0  0  0
   12.7720   14.6202   22.6801 H   0  0  0  0  0  0  0  0  0  0  0  0
    9.4931   10.0466   22.2990 H   0  0  0  0  0  0  0  0  0  0  0  0
   10.7822   11.7673   22.0520 H   0  0  0  0  0  0  0  0  0  0  0  0
  1  2  2  0  0  0  0
  1  3  1  0  0  0  0
  2  8  1  0  0  0  0
  2 13  1  0  0  0  0
  3  9  1  0  0  0  0
  3 11  2  0  0  0  0
  4  8  2  0  0  0  0
  4  9  1  0  0  0  0
  4 10  1  0  0  0  0
  5  7  1  0  0  0  0
  5 10  1  0  0  0  0
  5 12  2  0  0  0  0
  6 13  1  0  0  0  0
  7 14  1  0  0  0  0
  1 15  1  0  0  0  0
  6 16  1  0  0  0  0
  6 17  1  0  0  0  0
  6 18  1  0  0  0  0
  7 19  1  0  0  0  0
  7 20  1  0  0  0  0
  9 21  1  0  0  0  0
 10 22  1  0  0  0  0
M  END
> <Catalog ID>
Z285925052

> <MW>
217.025

> <MW (desalted)>
217.61

> <ClogP>
0.822

> <logS>
-2.25

> <HBD>
2

> <HBA>
4

> <TPSA>
79.79

> <RotBonds>
3

> <ROCS_ShapeQuery>
A71EV2A-x0451_0A_A71EV2A-x0310_0A_A71EV2A-x0416_0A_peptide

> <ROCS_TanimotoCombo>
0.406 

> <ROCS_ShapeTanimoto>
0.273 

> <ROCS_ColorTanimoto>
0.133 

> <ROCS_RefTversky>
0.244 

> <ROCS_RefColorTversky>
0.149 

> <ROCS_RefTverskyCombo>
0.393 

> <ROCS_FitTversky>
1.785 

> <ROCS_FitColorTversky>
0.550 

> <ROCS_FitTverskyCombo>
2.335 

> <ROCS_ColorScore>
-4.539

> <ROCS_Overlap>
1690.570

> <ROCS_Rank>
493                 

$$$$
untitled-dbase-637_48
  -OEChem-11112315393D

 20 20  0     0  0  0  0  0  0999 V2000
    7.8481   10.6788   25.1871 C   0  0  0  0  0  0  0  0  0  0  0  0
    9.3575   11.4180   23.5311 C   0  0  0  0  0  0  0  0  0  0  0  0
   10.8143   13.3979   23.1839 C   0  0  0  0  0  0  0  0  0  0  0  0
    5.9976   11.6610   26.5645 C   0  0  0  0  0  0  0  0  0  0  0  0
    6.9943   10.5120   26.3800 C   0  0  0  0  0  0  0  0  0  0  0  0
   11.7662   13.9407   22.1433 C   0  0  0  0  0  0  0  0  0  0  0  0
    7.9372    9.8229   24.1914 N   0  0  0  0  0  0  0  0  0  0  0  0
    8.8234   10.2560   23.2205 N   0  0  0  0  0  0  0  0  0  0  0  0
   10.2831   12.1720   22.8045 N   0  0  0  0  0  0  0  0  0  0  0  0
   10.5816   14.0416   24.2034 O   0  0  0  0  0  0  0  0  0  0  0  0
    8.8288   12.0764   25.0239 S   0  0  0  0  0  0  0  0  0  0  0  0
   11.1347   15.5017   21.5956 Cl  0  0  0  0  0  0  0  0  0  0  0  0
    6.5189   12.6230   26.6139 H   0  0  0  0  0  0  0  0  0  0  0  0
    5.4198   11.5409   27.4863 H   0  0  0  0  0  0  0  0  0  0  0  0
    5.2940   11.7029   25.7262 H   0  0  0  0  0  0  0  0  0  0  0  0
    6.4273    9.5621   26.3353 H   0  0  0  0  0  0  0  0  0  0  0  0
    7.6054   10.4291   27.2996 H   0  0  0  0  0  0  0  0  0  0  0  0
   11.8708   13.2796   21.2793 H   0  0  0  0  0  0  0  0  0  0  0  0
   12.7511   14.0916   22.5943 H   0  0  0  0  0  0  0  0  0  0  0  0
   10.5963   11.7878   21.9162 H   0  0  0  0  0  0  0  0  0  0  0  0
  1  5  1  0  0  0  0
  1  7  2  0  0  0  0
  1 11  1  0  0  0  0
  2  8  2  0  0  0  0
  2  9  1  0  0  0  0
  2 11  1  0  0  0  0
  3  6  1  0  0  0  0
  3  9  1  0  0  0  0
  3 10  2  0  0  0  0
  4  5  1  0  0  0  0
  6 12  1  0  0  0  0
  7  8  1  0  0  0  0
  4 13  1  0  0  0  0
  4 14  1  0  0  0  0
  4 15  1  0  0  0  0
  5 16  1  0  0  0  0
  5 17  1  0  0  0  0
  6 18  1  0  0  0  0
  6 19  1  0  0  0  0
  9 20  1  0  0  0  0
M  END
> <Catalog ID>
Z56886349

> <MW>
205.008

> <MW (desalted)>
205.665

> <ClogP>
1.321

> <logS>
-2.35

> <HBD>
1

> <HBA>
3

> <TPSA>
54.88

> <RotBonds>
3

> <ROCS_ShapeQuery>
A71EV2A-x0451_0A_A71EV2A-x0310_0A_A71EV2A-x0416_0A_peptide

> <ROCS_TanimotoCombo>
0.406 

> <ROCS_ShapeTanimoto>
0.240 

> <ROCS_ColorTanimoto>
0.166 

> <ROCS_RefTversky>
0.217 

> <ROCS_RefColorTversky>
0.178 

> <ROCS_RefTverskyCombo>
0.394 

> <ROCS_FitTversky>
1.815 

> <ROCS_FitColorTversky>
0.715 

> <ROCS_FitTverskyCombo>
2.529 

> <ROCS_ColorScore>
-5.407

> <ROCS_Overlap>
1500.470

> <ROCS_Rank>
494                 

$$$$
untitled-dbase-599_69
  -OEChem-11112315393D

 28 29  0     0  0  0  0  0  0999 V2000
    7.7298   12.1321   24.7774 C   0  0  0  0  0  0  0  0  0  0  0  0
    7.2009   10.9013   25.1656 C   0  0  0  0  0  0  0  0  0  0  0  0
    8.8194   12.1800   23.9078 C   0  0  0  0  0  0  0  0  0  0  0  0
    7.7616    9.7182   24.6843 C   0  0  0  0  0  0  0  0  0  0  0  0
    9.3801   10.9970   23.4265 C   0  0  0  0  0  0  0  0  0  0  0  0
    8.8512    9.7661   23.8147 C   0  0  0  0  0  0  0  0  0  0  0  0
   12.5206   11.1968   24.0310 C   0  0  0  0  0  0  0  0  0  0  0  0
   13.4754   11.9943   24.5272 C   0  0  0  0  0  0  0  0  0  0  0  0
   11.9590   13.1175   22.8621 C   0  0  0  0  0  0  0  0  0  0  0  0
   11.9096   15.2603   22.0698 C   0  0  0  0  0  0  0  0  0  0  0  0
   10.5531   11.0918   22.4942 C   0  0  0  0  0  0  0  0  0  0  0  0
   12.3642   15.6365   20.6764 C   0  0  0  0  0  0  0  0  0  0  0  0
   11.3884   13.9821   22.0968 N   0  0  0  0  0  0  0  0  0  0  0  0
   11.6749   11.7792   23.1021 N   0  0  0  0  0  0  0  0  0  0  0  0
   12.0219   16.0159   23.0322 O   0  0  0  0  0  0  0  0  0  0  0  0
   13.3755   13.6008   23.8451 S   0  0  0  0  0  0  0  0  0  0  0  0
    9.5182    8.2816   23.2397 Cl  0  0  0  0  0  0  0  0  0  0  0  0
   14.0641   15.2044   20.4319 Cl  0  0  0  0  0  0  0  0  0  0  0  0
    7.2925   13.0533   25.1517 H   0  0  0  0  0  0  0  0  0  0  0  0
    6.3517   10.8644   25.8417 H   0  0  0  0  0  0  0  0  0  0  0  0
    9.2236   13.1445   23.6113 H   0  0  0  0  0  0  0  0  0  0  0  0
    7.3368    8.7672   24.9955 H   0  0  0  0  0  0  0  0  0  0  0  0
   12.3598   10.1606   24.2917 H   0  0  0  0  0  0  0  0  0  0  0  0
   14.2189   11.7100   25.2574 H   0  0  0  0  0  0  0  0  0  0  0  0
   10.8909   10.0933   22.1959 H   0  0  0  0  0  0  0  0  0  0  0  0
   10.2856   11.6313   21.5796 H   0  0  0  0  0  0  0  0  0  0  0  0
   12.2651   16.7159   20.5324 H   0  0  0  0  0  0  0  0  0  0  0  0
   11.7614   15.1017   19.9374 H   0  0  0  0  0  0  0  0  0  0  0  0
  1  2  1  0  0  0  0
  1  3  2  0  0  0  0
  2  4  2  0  0  0  0
  3  5  1  0  0  0  0
  4  6  1  0  0  0  0
  5  6  2  0  0  0  0
  5 11  1  0  0  0  0
  6 17  1  0  0  0  0
  7  8  2  0  0  0  0
  7 14  1  0  0  0  0
  8 16  1  0  0  0  0
  9 13  2  3  0  0  0
  9 14  1  0  0  0  0
  9 16  1  0  0  0  0
 10 12  1  0  0  0  0
 10 13  1  0  0  0  0
 10 15  2  0  0  0  0
 11 14  1  0  0  0  0
 12 18  1  0  0  0  0
  1 19  1  0  0  0  0
  2 20  1  0  0  0  0
  3 21  1  0  0  0  0
  4 22  1  0  0  0  0
  7 23  1  0  0  0  0
  8 24  1  0  0  0  0
 11 25  1  0  0  0  0
 11 26  1  0  0  0  0
 12 27  1  0  0  0  0
 12 28  1  0  0  0  0
M  END
> <Catalog ID>
Z56957422

> <MW>
299.989

> <MW (desalted)>
301.192

> <ClogP>
4.693

> <logS>
-4.15

> <HBD>
0

> <HBA>
3

> <TPSA>
32.67

> <RotBonds>
3

> <ROCS_ShapeQuery>
A71EV2A-x0451_0A_A71EV2A-x0310_0A_A71EV2A-x0416_0A_peptide

> <ROCS_TanimotoCombo>
0.406 

> <ROCS_ShapeTanimoto>
0.306 

> <ROCS_ColorTanimoto>
0.100 

> <ROCS_RefTversky>
0.271 

> <ROCS_RefColorTversky>
0.107 

> <ROCS_RefTverskyCombo>
0.378 

> <ROCS_FitTversky>
1.719 

> <ROCS_FitColorTversky>
0.604 

> <ROCS_FitTverskyCombo>
2.323 

> <ROCS_ColorScore>
-3.252

> <ROCS_Overlap>
1878.591

> <ROCS_Rank>
495                 

$$$$
untitled-dbase-310_2465
  -OEChem-11112315393D

 39 40  0     0  0  0  0  0  0999 V2000
   10.3673   13.1782   23.4154 C   0  0  0  0  0  0  0  0  0  0  0  0
   12.5126   16.5422   18.5463 C   0  0  0  0  0  0  0  0  0  0  0  0
   11.0057   15.9352   20.4979 C   0  0  0  0  0  0  0  0  0  0  0  0
   12.8820   14.4704   19.8401 C   0  0  0  0  0  0  0  0  0  0  0  0
   11.3643   15.6849   21.9649 C   0  0  0  0  0  0  0  0  0  0  0  0
   13.2017   14.2565   21.3203 C   0  0  0  0  0  0  0  0  0  0  0  0
    9.6477   10.8920   22.8016 C   0  0  0  0  0  0  0  0  0  0  0  0
    8.1466   12.2339   24.2155 C   0  0  0  0  0  0  0  0  0  0  0  0
    9.3613    9.7045   23.7094 C   0  0  0  0  0  0  0  0  0  0  0  0
    7.9184   10.9879   25.0619 C   0  0  0  0  0  0  0  0  0  0  0  0
   11.1245   13.2684   22.1147 C   0  0  0  0  0  0  0  0  0  0  0  0
   11.6191   17.7277   18.2811 C   0  0  0  0  0  0  0  0  0  0  0  0
    9.4363   12.1473   23.5223 N   0  0  0  0  0  0  0  0  0  0  0  0
   12.1641   15.7262   19.6229 N   0  0  0  0  0  0  0  0  0  0  0  0
   12.0398   14.4032   22.2069 N   0  0  0  0  0  0  0  0  0  0  0  0
   10.5942   14.0008   24.3062 O   0  0  0  0  0  0  0  0  0  0  0  0
   13.4918   16.3503   17.8208 O   0  0  0  0  0  0  0  0  0  0  0  0
    8.0461    9.8102   24.2607 O   0  0  0  0  0  0  0  0  0  0  0  0
   12.3121   18.5836   16.9082 Cl  0  0  0  0  0  0  0  0  0  0  0  0
   10.2268   15.2351   20.1692 H   0  0  0  0  0  0  0  0  0  0  0  0
   10.5968   16.9430   20.3955 H   0  0  0  0  0  0  0  0  0  0  0  0
   13.8083   14.4477   19.2554 H   0  0  0  0  0  0  0  0  0  0  0  0
   12.2410   13.6625   19.4640 H   0  0  0  0  0  0  0  0  0  0  0  0
   11.9836   16.5300   22.3379 H   0  0  0  0  0  0  0  0  0  0  0  0
   10.4255   15.7232   22.5556 H   0  0  0  0  0  0  0  0  0  0  0  0
   13.6244   13.2365   21.4329 H   0  0  0  0  0  0  0  0  0  0  0  0
   14.0167   14.9501   21.6233 H   0  0  0  0  0  0  0  0  0  0  0  0
   10.6643   10.8313   22.4021 H   0  0  0  0  0  0  0  0  0  0  0  0
    8.9501   10.8986   21.9558 H   0  0  0  0  0  0  0  0  0  0  0  0
    7.3814   12.3033   23.4335 H   0  0  0  0  0  0  0  0  0  0  0  0
    8.0718   13.1258   24.8397 H   0  0  0  0  0  0  0  0  0  0  0  0
    9.4052    8.7753   23.1326 H   0  0  0  0  0  0  0  0  0  0  0  0
   10.0968    9.6289   24.5193 H   0  0  0  0  0  0  0  0  0  0  0  0
    8.6194   10.9395   25.9037 H   0  0  0  0  0  0  0  0  0  0  0  0
    6.9045   10.9991   25.4742 H   0  0  0  0  0  0  0  0  0  0  0  0
   10.4166   13.4160   21.2954 H   0  0  0  0  0  0  0  0  0  0  0  0
   11.6816   12.3416   21.9570 H   0  0  0  0  0  0  0  0  0  0  0  0
   11.6159   18.3680   19.1559 H   0  0  0  0  0  0  0  0  0  0  0  0
   10.6257   17.3708   18.0346 H   0  0  0  0  0  0  0  0  0  0  0  0
  1 11  1  0  0  0  0
  1 13  1  0  0  0  0
  1 16  2  0  0  0  0
  2 12  1  0  0  0  0
  2 14  1  0  0  0  0
  2 17  2  0  0  0  0
  3  5  1  0  0  0  0
  3 14  1  0  0  0  0
  4  6  1  0  0  0  0
  4 14  1  0  0  0  0
  5 15  1  0  0  0  0
  6 15  1  0  0  0  0
  7  9  1  0  0  0  0
  7 13  1  0  0  0  0
  8 10  1  0  0  0  0
  8 13  1  0  0  0  0
  9 18  1  0  0  0  0
 10 18  1  0  0  0  0
 11 15  1  0  0  0  0
 12 19  1  0  0  0  0
  3 20  1  0  0  0  0
  3 21  1  0  0  0  0
  4 22  1  0  0  0  0
  4 23  1  0  0  0  0
  5 24  1  0  0  0  0
  5 25  1  0  0  0  0
  6 26  1  0  0  0  0
  6 27  1  0  0  0  0
  7 28  1  0  0  0  0
  7 29  1  0  0  0  0
  8 30  1  0  0  0  0
  8 31  1  0  0  0  0
  9 32  1  0  0  0  0
  9 33  1  0  0  0  0
 10 34  1  0  0  0  0
 10 35  1  0  0  0  0
 11 36  1  0  0  0  0
 11 37  1  0  0  0  0
 12 38  1  0  0  0  0
 12 39  1  0  0  0  0
M  END
> <Catalog ID>
Z104442668

> <MW>
325.096

> <MW (desalted)>
289.759

> <ClogP>
0.116

> <logS>
-1.5

> <HBD>
0

> <HBA>
4

> <TPSA>
53.09

> <RotBonds>
3

> <ROCS_ShapeQuery>
A71EV2A-x0451_0A_A71EV2A-x0310_0A_A71EV2A-x0416_0A_peptide

> <ROCS_TanimotoCombo>
0.406 

> <ROCS_ShapeTanimoto>
0.275 

> <ROCS_ColorTanimoto>
0.131 

> <ROCS_RefTversky>
0.251 

> <ROCS_RefColorTversky>
0.144 

> <ROCS_RefTverskyCombo>
0.395 

> <ROCS_FitTversky>
1.526 

> <ROCS_FitColorTversky>
0.600 

> <ROCS_FitTverskyCombo>
2.126 

> <ROCS_ColorScore>
-4.373

> <ROCS_Overlap>
1739.922

> <ROCS_Rank>
496                 

$$$$
untitled-dbase-762_0
  -OEChem-11112315393D

 31 31  0     0  0  0  0  0  0999 V2000
    7.4257   10.1543   24.8208 C   0  0  0  0  0  0  0  0  0  0  0  0
    7.1658   11.4719   24.4442 C   0  0  0  0  0  0  0  0  0  0  0  0
    8.6525    9.5686   24.5081 C   0  0  0  0  0  0  0  0  0  0  0  0
    8.1326   12.2040   23.7550 C   0  0  0  0  0  0  0  0  0  0  0  0
    9.6193   10.3006   23.8188 C   0  0  0  0  0  0  0  0  0  0  0  0
    9.3594   11.6183   23.4423 C   0  0  0  0  0  0  0  0  0  0  0  0
   10.9133   13.5363   23.1786 C   0  0  0  0  0  0  0  0  0  0  0  0
    7.8247   13.6135   23.3650 C   0  0  0  0  0  0  0  0  0  0  0  0
   10.7558    8.4269   22.5734 C   0  0  0  0  0  0  0  0  0  0  0  0
   11.7019    9.2405   24.7638 C   0  0  0  0  0  0  0  0  0  0  0  0
   11.9217   14.0538   22.1793 C   0  0  0  0  0  0  0  0  0  0  0  0
   10.9238    9.6453   23.4989 C   0  0  0  0  0  0  0  0  0  0  0  0
   10.3292   12.3524   22.7506 N   0  0  0  0  0  0  0  0  0  0  0  0
   10.6868   14.1647   24.2091 O   0  0  0  0  0  0  0  0  0  0  0  0
   11.0677   15.1207   21.0533 Cl  0  0  0  0  0  0  0  0  0  0  0  0
    6.6731    9.5842   25.3577 H   0  0  0  0  0  0  0  0  0  0  0  0
    6.2067   11.9190   24.6921 H   0  0  0  0  0  0  0  0  0  0  0  0
    8.8451    8.5415   24.8066 H   0  0  0  0  0  0  0  0  0  0  0  0
    8.1326   14.3023   24.1597 H   0  0  0  0  0  0  0  0  0  0  0  0
    8.3448   13.8904   22.4402 H   0  0  0  0  0  0  0  0  0  0  0  0
    6.7518   13.7474   23.1813 H   0  0  0  0  0  0  0  0  0  0  0  0
   10.1212    7.6585   23.0282 H   0  0  0  0  0  0  0  0  0  0  0  0
   11.7221    7.9655   22.3421 H   0  0  0  0  0  0  0  0  0  0  0  0
   10.2918    8.7256   21.6267 H   0  0  0  0  0  0  0  0  0  0  0  0
   11.1190    8.5313   25.3621 H   0  0  0  0  0  0  0  0  0  0  0  0
   11.9198   10.1101   25.3933 H   0  0  0  0  0  0  0  0  0  0  0  0
   12.6561    8.7629   24.5156 H   0  0  0  0  0  0  0  0  0  0  0  0
   12.4034   13.2541   21.6111 H   0  0  0  0  0  0  0  0  0  0  0  0
   12.6911   14.6285   22.7027 H   0  0  0  0  0  0  0  0  0  0  0  0
   11.5734   10.3555   22.9547 H   0  0  0  0  0  0  0  0  0  0  0  0
   10.6336   11.9851   21.8529 H   0  0  0  0  0  0  0  0  0  0  0  0
  1  2  1  0  0  0  0
  1  3  2  0  0  0  0
  2  4  2  0  0  0  0
  3  5  1  0  0  0  0
  4  6  1  0  0  0  0
  4  8  1  0  0  0  0
  5  6  2  0  0  0  0
  5 12  1  0  0  0  0
  6 13  1  0  0  0  0
  7 11  1  0  0  0  0
  7 13  1  0  0  0  0
  7 14  2  0  0  0  0
  9 12  1  0  0  0  0
 10 12  1  0  0  0  0
 11 15  1  0  0  0  0
  1 16  1  0  0  0  0
  2 17  1  0  0  0  0
  3 18  1  0  0  0  0
  8 19  1  0  0  0  0
  8 20  1  0  0  0  0
  8 21  1  0  0  0  0
  9 22  1  0  0  0  0
  9 23  1  0  0  0  0
  9 24  1  0  0  0  0
 10 25  1  0  0  0  0
 10 26  1  0  0  0  0
 10 27  1  0  0  0  0
 11 28  1  0  0  0  0
 11 29  1  0  0  0  0
 12 30  1  0  0  0  0
 13 31  1  0  0  0  0
M  END
> <Catalog ID>
Z56869435

> <MW>
225.092

> <MW (desalted)>
225.715

> <ClogP>
2.15

> <logS>
-3.7

> <HBD>
1

> <HBA>
1

> <TPSA>
29.1

> <RotBonds>
3

> <ROCS_ShapeQuery>
A71EV2A-x0451_0A_A71EV2A-x0310_0A_A71EV2A-x0416_0A_peptide

> <ROCS_TanimotoCombo>
0.406 

> <ROCS_ShapeTanimoto>
0.270 

> <ROCS_ColorTanimoto>
0.135 

> <ROCS_RefTversky>
0.242 

> <ROCS_RefColorTversky>
0.140 

> <ROCS_RefTverskyCombo>
0.383 

> <ROCS_FitTversky>
1.744 

> <ROCS_FitColorTversky>
0.790 

> <ROCS_FitTverskyCombo>
2.534 

> <ROCS_ColorScore>
-4.255

> <ROCS_Overlap>
1679.587

> <ROCS_Rank>
497                 

$$$$
untitled-dbase-269_7
  -OEChem-11112315393D

 22 22  0     0  0  0  0  0  0999 V2000
    7.4973   11.5804   24.9487 C   0  0  0  0  0  0  0  0  0  0  0  0
    8.4779   12.2876   24.2531 C   0  0  0  0  0  0  0  0  0  0  0  0
    8.3216    9.5129   24.0088 C   0  0  0  0  0  0  0  0  0  0  0  0
    7.4192   10.1930   24.8266 C   0  0  0  0  0  0  0  0  0  0  0  0
    9.3803   11.6075   23.4353 C   0  0  0  0  0  0  0  0  0  0  0  0
    9.3022   10.2202   23.3131 C   0  0  0  0  0  0  0  0  0  0  0  0
   10.9195   13.5387   23.1816 C   0  0  0  0  0  0  0  0  0  0  0  0
    6.3704    9.4375   25.5704 C   0  0  0  0  0  0  0  0  0  0  0  0
   11.9364   14.0602   22.1929 C   0  0  0  0  0  0  0  0  0  0  0  0
   10.3516   12.3463   22.7530 N   0  0  0  0  0  0  0  0  0  0  0  0
   10.6733   14.1706   24.2054 O   0  0  0  0  0  0  0  0  0  0  0  0
   10.3994    9.3387   22.3110 Cl  0  0  0  0  0  0  0  0  0  0  0  0
   11.4391   13.5323   20.5775 Cl  0  0  0  0  0  0  0  0  0  0  0  0
    6.7986   12.1188   25.5834 H   0  0  0  0  0  0  0  0  0  0  0  0
    8.5285   13.3686   24.3572 H   0  0  0  0  0  0  0  0  0  0  0  0
    8.2541    8.4309   23.9183 H   0  0  0  0  0  0  0  0  0  0  0  0
    5.4603    9.3502   24.9643 H   0  0  0  0  0  0  0  0  0  0  0  0
    6.7144    8.4276   25.8289 H   0  0  0  0  0  0  0  0  0  0  0  0
    6.1135    9.9366   26.5140 H   0  0  0  0  0  0  0  0  0  0  0  0
   12.9460   13.6908   22.3896 H   0  0  0  0  0  0  0  0  0  0  0  0
   11.9474   15.1533   22.2243 H   0  0  0  0  0  0  0  0  0  0  0  0
   10.6714   11.9766   21.8611 H   0  0  0  0  0  0  0  0  0  0  0  0
  1  2  2  0  0  0  0
  1  4  1  0  0  0  0
  2  5  1  0  0  0  0
  3  4  2  0  0  0  0
  3  6  1  0  0  0  0
  4  8  1  0  0  0  0
  5  6  2  0  0  0  0
  5 10  1  0  0  0  0
  6 12  1  0  0  0  0
  7  9  1  0  0  0  0
  7 10  1  0  0  0  0
  7 11  2  0  0  0  0
  9 13  1  0  0  0  0
  1 14  1  0  0  0  0
  2 15  1  0  0  0  0
  3 16  1  0  0  0  0
  8 17  1  0  0  0  0
  8 18  1  0  0  0  0
  8 19  1  0  0  0  0
  9 20  1  0  0  0  0
  9 21  1  0  0  0  0
 10 22  1  0  0  0  0
M  END
> <Catalog ID>
Z56896249

> <MW>
217.006

> <MW (desalted)>
218.08

> <ClogP>
2.394

> <logS>
-3.45

> <HBD>
1

> <HBA>
1

> <TPSA>
29.1

> <RotBonds>
2

> <ROCS_ShapeQuery>
A71EV2A-x0451_0A_A71EV2A-x0310_0A_A71EV2A-x0416_0A_peptide

> <ROCS_TanimotoCombo>
0.406 

> <ROCS_ShapeTanimoto>
0.266 

> <ROCS_ColorTanimoto>
0.140 

> <ROCS_RefTversky>
0.236 

> <ROCS_RefColorTversky>
0.141 

> <ROCS_RefTverskyCombo>
0.377 

> <ROCS_FitTversky>
1.863 

> <ROCS_FitColorTversky>
0.962 

> <ROCS_FitTverskyCombo>
2.824 

> <ROCS_ColorScore>
-4.266

> <ROCS_Overlap>
1636.870

> <ROCS_Rank>
498                 

$$$$
untitled-dbase-305_417
  -OEChem-11112315393D

 40 40  0     0  0  0  0  0  0999 V2000
    5.4516   12.5585   27.0266 C   0  0  0  0  0  0  0  0  0  0  0  0
    5.6167   11.4933   26.2396 C   0  0  0  0  0  0  0  0  0  0  0  0
    6.8942   10.7552   26.2971 C   0  0  0  0  0  0  0  0  0  0  0  0
   10.9518   13.5230   23.2140 C   0  0  0  0  0  0  0  0  0  0  0  0
    8.1793   12.2302   23.2884 C   0  0  0  0  0  0  0  0  0  0  0  0
    9.9906   10.8485   24.3495 C   0  0  0  0  0  0  0  0  0  0  0  0
    7.1408   11.2973   23.9059 C   0  0  0  0  0  0  0  0  0  0  0  0
    8.9199    9.9467   24.9670 C   0  0  0  0  0  0  0  0  0  0  0  0
    9.4982   11.4882   23.0471 C   0  0  0  0  0  0  0  0  0  0  0  0
   11.3989   16.3358   23.4091 C   0  0  0  0  0  0  0  0  0  0  0  0
   12.7440   16.0806   21.3032 C   0  0  0  0  0  0  0  0  0  0  0  0
   10.2915   15.5387   21.2941 C   0  0  0  0  0  0  0  0  0  0  0  0
   11.5764   15.5330   22.1211 C   0  0  0  0  0  0  0  0  0  0  0  0
    7.6469   10.6661   25.1283 N   0  0  0  0  0  0  0  0  0  0  0  0
   10.5053   12.4111   22.5292 N   0  0  0  0  0  0  0  0  0  0  0  0
    7.2194   10.2650   27.3799 O   0  0  0  0  0  0  0  0  0  0  0  0
   10.5723   13.8790   24.3248 O   0  0  0  0  0  0  0  0  0  0  0  0
   11.8896   14.1792   22.4675 O   0  0  0  0  0  0  0  0  0  0  0  0
    4.5362   13.1408   27.0292 H   0  0  0  0  0  0  0  0  0  0  0  0
    6.2475   12.8701   27.6947 H   0  0  0  0  0  0  0  0  0  0  0  0
    4.8463   11.1516   25.5607 H   0  0  0  0  0  0  0  0  0  0  0  0
    7.7915   12.6235   22.3411 H   0  0  0  0  0  0  0  0  0  0  0  0
    8.3397   13.0875   23.9549 H   0  0  0  0  0  0  0  0  0  0  0  0
   10.2653   11.6272   25.0730 H   0  0  0  0  0  0  0  0  0  0  0  0
   10.8920   10.2538   24.1573 H   0  0  0  0  0  0  0  0  0  0  0  0
    6.2187   11.8527   24.1050 H   0  0  0  0  0  0  0  0  0  0  0  0
    6.8883   10.4910   23.2064 H   0  0  0  0  0  0  0  0  0  0  0  0
    8.7243    9.0842   24.3194 H   0  0  0  0  0  0  0  0  0  0  0  0
    9.2994    9.5688   25.9169 H   0  0  0  0  0  0  0  0  0  0  0  0
    9.3643   10.7264   22.2844 H   0  0  0  0  0  0  0  0  0  0  0  0
   10.5617   15.9459   23.9991 H   0  0  0  0  0  0  0  0  0  0  0  0
   12.3019   16.3106   24.0278 H   0  0  0  0  0  0  0  0  0  0  0  0
   11.1601   17.3823   23.1878 H   0  0  0  0  0  0  0  0  0  0  0  0
   12.8750   15.5075   20.3781 H   0  0  0  0  0  0  0  0  0  0  0  0
   13.6851   15.9908   21.8577 H   0  0  0  0  0  0  0  0  0  0  0  0
   12.5951   17.1330   21.0409 H   0  0  0  0  0  0  0  0  0  0  0  0
   10.4186   14.9630   20.3702 H   0  0  0  0  0  0  0  0  0  0  0  0
    9.4506   15.1150   21.8525 H   0  0  0  0  0  0  0  0  0  0  0  0
   10.0288   16.5583   20.9895 H   0  0  0  0  0  0  0  0  0  0  0  0
   10.8999   12.2234   21.6117 H   0  0  0  0  0  0  0  0  0  0  0  0
  1  2  2  0  0  0  0
  2  3  1  0  0  0  0
  3 14  1  0  0  0  0
  3 16  2  0  0  0  0
  4 15  1  0  0  0  0
  4 17  2  0  0  0  0
  4 18  1  0  0  0  0
  5  7  1  0  0  0  0
  5  9  1  0  0  0  0
  6  8  1  0  0  0  0
  6  9  1  0  0  0  0
  7 14  1  0  0  0  0
  8 14  1  0  0  0  0
  9 15  1  0  0  0  0
 10 13  1  0  0  0  0
 11 13  1  0  0  0  0
 12 13  1  0  0  0  0
 13 18  1  0  0  0  0
  1 19  1  0  0  0  0
  1 20  1  0  0  0  0
  2 21  1  0  0  0  0
  5 22  1  0  0  0  0
  5 23  1  0  0  0  0
  6 24  1  0  0  0  0
  6 25  1  0  0  0  0
  7 26  1  0  0  0  0
  7 27  1  0  0  0  0
  8 28  1  0  0  0  0
  8 29  1  0  0  0  0
  9 30  1  0  0  0  0
 10 31  1  0  0  0  0
 10 32  1  0  0  0  0
 10 33  1  0  0  0  0
 11 34  1  0  0  0  0
 11 35  1  0  0  0  0
 11 36  1  0  0  0  0
 12 37  1  0  0  0  0
 12 38  1  0  0  0  0
 12 39  1  0  0  0  0
 15 40  1  0  0  0  0
M  END
> <Catalog ID>
Z815262404

> <MW>
254.163

> <MW (desalted)>
254.325

> <ClogP>
0.782

> <logS>
-2.35

> <HBD>
1

> <HBA>
2

> <TPSA>
58.64

> <RotBonds>
4

> <ROCS_ShapeQuery>
A71EV2A-x0451_0A_A71EV2A-x0310_0A_A71EV2A-x0416_0A_peptide

> <ROCS_TanimotoCombo>
0.405 

> <ROCS_ShapeTanimoto>
0.276 

> <ROCS_ColorTanimoto>
0.129 

> <ROCS_RefTversky>
0.250 

> <ROCS_RefColorTversky>
0.142 

> <ROCS_RefTverskyCombo>
0.392 

> <ROCS_FitTversky>
1.588 

> <ROCS_FitColorTversky>
0.593 

> <ROCS_FitTverskyCombo>
2.181 

> <ROCS_ColorScore>
-4.320

> <ROCS_Overlap>
1736.767

> <ROCS_Rank>
499                 

$$$$
untitled-dbase-293_1444
  -OEChem-11112315393D

 34 35  0     0  0  0  0  0  0999 V2000
    8.7130    9.7587   23.4042 C   0  0  0  0  0  0  0  0  0  0  0  0
    7.6821   10.0083   24.3101 C   0  0  0  0  0  0  0  0  0  0  0  0
    9.6459   10.7551   23.1173 C   0  0  0  0  0  0  0  0  0  0  0  0
    7.5841   11.2545   24.9290 C   0  0  0  0  0  0  0  0  0  0  0  0
    9.5479   12.0013   23.7362 C   0  0  0  0  0  0  0  0  0  0  0  0
    8.5170   12.2510   24.6421 C   0  0  0  0  0  0  0  0  0  0  0  0
   15.4578   12.1906   26.6046 C   0  0  0  0  0  0  0  0  0  0  0  0
   13.1593   11.4558   26.0549 C   0  0  0  0  0  0  0  0  0  0  0  0
   14.5825   12.2747   24.2175 C   0  0  0  0  0  0  0  0  0  0  0  0
   12.0156   12.3404   25.5716 C   0  0  0  0  0  0  0  0  0  0  0  0
   13.4417   13.1604   23.7256 C   0  0  0  0  0  0  0  0  0  0  0  0
   15.4694   11.2271   27.7644 C   0  0  0  0  0  0  0  0  0  0  0  0
   14.4529   12.0119   25.6555 N   0  0  0  0  0  0  0  0  0  0  0  0
   12.1336   12.5399   24.0955 N   0  0  0  0  0  0  0  0  0  0  0  0
   16.3180   13.0728   26.5443 O   0  0  0  0  0  0  0  0  0  0  0  0
   10.9515   13.2010   21.9021 O   0  0  0  0  0  0  0  0  0  0  0  0
   10.4015   14.4455   24.0225 O   0  0  0  0  0  0  0  0  0  0  0  0
   10.7579   13.2227   23.3358 S   0  0  0  0  0  0  0  0  0  0  0  0
    8.3506   13.7761   25.4352 Cl  0  0  0  0  0  0  0  0  0  0  0  0
   14.4963   11.9576   29.0361 Cl  0  0  0  0  0  0  0  0  0  0  0  0
    8.7897    8.7881   22.9230 H   0  0  0  0  0  0  0  0  0  0  0  0
    6.9561    9.2322   24.5338 H   0  0  0  0  0  0  0  0  0  0  0  0
   10.4443   10.5467   22.4100 H   0  0  0  0  0  0  0  0  0  0  0  0
    6.7745   11.4320   25.6325 H   0  0  0  0  0  0  0  0  0  0  0  0
   13.1616   11.4006   27.1514 H   0  0  0  0  0  0  0  0  0  0  0  0
   13.0147   10.4396   25.6807 H   0  0  0  0  0  0  0  0  0  0  0  0
   14.6000   11.3404   23.6502 H   0  0  0  0  0  0  0  0  0  0  0  0
   15.5471   12.7728   24.0693 H   0  0  0  0  0  0  0  0  0  0  0  0
   11.0466   11.8877   25.8092 H   0  0  0  0  0  0  0  0  0  0  0  0
   12.0792   13.3116   26.0734 H   0  0  0  0  0  0  0  0  0  0  0  0
   13.5237   14.1439   24.2019 H   0  0  0  0  0  0  0  0  0  0  0  0
   13.4952   13.2956   22.6388 H   0  0  0  0  0  0  0  0  0  0  0  0
   16.4907   11.0987   28.1045 H   0  0  0  0  0  0  0  0  0  0  0  0
   15.0255   10.2903   27.4474 H   0  0  0  0  0  0  0  0  0  0  0  0
  1  2  1  0  0  0  0
  1  3  2  0  0  0  0
  2  4  2  0  0  0  0
  3  5  1  0  0  0  0
  4  6  1  0  0  0  0
  5  6  2  0  0  0  0
  5 18  1  0  0  0  0
  6 19  1  0  0  0  0
  7 12  1  0  0  0  0
  7 13  1  0  0  0  0
  7 15  2  0  0  0  0
  8 10  1  0  0  0  0
  8 13  1  0  0  0  0
  9 11  1  0  0  0  0
  9 13  1  0  0  0  0
 10 14  1  0  0  0  0
 11 14  1  0  0  0  0
 12 20  1  0  0  0  0
 14 18  1  0  0  0  0
 16 18  2  0  0  0  0
 17 18  2  0  0  0  0
  1 21  1  0  0  0  0
  2 22  1  0  0  0  0
  3 23  1  0  0  0  0
  4 24  1  0  0  0  0
  8 25  1  0  0  0  0
  8 26  1  0  0  0  0
  9 27  1  0  0  0  0
  9 28  1  0  0  0  0
 10 29  1  0  0  0  0
 10 30  1  0  0  0  0
 11 31  1  0  0  0  0
 11 32  1  0  0  0  0
 12 33  1  0  0  0  0
 12 34  1  0  0  0  0
M  END
> <Catalog ID>
Z147647808

> <MW>
336.01

> <MW (desalted)>
337.222

> <ClogP>
1.89

> <logS>
-3.51

> <HBD>
0

> <HBA>
3

> <TPSA>
57.69

> <RotBonds>
2

> <ROCS_ShapeQuery>
A71EV2A-x0451_0A_A71EV2A-x0310_0A_A71EV2A-x0416_0A_peptide

> <ROCS_TanimotoCombo>
0.405 

> <ROCS_ShapeTanimoto>
0.282 

> <ROCS_ColorTanimoto>
0.123 

> <ROCS_RefTversky>
0.257 

> <ROCS_RefColorTversky>
0.133 

> <ROCS_RefTverskyCombo>
0.390 

> <ROCS_FitTversky>
1.534 

> <ROCS_FitColorTversky>
0.635 

> <ROCS_FitTverskyCombo>
2.169 

> <ROCS_ColorScore>
-4.026

> <ROCS_Overlap>
1783.359

> <ROCS_Rank>
500                 

$$$$
