Compound 37_0
  -OEChem-11132309573D

 15 15  0     0  0  0  0  0  0999 V2000
    9.9870   13.1717   24.2157 C   0  0  0  0  0  0  0  0  0  0  0  0
    7.3387   10.8328   24.7626 C   0  0  0  0  0  0  0  0  0  0  0  0
    7.7142    9.7406   24.0011 C   0  0  0  0  0  0  0  0  0  0  0  0
    9.6349   10.9046   23.3485 C   0  0  0  0  0  0  0  0  0  0  0  0
    9.2220   11.9741   24.1227 C   0  0  0  0  0  0  0  0  0  0  0  0
    9.2763    8.6706   22.5017 C   0  0  0  0  0  0  0  0  0  0  0  0
   10.6104   14.1476   24.2916 N   0  0  0  0  0  0  0  0  0  0  0  0
    8.0775   11.9598   24.8380 N   0  0  0  0  0  0  0  0  0  0  0  0
    8.8612    9.8107   23.3112 N   0  3  0  0  0  0  0  0  0  0  0  0
    6.4216   10.8304   25.3400 H   0  0  0  0  0  0  0  0  0  0  0  0
    7.1365    8.8291   23.9276 H   0  0  0  0  0  0  0  0  0  0  0  0
   10.5463   10.8861   22.7647 H   0  0  0  0  0  0  0  0  0  0  0  0
    8.8657    8.7833   21.4946 H   0  0  0  0  0  0  0  0  0  0  0  0
   10.3673    8.6186   22.4464 H   0  0  0  0  0  0  0  0  0  0  0  0
    8.9042    7.7451   22.9503 H   0  0  0  0  0  0  0  0  0  0  0  0
  1  5  1  0  0  0  0
  1  7  3  0  0  0  0
  2  3  2  0  0  0  0
  2  8  1  0  0  0  0
  3  9  1  0  0  0  0
  4  5  1  0  0  0  0
  4  9  2  0  0  0  0
  5  8  2  0  0  0  0
  6  9  1  0  0  0  0
  2 10  1  0  0  0  0
  3 11  1  0  0  0  0
  4 12  1  0  0  0  0
  6 13  1  0  0  0  0
  6 14  1  0  0  0  0
  6 15  1  0  0  0  0
M  CHG  1   9   1
M  END
> <Structure No>
39

> <Catalog ID>
Z4605084889

> <MW>
269.201

> <MW (desalted)>
120.132

> <ClogP>
-5.605

> <HBD>
0

> <HBA>
2

> <TPSA>
40.56

> <RotBonds>
1

> <logS>

> <ROCS_ShapeQuery>
A71EV2A-x0451_0A_A71EV2A-x0310_0A_A71EV2A-x0416_0A_peptide

> <ROCS_TanimotoCombo>
0.307 

> <ROCS_ShapeTanimoto>
0.197 

> <ROCS_ColorTanimoto>
0.110 

> <ROCS_RefTversky>
0.182 

> <ROCS_RefColorTversky>
0.114 

> <ROCS_RefTverskyCombo>
0.296 

> <ROCS_FitTversky>
1.708 

> <ROCS_FitColorTversky>
0.776 

> <ROCS_FitTverskyCombo>
2.484 

> <ROCS_ColorScore>
-3.443

> <ROCS_Overlap>
1260.732

> <ROCS_Rank>
1                   

$$$$
Compound 38_0
  -OEChem-11132309573D

 17 17  0     0  0  0  0  0  0999 V2000
   10.0093   13.1595   24.1933 C   0  0  0  0  0  0  0  0  0  0  0  0
    9.6344   10.7918   23.5339 C   0  0  0  0  0  0  0  0  0  0  0  0
    7.5717   10.5161   24.2886 C   0  0  0  0  0  0  0  0  0  0  0  0
    9.2330   11.9674   24.1030 C   0  0  0  0  0  0  0  0  0  0  0  0
    8.5758    8.5407   23.1985 C   0  0  0  0  0  0  0  0  0  0  0  0
    7.1266   12.7481   25.2384 C   0  0  0  0  0  0  0  0  0  0  0  0
   10.6413   14.1300   24.2667 N   0  0  0  0  0  0  0  0  0  0  0  0
    8.5872    9.9117   23.6633 N   0  0  0  0  0  0  0  0  0  0  0  0
    7.9530   11.7682   24.5614 N   0  3  0  0  0  0  0  0  0  0  0  0
   10.5268   10.4458   23.0478 H   0  0  0  0  0  0  0  0  0  0  0  0
    6.6183   10.0732   24.5295 H   0  0  0  0  0  0  0  0  0  0  0  0
    8.9504    7.9073   24.0069 H   0  0  0  0  0  0  0  0  0  0  0  0
    7.5546    8.2554   22.9310 H   0  0  0  0  0  0  0  0  0  0  0  0
    9.2149    8.4533   22.3154 H   0  0  0  0  0  0  0  0  0  0  0  0
    7.3005   12.6743   26.3154 H   0  0  0  0  0  0  0  0  0  0  0  0
    7.3746   13.7573   24.8978 H   0  0  0  0  0  0  0  0  0  0  0  0
    6.0723   12.5546   25.0208 H   0  0  0  0  0  0  0  0  0  0  0  0
  1  4  1  0  0  0  0
  1  7  3  0  0  0  0
  2  4  2  0  0  0  0
  2  8  1  0  0  0  0
  3  8  1  0  0  0  0
  3  9  2  0  0  0  0
  4  9  1  0  0  0  0
  5  8  1  0  0  0  0
  6  9  1  0  0  0  0
  2 10  1  0  0  0  0
  3 11  1  0  0  0  0
  5 12  1  0  0  0  0
  5 13  1  0  0  0  0
  5 14  1  0  0  0  0
  6 15  1  0  0  0  0
  6 16  1  0  0  0  0
  6 17  1  0  0  0  0
M  CHG  1   9   1
M  END
> <Structure No>
41

> <Catalog ID>
Z4605084911

> <MW>
249.052

> <MW (desalted)>
122.148

> <ClogP>
-4.378

> <HBD>
0

> <HBA>
1

> <TPSA>
32.6

> <RotBonds>
0

> <logS>

> <ROCS_ShapeQuery>
A71EV2A-x0451_0A_A71EV2A-x0310_0A_A71EV2A-x0416_0A_peptide

> <ROCS_TanimotoCombo>
0.307 

> <ROCS_ShapeTanimoto>
0.199 

> <ROCS_ColorTanimoto>
0.108 

> <ROCS_RefTversky>
0.184 

> <ROCS_RefColorTversky>
0.111 

> <ROCS_RefTverskyCombo>
0.295 

> <ROCS_FitTversky>
1.724 

> <ROCS_FitColorTversky>
0.760 

> <ROCS_FitTverskyCombo>
2.483 

> <ROCS_ColorScore>
-3.369

> <ROCS_Overlap>
1272.879

> <ROCS_Rank>
2                   

$$$$
Compound 47_0
  -OEChem-11132309573D

 16 16  0     0  0  0  0  0  0999 V2000
   10.0405   13.2796   24.1776 C   0  0  0  0  0  0  0  0  0  0  0  0
    9.0153    9.7968   23.4371 C   0  0  0  0  0  0  0  0  0  0  0  0
    7.7465    9.7855   24.0084 C   0  0  0  0  0  0  0  0  0  0  0  0
    9.7882   10.9530   23.4871 C   0  0  0  0  0  0  0  0  0  0  0  0
    7.2787   10.9398   24.6201 C   0  0  0  0  0  0  0  0  0  0  0  0
    9.2686   12.0778   24.1119 C   0  0  0  0  0  0  0  0  0  0  0  0
    7.4880   13.2231   25.3161 C   0  0  0  0  0  0  0  0  0  0  0  0
   10.6671   14.2549   24.2309 N   0  0  0  0  0  0  0  0  0  0  0  0
    8.0438   12.0394   24.6540 N   0  3  0  0  0  0  0  0  0  0  0  0
    9.4014    8.9046   22.9531 H   0  0  0  0  0  0  0  0  0  0  0  0
    7.1342    8.8907   23.9760 H   0  0  0  0  0  0  0  0  0  0  0  0
   10.7780   10.9585   23.0401 H   0  0  0  0  0  0  0  0  0  0  0  0
    6.3016   11.0007   25.0842 H   0  0  0  0  0  0  0  0  0  0  0  0
    7.7613   13.1978   26.3745 H   0  0  0  0  0  0  0  0  0  0  0  0
    7.8818   14.1358   24.8601 H   0  0  0  0  0  0  0  0  0  0  0  0
    6.3988   13.2240   25.2163 H   0  0  0  0  0  0  0  0  0  0  0  0
  1  6  1  0  0  0  0
  1  8  3  0  0  0  0
  2  3  1  0  0  0  0
  2  4  2  0  0  0  0
  3  5  2  0  0  0  0
  4  6  1  0  0  0  0
  5  9  1  0  0  0  0
  6  9  2  0  0  0  0
  7  9  1  0  0  0  0
  2 10  1  0  0  0  0
  3 11  1  0  0  0  0
  4 12  1  0  0  0  0
  5 13  1  0  0  0  0
  7 14  1  0  0  0  0
  7 15  1  0  0  0  0
  7 16  1  0  0  0  0
M  CHG  1   9   1
M  END
> <Structure No>
50

> <Catalog ID>
Z1269194740

> <MW>
245.965

> <MW (desalted)>
119.144

> <ClogP>
-4.766

> <HBD>
0

> <HBA>
1

> <TPSA>
27.67

> <RotBonds>
0

> <logS>

> <ROCS_ShapeQuery>
A71EV2A-x0451_0A_A71EV2A-x0310_0A_A71EV2A-x0416_0A_peptide

> <ROCS_TanimotoCombo>
0.306 

> <ROCS_ShapeTanimoto>
0.197 

> <ROCS_ColorTanimoto>
0.108 

> <ROCS_RefTversky>
0.182 

> <ROCS_RefColorTversky>
0.109 

> <ROCS_RefTverskyCombo>
0.291 

> <ROCS_FitTversky>
1.714 

> <ROCS_FitColorTversky>
0.945 

> <ROCS_FitTverskyCombo>
2.659 

> <ROCS_ColorScore>
-3.293

> <ROCS_Overlap>
1261.852

> <ROCS_Rank>
3                   

$$$$
Compound 52_0
  -OEChem-11132309573D

 16 16  0     0  0  0  0  0  0999 V2000
   10.0460   13.2947   24.1710 C   0  0  0  0  0  0  0  0  0  0  0  0
    8.9517    9.8475   23.3001 C   0  0  0  0  0  0  0  0  0  0  0  0
    9.7140   11.0106   23.3506 C   0  0  0  0  0  0  0  0  0  0  0  0
    7.7621    9.7967   24.0127 C   0  0  0  0  0  0  0  0  0  0  0  0
    8.0791   11.9864   24.7990 C   0  0  0  0  0  0  0  0  0  0  0  0
    9.2770   12.0940   24.1069 C   0  0  0  0  0  0  0  0  0  0  0  0
    6.1091   10.7700   25.4728 C   0  0  0  0  0  0  0  0  0  0  0  0
   10.6713   14.2709   24.2231 N   0  0  0  0  0  0  0  0  0  0  0  0
    7.3648   10.8546   24.7329 N   0  3  0  0  0  0  0  0  0  0  0  0
    9.2809    8.9961   22.7142 H   0  0  0  0  0  0  0  0  0  0  0  0
   10.6473   11.0577   22.7952 H   0  0  0  0  0  0  0  0  0  0  0  0
    7.1189    8.9255   24.0189 H   0  0  0  0  0  0  0  0  0  0  0  0
    7.6683   12.7815   25.4101 H   0  0  0  0  0  0  0  0  0  0  0  0
    6.3137   10.3811   26.4741 H   0  0  0  0  0  0  0  0  0  0  0  0
    5.6461   11.7575   25.5533 H   0  0  0  0  0  0  0  0  0  0  0  0
    5.4184   10.1011   24.9514 H   0  0  0  0  0  0  0  0  0  0  0  0
  1  6  1  0  0  0  0
  1  8  3  0  0  0  0
  2  3  2  0  0  0  0
  2  4  1  0  0  0  0
  3  6  1  0  0  0  0
  4  9  2  0  0  0  0
  5  6  2  0  0  0  0
  5  9  1  0  0  0  0
  7  9  1  0  0  0  0
  2 10  1  0  0  0  0
  3 11  1  0  0  0  0
  4 12  1  0  0  0  0
  5 13  1  0  0  0  0
  7 14  1  0  0  0  0
  7 15  1  0  0  0  0
  7 16  1  0  0  0  0
M  CHG  1   9   1
M  END
> <Structure No>
56

> <Catalog ID>
Z57493553

> <MW>
245.965

> <MW (desalted)>
119.144

> <ClogP>
-4.766

> <HBD>
0

> <HBA>
1

> <TPSA>
27.67

> <RotBonds>
0

> <logS>

> <ROCS_ShapeQuery>
A71EV2A-x0451_0A_A71EV2A-x0310_0A_A71EV2A-x0416_0A_peptide

> <ROCS_TanimotoCombo>
0.304 

> <ROCS_ShapeTanimoto>
0.196 

> <ROCS_ColorTanimoto>
0.108 

> <ROCS_RefTversky>
0.182 

> <ROCS_RefColorTversky>
0.109 

> <ROCS_RefTverskyCombo>
0.290 

> <ROCS_FitTversky>
1.710 

> <ROCS_FitColorTversky>
0.943 

> <ROCS_FitTverskyCombo>
2.653 

> <ROCS_ColorScore>
-3.285

> <ROCS_Overlap>
1255.409

> <ROCS_Rank>
4                   

$$$$
Compound 51_0
  -OEChem-11132309573D

 17 17  0     0  0  0  0  0  0999 V2000
   10.0063   13.1533   24.1961 C   0  0  0  0  0  0  0  0  0  0  0  0
    7.5603   10.5069   24.3102 C   0  0  0  0  0  0  0  0  0  0  0  0
    8.5740    9.8932   23.6300 C   0  0  0  0  0  0  0  0  0  0  0  0
    9.2204   11.9567   24.1040 C   0  0  0  0  0  0  0  0  0  0  0  0
    7.2098   12.7764   25.3068 C   0  0  0  0  0  0  0  0  0  0  0  0
   10.8577   10.5674   22.8583 C   0  0  0  0  0  0  0  0  0  0  0  0
   10.6421   14.1213   24.2705 N   0  0  0  0  0  0  0  0  0  0  0  0
    7.9876   11.7822   24.5912 N   0  0  0  0  0  0  0  0  0  0  0  0
    9.5881   10.8134   23.5166 N   0  3  0  0  0  0  0  0  0  0  0  0
    6.5821   10.2135   24.6389 H   0  0  0  0  0  0  0  0  0  0  0  0
    8.7193    8.9185   23.2051 H   0  0  0  0  0  0  0  0  0  0  0  0
    7.4308   12.6746   26.3725 H   0  0  0  0  0  0  0  0  0  0  0  0
    7.4818   13.7749   24.9536 H   0  0  0  0  0  0  0  0  0  0  0  0
    6.1459   12.6073   25.1180 H   0  0  0  0  0  0  0  0  0  0  0  0
   10.7674   10.8379   21.8027 H   0  0  0  0  0  0  0  0  0  0  0  0
   11.6493   11.1638   23.3206 H   0  0  0  0  0  0  0  0  0  0  0  0
   11.1199    9.5092   22.9468 H   0  0  0  0  0  0  0  0  0  0  0  0
  1  4  1  0  0  0  0
  1  7  3  0  0  0  0
  2  3  2  0  0  0  0
  2  8  1  0  0  0  0
  3  9  1  0  0  0  0
  4  8  1  0  0  0  0
  4  9  2  0  0  0  0
  5  8  1  0  0  0  0
  6  9  1  0  0  0  0
  2 10  1  0  0  0  0
  3 11  1  0  0  0  0
  5 12  1  0  0  0  0
  5 13  1  0  0  0  0
  5 14  1  0  0  0  0
  6 15  1  0  0  0  0
  6 16  1  0  0  0  0
  6 17  1  0  0  0  0
M  CHG  1   9   1
M  END
> <Structure No>
55

> <Catalog ID>
Z4605084916

> <MW>
249.052

> <MW (desalted)>
122.148

> <ClogP>
-4.378

> <HBD>
0

> <HBA>
1

> <TPSA>
32.6

> <RotBonds>
0

> <logS>

> <ROCS_ShapeQuery>
A71EV2A-x0451_0A_A71EV2A-x0310_0A_A71EV2A-x0416_0A_peptide

> <ROCS_TanimotoCombo>
0.304 

> <ROCS_ShapeTanimoto>
0.196 

> <ROCS_ColorTanimoto>
0.108 

> <ROCS_RefTversky>
0.182 

> <ROCS_RefColorTversky>
0.111 

> <ROCS_RefTverskyCombo>
0.293 

> <ROCS_FitTversky>
1.698 

> <ROCS_FitColorTversky>
0.760 

> <ROCS_FitTverskyCombo>
2.458 

> <ROCS_ColorScore>
-3.370

> <ROCS_Overlap>
1255.765

> <ROCS_Rank>
5                   

$$$$
Compound 57_0
  -OEChem-11132309573D

 17 17  0     0  0  0  0  0  0999 V2000
   10.0144   13.1759   24.1932 C   0  0  0  0  0  0  0  0  0  0  0  0
    9.6391   10.8088   23.4597 C   0  0  0  0  0  0  0  0  0  0  0  0
    7.9218   11.7595   24.6490 C   0  0  0  0  0  0  0  0  0  0  0  0
    9.2391   11.9870   24.1058 C   0  0  0  0  0  0  0  0  0  0  0  0
    8.6005    8.5511   23.0872 C   0  0  0  0  0  0  0  0  0  0  0  0
    6.2723    9.8547   24.7030 C   0  0  0  0  0  0  0  0  0  0  0  0
   10.6471   14.1462   24.2643 N   0  0  0  0  0  0  0  0  0  0  0  0
    8.6074    9.9000   23.6032 N   0  0  0  0  0  0  0  0  0  0  0  0
    7.5078   10.4781   24.3530 N   0  3  0  0  0  0  0  0  0  0  0  0
   10.5443   10.5506   22.9267 H   0  0  0  0  0  0  0  0  0  0  0  0
    7.3021   12.4449   25.2100 H   0  0  0  0  0  0  0  0  0  0  0  0
    9.0226    7.8949   23.8530 H   0  0  0  0  0  0  0  0  0  0  0  0
    7.5738    8.2556   22.8542 H   0  0  0  0  0  0  0  0  0  0  0  0
    9.2009    8.5104   22.1741 H   0  0  0  0  0  0  0  0  0  0  0  0
    5.5446   10.0400   23.9081 H   0  0  0  0  0  0  0  0  0  0  0  0
    6.4100    8.7769   24.8266 H   0  0  0  0  0  0  0  0  0  0  0  0
    5.9034   10.2706   25.6450 H   0  0  0  0  0  0  0  0  0  0  0  0
  1  4  1  0  0  0  0
  1  7  3  0  0  0  0
  2  4  2  0  0  0  0
  2  8  1  0  0  0  0
  3  4  1  0  0  0  0
  3  9  2  0  0  0  0
  5  8  1  0  0  0  0
  6  9  1  0  0  0  0
  8  9  1  0  0  0  0
  2 10  1  0  0  0  0
  3 11  1  0  0  0  0
  5 12  1  0  0  0  0
  5 13  1  0  0  0  0
  5 14  1  0  0  0  0
  6 15  1  0  0  0  0
  6 16  1  0  0  0  0
  6 17  1  0  0  0  0
M  CHG  1   9   1
M  END
> <Structure No>
61

> <Catalog ID>
Z4605084883

> <MW>
249.052

> <MW (desalted)>
122.148

> <ClogP>
-4.144

> <HBD>
0

> <HBA>
1

> <TPSA>
32.6

> <RotBonds>
0

> <logS>

> <ROCS_ShapeQuery>
A71EV2A-x0451_0A_A71EV2A-x0310_0A_A71EV2A-x0416_0A_peptide

> <ROCS_TanimotoCombo>
0.302 

> <ROCS_ShapeTanimoto>
0.191 

> <ROCS_ColorTanimoto>
0.111 

> <ROCS_RefTversky>
0.178 

> <ROCS_RefColorTversky>
0.111 

> <ROCS_RefTverskyCombo>
0.289 

> <ROCS_FitTversky>
1.686 

> <ROCS_FitColorTversky>
0.964 

> <ROCS_FitTverskyCombo>
2.651 

> <ROCS_ColorScore>
-3.361

> <ROCS_Overlap>
1227.736

> <ROCS_Rank>
6                   

$$$$
Compound 53_0
  -OEChem-11132309573D

 16 16  0     0  0  0  0  0  0999 V2000
   10.0423   13.2956   24.1747 C   0  0  0  0  0  0  0  0  0  0  0  0
    8.0226   12.0376   24.7291 C   0  0  0  0  0  0  0  0  0  0  0  0
    9.7623   10.9826   23.4393 C   0  0  0  0  0  0  0  0  0  0  0  0
    7.2943   10.8589   24.6537 C   0  0  0  0  0  0  0  0  0  0  0  0
    8.9900    9.8305   23.3967 C   0  0  0  0  0  0  0  0  0  0  0  0
    9.2694   12.0955   24.1139 C   0  0  0  0  0  0  0  0  0  0  0  0
    7.0030    8.5757   23.9356 C   0  0  0  0  0  0  0  0  0  0  0  0
   10.6701   14.2704   24.2240 N   0  0  0  0  0  0  0  0  0  0  0  0
    7.7927    9.8021   23.9977 N   0  3  0  0  0  0  0  0  0  0  0  0
    7.6134   12.8907   25.2622 H   0  0  0  0  0  0  0  0  0  0  0  0
   10.7319   10.9997   22.9502 H   0  0  0  0  0  0  0  0  0  0  0  0
    6.3181   10.7421   25.1082 H   0  0  0  0  0  0  0  0  0  0  0  0
    9.3098    8.9279   22.8905 H   0  0  0  0  0  0  0  0  0  0  0  0
    6.3655    8.6098   23.0478 H   0  0  0  0  0  0  0  0  0  0  0  0
    7.6584    7.7020   23.8800 H   0  0  0  0  0  0  0  0  0  0  0  0
    6.3824    8.4911   24.8323 H   0  0  0  0  0  0  0  0  0  0  0  0
  1  6  1  0  0  0  0
  1  8  3  0  0  0  0
  2  4  1  0  0  0  0
  2  6  2  0  0  0  0
  3  5  2  0  0  0  0
  3  6  1  0  0  0  0
  4  9  2  0  0  0  0
  5  9  1  0  0  0  0
  7  9  1  0  0  0  0
  2 10  1  0  0  0  0
  3 11  1  0  0  0  0
  4 12  1  0  0  0  0
  5 13  1  0  0  0  0
  7 14  1  0  0  0  0
  7 15  1  0  0  0  0
  7 16  1  0  0  0  0
M  CHG  1   9   1
M  END
> <Structure No>
57

> <Catalog ID>
Z57493554

> <MW>
245.965

> <MW (desalted)>
119.144

> <ClogP>
-4.766

> <HBD>
0

> <HBA>
1

> <TPSA>
27.67

> <RotBonds>
0

> <logS>

> <ROCS_ShapeQuery>
A71EV2A-x0451_0A_A71EV2A-x0310_0A_A71EV2A-x0416_0A_peptide

> <ROCS_TanimotoCombo>
0.301 

> <ROCS_ShapeTanimoto>
0.193 

> <ROCS_ColorTanimoto>
0.108 

> <ROCS_RefTversky>
0.179 

> <ROCS_RefColorTversky>
0.109 

> <ROCS_RefTverskyCombo>
0.288 

> <ROCS_FitTversky>
1.686 

> <ROCS_FitColorTversky>
0.943 

> <ROCS_FitTverskyCombo>
2.629 

> <ROCS_ColorScore>
-3.286

> <ROCS_Overlap>
1237.624

> <ROCS_Rank>
7                   

$$$$
Compound 43_0
  -OEChem-11132309573D

 18 18  0     0  0  0  0  0  0999 V2000
    9.2566   10.0119   23.4771 C   0  0  0  0  0  0  0  0  0  0  0  0
    9.0085   12.3117   23.9614 C   0  0  0  0  0  0  0  0  0  0  0  0
    7.5100   10.7241   24.7384 C   0  0  0  0  0  0  0  0  0  0  0  0
    9.7326   11.3067   23.3399 C   0  0  0  0  0  0  0  0  0  0  0  0
   11.7660   12.5937   22.8664 C   0  0  0  0  0  0  0  0  0  0  0  0
   10.9332   11.5984   22.5814 C   0  0  0  0  0  0  0  0  0  0  0  0
    7.1349   13.0471   25.3120 C   0  0  0  0  0  0  0  0  0  0  0  0
    8.1459    9.6804   24.1703 N   0  0  0  0  0  0  0  0  0  0  0  0
    7.9041   12.0007   24.6534 N   0  3  0  0  0  0  0  0  0  0  0  0
    9.7678    9.1696   23.0195 H   0  0  0  0  0  0  0  0  0  0  0  0
    9.2800   13.3601   23.9271 H   0  0  0  0  0  0  0  0  0  0  0  0
    6.6122   10.5150   25.3072 H   0  0  0  0  0  0  0  0  0  0  0  0
   12.6498   12.7319   22.2508 H   0  0  0  0  0  0  0  0  0  0  0  0
   11.6348   13.2843   23.6908 H   0  0  0  0  0  0  0  0  0  0  0  0
   11.1666   10.9439   21.7549 H   0  0  0  0  0  0  0  0  0  0  0  0
    6.3783   13.4210   24.6167 H   0  0  0  0  0  0  0  0  0  0  0  0
    6.6445   12.6545   26.2072 H   0  0  0  0  0  0  0  0  0  0  0  0
    7.8004   13.8635   25.6070 H   0  0  0  0  0  0  0  0  0  0  0  0
  1  4  1  0  0  0  0
  1  8  2  0  0  0  0
  2  4  2  0  0  0  0
  2  9  1  0  0  0  0
  3  8  1  0  0  0  0
  3  9  2  0  0  0  0
  4  6  1  0  0  0  0
  5  6  2  0  0  0  0
  7  9  1  0  0  0  0
  1 10  1  0  0  0  0
  2 11  1  0  0  0  0
  3 12  1  0  0  0  0
  5 13  1  0  0  0  0
  5 14  1  0  0  0  0
  6 15  1  0  0  0  0
  7 16  1  0  0  0  0
  7 17  1  0  0  0  0
  7 18  1  0  0  0  0
M  CHG  1   9   1
M  END
> <Structure No>
46

> <Catalog ID>
Z4605084886

> <MW>
248.064

> <MW (desalted)>
121.16

> <ClogP>
-4.582

> <HBD>
0

> <HBA>
1

> <TPSA>
16.77

> <RotBonds>
1

> <logS>

> <ROCS_ShapeQuery>
A71EV2A-x0451_0A_A71EV2A-x0310_0A_A71EV2A-x0416_0A_peptide

> <ROCS_TanimotoCombo>
0.287 

> <ROCS_ShapeTanimoto>
0.203 

> <ROCS_ColorTanimoto>
0.084 

> <ROCS_RefTversky>
0.187 

> <ROCS_RefColorTversky>
0.088 

> <ROCS_RefTverskyCombo>
0.275 

> <ROCS_FitTversky>
1.760 

> <ROCS_FitColorTversky>
0.603 

> <ROCS_FitTverskyCombo>
2.363 

> <ROCS_ColorScore>
-2.675

> <ROCS_Overlap>
1292.650

> <ROCS_Rank>
8                   

$$$$
Compound 54_0
  -OEChem-11132309573D

 18 18  0     0  0  0  0  0  0999 V2000
    7.9148    9.8654   24.3338 C   0  0  0  0  0  0  0  0  0  0  0  0
    9.0529    9.9904   23.5574 C   0  0  0  0  0  0  0  0  0  0  0  0
    9.0297   12.2937   23.9626 C   0  0  0  0  0  0  0  0  0  0  0  0
    7.8919   12.1239   24.7311 C   0  0  0  0  0  0  0  0  0  0  0  0
    6.1844   13.1699   26.1472 C   0  0  0  0  0  0  0  0  0  0  0  0
    7.2568   13.2622   25.3703 C   0  0  0  0  0  0  0  0  0  0  0  0
   10.7796   11.3671   22.5790 C   0  0  0  0  0  0  0  0  0  0  0  0
    7.3177   10.9187   24.9301 N   0  0  0  0  0  0  0  0  0  0  0  0
    9.5802   11.2119   23.3942 N   0  3  0  0  0  0  0  0  0  0  0  0
    7.4457    8.9025   24.4980 H   0  0  0  0  0  0  0  0  0  0  0  0
    9.5459    9.1593   23.0710 H   0  0  0  0  0  0  0  0  0  0  0  0
    9.5143   13.2451   23.7851 H   0  0  0  0  0  0  0  0  0  0  0  0
    5.7821   14.0736   26.5951 H   0  0  0  0  0  0  0  0  0  0  0  0
    5.6768   12.2424   26.3840 H   0  0  0  0  0  0  0  0  0  0  0  0
    7.7106   14.2289   25.2170 H   0  0  0  0  0  0  0  0  0  0  0  0
   10.4821   11.5469   21.5422 H   0  0  0  0  0  0  0  0  0  0  0  0
   11.3783   12.2093   22.9372 H   0  0  0  0  0  0  0  0  0  0  0  0
   11.3848   10.4579   22.6368 H   0  0  0  0  0  0  0  0  0  0  0  0
  1  2  2  0  0  0  0
  1  8  1  0  0  0  0
  2  9  1  0  0  0  0
  3  4  1  0  0  0  0
  3  9  2  0  0  0  0
  4  6  1  0  0  0  0
  4  8  2  0  0  0  0
  5  6  2  0  0  0  0
  7  9  1  0  0  0  0
  1 10  1  0  0  0  0
  2 11  1  0  0  0  0
  3 12  1  0  0  0  0
  5 13  1  0  0  0  0
  5 14  1  0  0  0  0
  6 15  1  0  0  0  0
  7 16  1  0  0  0  0
  7 17  1  0  0  0  0
  7 18  1  0  0  0  0
M  CHG  1   9   1
M  END
> <Structure No>
58

> <Catalog ID>
Z4605084915

> <MW>
248.064

> <MW (desalted)>
121.16

> <ClogP>
-4.582

> <HBD>
0

> <HBA>
1

> <TPSA>
16.77

> <RotBonds>
1

> <logS>

> <ROCS_ShapeQuery>
A71EV2A-x0451_0A_A71EV2A-x0310_0A_A71EV2A-x0416_0A_peptide

> <ROCS_TanimotoCombo>
0.276 

> <ROCS_ShapeTanimoto>
0.194 

> <ROCS_ColorTanimoto>
0.082 

> <ROCS_RefTversky>
0.180 

> <ROCS_RefColorTversky>
0.087 

> <ROCS_RefTverskyCombo>
0.267 

> <ROCS_FitTversky>
1.691 

> <ROCS_FitColorTversky>
0.592 

> <ROCS_FitTverskyCombo>
2.284 

> <ROCS_ColorScore>
-2.627

> <ROCS_Overlap>
1244.782

> <ROCS_Rank>
9                   

$$$$
Compound 18_0
  -OEChem-11132309573D

 16 16  0     0  0  0  0  0  0999 V2000
   10.7006    7.9079   22.8051 C   0  0  0  0  0  0  0  0  0  0  0  0
   10.0702    8.8595   23.1779 C   0  0  0  0  0  0  0  0  0  0  0  0
    7.8558   12.0767   24.4799 C   0  0  0  0  0  0  0  0  0  0  0  0
    7.4265   10.7642   24.6022 C   0  0  0  0  0  0  0  0  0  0  0  0
    9.0918   12.2811   23.8873 C   0  0  0  0  0  0  0  0  0  0  0  0
    9.3207    9.9905   23.6213 C   0  0  0  0  0  0  0  0  0  0  0  0
   11.1064   11.4676   22.8444 C   0  0  0  0  0  0  0  0  0  0  0  0
    8.1329    9.6919   24.1838 N   0  0  0  0  0  0  0  0  0  0  0  0
    9.8061   11.2285   23.4662 N   0  3  0  0  0  0  0  0  0  0  0  0
   11.2598    7.0639   22.4750 H   0  0  0  0  0  0  0  0  0  0  0  0
    7.2531   12.9049   24.8312 H   0  0  0  0  0  0  0  0  0  0  0  0
    6.4680   10.5359   25.0569 H   0  0  0  0  0  0  0  0  0  0  0  0
    9.5224   13.2639   23.7421 H   0  0  0  0  0  0  0  0  0  0  0  0
   11.8762   11.4633   23.6209 H   0  0  0  0  0  0  0  0  0  0  0  0
   11.3268   10.6890   22.1087 H   0  0  0  0  0  0  0  0  0  0  0  0
   11.0997   12.4366   22.3370 H   0  0  0  0  0  0  0  0  0  0  0  0
  1  2  3  0  0  0  0
  2  6  1  0  0  0  0
  3  4  1  0  0  0  0
  3  5  2  0  0  0  0
  4  8  2  0  0  0  0
  5  9  1  0  0  0  0
  6  8  1  0  0  0  0
  6  9  2  0  0  0  0
  7  9  1  0  0  0  0
  1 10  1  0  0  0  0
  3 11  1  0  0  0  0
  4 12  1  0  0  0  0
  5 13  1  0  0  0  0
  7 14  1  0  0  0  0
  7 15  1  0  0  0  0
  7 16  1  0  0  0  0
M  CHG  1   9   1
M  END
> <Structure No>
18

> <Catalog ID>
Z4605084890

> <MW>
268.213

> <MW (desalted)>
119.144

> <ClogP>
-5.036

> <HBD>
0

> <HBA>
1

> <TPSA>
16.77

> <RotBonds>
1

> <logS>

> <ROCS_ShapeQuery>
A71EV2A-x0451_0A_A71EV2A-x0310_0A_A71EV2A-x0416_0A_peptide

> <ROCS_TanimotoCombo>
0.276 

> <ROCS_ShapeTanimoto>
0.192 

> <ROCS_ColorTanimoto>
0.084 

> <ROCS_RefTversky>
0.178 

> <ROCS_RefColorTversky>
0.088 

> <ROCS_RefTverskyCombo>
0.267 

> <ROCS_FitTversky>
1.668 

> <ROCS_FitColorTversky>
0.604 

> <ROCS_FitTverskyCombo>
2.272 

> <ROCS_ColorScore>
-2.677

> <ROCS_Overlap>
1232.923

> <ROCS_Rank>
10                  

$$$$
Compound 30_0
  -OEChem-11132309573D

 16 16  0     0  0  0  0  0  0999 V2000
    6.6149   14.1596   25.7744 C   0  0  0  0  0  0  0  0  0  0  0  0
    7.1869   13.2276   25.2784 C   0  0  0  0  0  0  0  0  0  0  0  0
    7.9372    9.8529   24.3665 C   0  0  0  0  0  0  0  0  0  0  0  0
    9.0890    9.9745   23.6100 C   0  0  0  0  0  0  0  0  0  0  0  0
    9.0153   12.2887   23.9399 C   0  0  0  0  0  0  0  0  0  0  0  0
    7.8649   12.1221   24.6900 C   0  0  0  0  0  0  0  0  0  0  0  0
   10.8112   11.3512   22.6239 C   0  0  0  0  0  0  0  0  0  0  0  0
    7.3086   10.9133   24.9161 N   0  0  0  0  0  0  0  0  0  0  0  0
    9.5973   11.1999   23.4183 N   0  3  0  0  0  0  0  0  0  0  0  0
    6.1073   14.9861   26.2141 H   0  0  0  0  0  0  0  0  0  0  0  0
    7.4835    8.8867   24.5531 H   0  0  0  0  0  0  0  0  0  0  0  0
    9.6074    9.1379   23.1614 H   0  0  0  0  0  0  0  0  0  0  0  0
    9.4847   13.2437   23.7415 H   0  0  0  0  0  0  0  0  0  0  0  0
   10.5330   11.4917   21.5757 H   0  0  0  0  0  0  0  0  0  0  0  0
   11.3867   12.2156   22.9669 H   0  0  0  0  0  0  0  0  0  0  0  0
   11.4313   10.4558   22.7241 H   0  0  0  0  0  0  0  0  0  0  0  0
  1  2  3  0  0  0  0
  2  6  1  0  0  0  0
  3  4  2  0  0  0  0
  3  8  1  0  0  0  0
  4  9  1  0  0  0  0
  5  6  1  0  0  0  0
  5  9  2  0  0  0  0
  6  8  2  0  0  0  0
  7  9  1  0  0  0  0
  1 10  1  0  0  0  0
  3 11  1  0  0  0  0
  4 12  1  0  0  0  0
  5 13  1  0  0  0  0
  7 14  1  0  0  0  0
  7 15  1  0  0  0  0
  7 16  1  0  0  0  0
M  CHG  1   9   1
M  END
> <Structure No>
30

> <Catalog ID>
Z4605084882

> <MW>
246.048

> <MW (desalted)>
119.144

> <ClogP>
-5.036

> <HBD>
0

> <HBA>
1

> <TPSA>
16.77

> <RotBonds>
0

> <logS>

> <ROCS_ShapeQuery>
A71EV2A-x0451_0A_A71EV2A-x0310_0A_A71EV2A-x0416_0A_peptide

> <ROCS_TanimotoCombo>
0.272 

> <ROCS_ShapeTanimoto>
0.190 

> <ROCS_ColorTanimoto>
0.082 

> <ROCS_RefTversky>
0.177 

> <ROCS_RefColorTversky>
0.087 

> <ROCS_RefTverskyCombo>
0.264 

> <ROCS_FitTversky>
1.658 

> <ROCS_FitColorTversky>
0.592 

> <ROCS_FitTverskyCombo>
2.250 

> <ROCS_ColorScore>
-2.627

> <ROCS_Overlap>
1222.221

> <ROCS_Rank>
11                  

$$$$
Compound 42_0
  -OEChem-11132309573D

 17 17  0     0  0  0  0  0  0999 V2000
   11.3998   13.7326   22.7287 C   0  0  0  0  0  0  0  0  0  0  0  0
   10.5885   12.9347   23.1120 C   0  0  0  0  0  0  0  0  0  0  0  0
    8.7813    9.7318   23.6725 C   0  0  0  0  0  0  0  0  0  0  0  0
    9.7304   10.6429   23.2192 C   0  0  0  0  0  0  0  0  0  0  0  0
    7.7415   10.1905   24.4686 C   0  0  0  0  0  0  0  0  0  0  0  0
    8.5629   12.3877   24.3658 C   0  0  0  0  0  0  0  0  0  0  0  0
    9.6241   11.9861   23.5671 C   0  0  0  0  0  0  0  0  0  0  0  0
    6.5579   11.9410   25.6290 C   0  0  0  0  0  0  0  0  0  0  0  0
    7.6630   11.4893   24.7886 N   0  3  0  0  0  0  0  0  0  0  0  0
   12.1196   14.4400   22.3885 H   0  0  0  0  0  0  0  0  0  0  0  0
    8.8526    8.6821   23.4083 H   0  0  0  0  0  0  0  0  0  0  0  0
   10.5482   10.2909   22.5953 H   0  0  0  0  0  0  0  0  0  0  0  0
    6.9681    9.5389   24.8562 H   0  0  0  0  0  0  0  0  0  0  0  0
    8.4071   13.4126   24.6821 H   0  0  0  0  0  0  0  0  0  0  0  0
    6.8614   11.8770   26.6775 H   0  0  0  0  0  0  0  0  0  0  0  0
    6.2935   12.9747   25.3889 H   0  0  0  0  0  0  0  0  0  0  0  0
    5.6827   11.3075   25.4589 H   0  0  0  0  0  0  0  0  0  0  0  0
  1  2  3  0  0  0  0
  2  7  1  0  0  0  0
  3  4  1  0  0  0  0
  3  5  2  0  0  0  0
  4  7  2  0  0  0  0
  5  9  1  0  0  0  0
  6  7  1  0  0  0  0
  6  9  2  0  0  0  0
  8  9  1  0  0  0  0
  1 10  1  0  0  0  0
  3 11  1  0  0  0  0
  4 12  1  0  0  0  0
  5 13  1  0  0  0  0
  6 14  1  0  0  0  0
  8 15  1  0  0  0  0
  8 16  1  0  0  0  0
  8 17  1  0  0  0  0
M  CHG  1   9   1
M  END
> <Structure No>
45

> <Catalog ID>
Z4605084900

> <MW>
245.06

> <MW (desalted)>
118.156

> <ClogP>
-3.929

> <HBD>
0

> <HBA>
0

> <TPSA>
3.88

> <RotBonds>
0

> <logS>

> <ROCS_ShapeQuery>
A71EV2A-x0451_0A_A71EV2A-x0310_0A_A71EV2A-x0416_0A_peptide

> <ROCS_TanimotoCombo>
0.271 

> <ROCS_ShapeTanimoto>
0.218 

> <ROCS_ColorTanimoto>
0.052 

> <ROCS_RefTversky>
0.198 

> <ROCS_RefColorTversky>
0.055 

> <ROCS_RefTverskyCombo>
0.254 

> <ROCS_FitTversky>
1.871 

> <ROCS_FitColorTversky>
0.481 

> <ROCS_FitTverskyCombo>
2.351 

> <ROCS_ColorScore>
-1.676

> <ROCS_Overlap>
1371.049

> <ROCS_Rank>
12                  

$$$$
Compound 17_1
  -OEChem-11132309573D

 19 19  0     0  0  0  0  0  0999 V2000
    7.4969   11.2140   24.7241 C   0  0  0  0  0  0  0  0  0  0  0  0
    8.3113   12.3164   24.4838 C   0  0  0  0  0  0  0  0  0  0  0  0
    7.8876    9.9753   24.2357 C   0  0  0  0  0  0  0  0  0  0  0  0
    9.8331   10.8997   23.3009 C   0  0  0  0  0  0  0  0  0  0  0  0
    9.4929   12.1623   23.7649 C   0  0  0  0  0  0  0  0  0  0  0  0
   11.1018   13.4254   22.4118 C   0  0  0  0  0  0  0  0  0  0  0  0
   10.3549   13.3014   23.5016 C   0  0  0  0  0  0  0  0  0  0  0  0
    9.4158    8.5383   23.0467 C   0  0  0  0  0  0  0  0  0  0  0  0
    9.0305    9.8551   23.5465 N   0  3  0  0  0  0  0  0  0  0  0  0
    6.5733   11.3205   25.2830 H   0  0  0  0  0  0  0  0  0  0  0  0
    8.0116   13.2905   24.8629 H   0  0  0  0  0  0  0  0  0  0  0  0
    7.3045    9.0750   24.3854 H   0  0  0  0  0  0  0  0  0  0  0  0
   10.7339   10.6945   22.7339 H   0  0  0  0  0  0  0  0  0  0  0  0
   11.7081   14.3181   22.2910 H   0  0  0  0  0  0  0  0  0  0  0  0
   11.1447   12.6966   21.6112 H   0  0  0  0  0  0  0  0  0  0  0  0
   10.3557   14.0957   24.2312 H   0  0  0  0  0  0  0  0  0  0  0  0
    8.9978    8.4036   22.0453 H   0  0  0  0  0  0  0  0  0  0  0  0
   10.5050    8.4509   23.0014 H   0  0  0  0  0  0  0  0  0  0  0  0
    9.0300    7.7631   23.7149 H   0  0  0  0  0  0  0  0  0  0  0  0
  1  2  1  0  0  0  0
  1  3  2  0  0  0  0
  2  5  2  0  0  0  0
  3  9  1  0  0  0  0
  4  5  1  0  0  0  0
  4  9  2  0  0  0  0
  5  7  1  0  0  0  0
  6  7  2  0  0  0  0
  8  9  1  0  0  0  0
  1 10  1  0  0  0  0
  2 11  1  0  0  0  0
  3 12  1  0  0  0  0
  4 13  1  0  0  0  0
  6 14  1  0  0  0  0
  6 15  1  0  0  0  0
  7 16  1  0  0  0  0
  8 17  1  0  0  0  0
  8 18  1  0  0  0  0
  8 19  1  0  0  0  0
M  CHG  1   9   1
M  END
> <Structure No>
17

> <Catalog ID>
Z1269221363

> <MW>
246.986

> <MW (desalted)>
120.172

> <ClogP>
-3.475

> <HBD>
0

> <HBA>
0

> <TPSA>
3.88

> <RotBonds>
1

> <logS>

> <ROCS_ShapeQuery>
A71EV2A-x0451_0A_A71EV2A-x0310_0A_A71EV2A-x0416_0A_peptide

> <ROCS_TanimotoCombo>
0.269 

> <ROCS_ShapeTanimoto>
0.217 

> <ROCS_ColorTanimoto>
0.052 

> <ROCS_RefTversky>
0.197 

> <ROCS_RefColorTversky>
0.055 

> <ROCS_RefTverskyCombo>
0.253 

> <ROCS_FitTversky>
1.865 

> <ROCS_FitColorTversky>
0.481 

> <ROCS_FitTverskyCombo>
2.345 

> <ROCS_ColorScore>
-1.676

> <ROCS_Overlap>
1363.786

> <ROCS_Rank>
13                  

$$$$
Compound 4_0
  -OEChem-11132309573D

 14 14  0     0  0  0  0  0  0999 V2000
    9.2143    9.9468   23.4269 C   0  0  0  0  0  0  0  0  0  0  0  0
    9.7392   11.2144   23.2497 C   0  0  0  0  0  0  0  0  0  0  0  0
    8.0576   12.0627   24.6361 C   0  0  0  0  0  0  0  0  0  0  0  0
    7.5653   10.7786   24.7863 C   0  0  0  0  0  0  0  0  0  0  0  0
    9.6765   13.5878   23.6921 C   0  0  0  0  0  0  0  0  0  0  0  0
    8.1282    9.7059   24.1910 N   0  0  0  0  0  0  0  0  0  0  0  0
    9.1393   12.2427   23.8654 N   0  3  0  0  0  0  0  0  0  0  0  0
    6.1875   10.4514   25.7478 Cl  0  0  0  0  0  0  0  0  0  0  0  0
    9.6596    9.0798   22.9532 H   0  0  0  0  0  0  0  0  0  0  0  0
   10.6080   11.4280   22.6419 H   0  0  0  0  0  0  0  0  0  0  0  0
    7.6279   12.9411   25.0998 H   0  0  0  0  0  0  0  0  0  0  0  0
    9.1967   14.0517   22.8259 H   0  0  0  0  0  0  0  0  0  0  0  0
    9.4844   14.1932   24.5824 H   0  0  0  0  0  0  0  0  0  0  0  0
   10.7571   13.5352   23.5312 H   0  0  0  0  0  0  0  0  0  0  0  0
  1  2  2  0  0  0  0
  1  6  1  0  0  0  0
  2  7  1  0  0  0  0
  3  4  1  0  0  0  0
  3  7  2  0  0  0  0
  4  6  2  0  0  0  0
  4  8  1  0  0  0  0
  5  7  1  0  0  0  0
  1  9  1  0  0  0  0
  2 10  1  0  0  0  0
  3 11  1  0  0  0  0
  5 12  1  0  0  0  0
  5 13  1  0  0  0  0
  5 14  1  0  0  0  0
M  CHG  1   7   1
M  END
> <Structure No>
4

> <Catalog ID>
Z3417285270

> <MW>
255.926

> <MW (desalted)>
129.568

> <ClogP>
-4.564

> <HBD>
0

> <HBA>
1

> <TPSA>
16.77

> <RotBonds>
0

> <logS>

> <ROCS_ShapeQuery>
A71EV2A-x0451_0A_A71EV2A-x0310_0A_A71EV2A-x0416_0A_peptide

> <ROCS_TanimotoCombo>
0.268 

> <ROCS_ShapeTanimoto>
0.182 

> <ROCS_ColorTanimoto>
0.086 

> <ROCS_RefTversky>
0.169 

> <ROCS_RefColorTversky>
0.088 

> <ROCS_RefTverskyCombo>
0.258 

> <ROCS_FitTversky>
1.703 

> <ROCS_FitColorTversky>
0.767 

> <ROCS_FitTverskyCombo>
2.471 

> <ROCS_ColorScore>
-2.674

> <ROCS_Overlap>
1169.663

> <ROCS_Rank>
14                  

$$$$
Compound 55_0
  -OEChem-11132309573D

 14 14  0     0  0  0  0  0  0999 V2000
    9.7599   11.2385   23.2790 C   0  0  0  0  0  0  0  0  0  0  0  0
    9.2393    9.9665   23.4601 C   0  0  0  0  0  0  0  0  0  0  0  0
    9.0894   12.2852   23.8918 C   0  0  0  0  0  0  0  0  0  0  0  0
    7.5519   10.7751   24.7437 C   0  0  0  0  0  0  0  0  0  0  0  0
    7.3018   13.1493   25.2569 C   0  0  0  0  0  0  0  0  0  0  0  0
    8.1343    9.6945   24.1873 N   0  0  0  0  0  0  0  0  0  0  0  0
    7.9914   12.0334   24.6173 N   0  3  0  0  0  0  0  0  0  0  0  0
    6.1452   10.3770   25.6618 Cl  0  0  0  0  0  0  0  0  0  0  0  0
   10.6500   11.4074   22.6859 H   0  0  0  0  0  0  0  0  0  0  0  0
    9.7175    9.1042   23.0069 H   0  0  0  0  0  0  0  0  0  0  0  0
    9.4111   13.3166   23.8190 H   0  0  0  0  0  0  0  0  0  0  0  0
    6.5488   13.5418   24.5679 H   0  0  0  0  0  0  0  0  0  0  0  0
    6.8149   12.8193   26.1789 H   0  0  0  0  0  0  0  0  0  0  0  0
    8.0216   13.9351   25.5032 H   0  0  0  0  0  0  0  0  0  0  0  0
  1  2  1  0  0  0  0
  1  3  2  0  0  0  0
  2  6  2  0  0  0  0
  3  7  1  0  0  0  0
  4  6  1  0  0  0  0
  4  7  2  0  0  0  0
  4  8  1  0  0  0  0
  5  7  1  0  0  0  0
  1  9  1  0  0  0  0
  2 10  1  0  0  0  0
  3 11  1  0  0  0  0
  5 12  1  0  0  0  0
  5 13  1  0  0  0  0
  5 14  1  0  0  0  0
M  CHG  1   7   1
M  END
> <Structure No>
59

> <Catalog ID>
Z4605084880

> <MW>
278.637

> <MW (desalted)>
129.568

> <ClogP>
-4.564

> <HBD>
0

> <HBA>
1

> <TPSA>
16.77

> <RotBonds>
1

> <logS>

> <ROCS_ShapeQuery>
A71EV2A-x0451_0A_A71EV2A-x0310_0A_A71EV2A-x0416_0A_peptide

> <ROCS_TanimotoCombo>
0.267 

> <ROCS_ShapeTanimoto>
0.181 

> <ROCS_ColorTanimoto>
0.086 

> <ROCS_RefTversky>
0.168 

> <ROCS_RefColorTversky>
0.089 

> <ROCS_RefTverskyCombo>
0.257 

> <ROCS_FitTversky>
1.691 

> <ROCS_FitColorTversky>
0.768 

> <ROCS_FitTverskyCombo>
2.459 

> <ROCS_ColorScore>
-2.677

> <ROCS_Overlap>
1162.753

> <ROCS_Rank>
15                  

$$$$
Compound 44_0
  -OEChem-11132309573D

 18 18  0     0  0  0  0  0  0999 V2000
   11.1776   13.7296   22.8382 C   0  0  0  0  0  0  0  0  0  0  0  0
   10.3955   12.8941   23.2016 C   0  0  0  0  0  0  0  0  0  0  0  0
    9.5133   10.5493   23.2758 C   0  0  0  0  0  0  0  0  0  0  0  0
    8.3305   12.0898   24.4985 C   0  0  0  0  0  0  0  0  0  0  0  0
    9.4696   11.9044   23.6323 C   0  0  0  0  0  0  0  0  0  0  0  0
    8.1121    8.5312   23.8040 C   0  0  0  0  0  0  0  0  0  0  0  0
    6.5114   10.6347   25.4606 C   0  0  0  0  0  0  0  0  0  0  0  0
    8.4442    9.9335   23.8994 N   0  0  0  0  0  0  0  0  0  0  0  0
    7.6794   10.8881   24.6801 N   0  3  0  0  0  0  0  0  0  0  0  0
   11.8712   14.4709   22.5164 H   0  0  0  0  0  0  0  0  0  0  0  0
   10.1957    9.9902   22.6497 H   0  0  0  0  0  0  0  0  0  0  0  0
    7.9866   13.0022   24.9651 H   0  0  0  0  0  0  0  0  0  0  0  0
    8.6314    8.0060   24.6099 H   0  0  0  0  0  0  0  0  0  0  0  0
    7.0301    8.4059   23.9010 H   0  0  0  0  0  0  0  0  0  0  0  0
    8.4309    8.1498   22.8299 H   0  0  0  0  0  0  0  0  0  0  0  0
    5.6283   10.7689   24.8300 H   0  0  0  0  0  0  0  0  0  0  0  0
    6.5278    9.6135   25.8518 H   0  0  0  0  0  0  0  0  0  0  0  0
    6.4726   11.3314   26.3029 H   0  0  0  0  0  0  0  0  0  0  0  0
  1  2  3  0  0  0  0
  2  5  1  0  0  0  0
  3  5  2  0  0  0  0
  3  8  1  0  0  0  0
  4  5  1  0  0  0  0
  4  9  2  0  0  0  0
  6  8  1  0  0  0  0
  7  9  1  0  0  0  0
  8  9  1  0  0  0  0
  1 10  1  0  0  0  0
  3 11  1  0  0  0  0
  4 12  1  0  0  0  0
  6 13  1  0  0  0  0
  6 14  1  0  0  0  0
  6 15  1  0  0  0  0
  7 16  1  0  0  0  0
  7 17  1  0  0  0  0
  7 18  1  0  0  0  0
M  CHG  1   9   1
M  END
> <Structure No>
47

> <Catalog ID>
Z4605084896

> <MW>
248.064

> <MW (desalted)>
121.16

> <ClogP>
-3.307

> <HBD>
0

> <HBA>
0

> <TPSA>
8.81

> <RotBonds>
0

> <logS>

> <ROCS_ShapeQuery>
A71EV2A-x0451_0A_A71EV2A-x0310_0A_A71EV2A-x0416_0A_peptide

> <ROCS_TanimotoCombo>
0.267 

> <ROCS_ShapeTanimoto>
0.214 

> <ROCS_ColorTanimoto>
0.052 

> <ROCS_RefTversky>
0.195 

> <ROCS_RefColorTversky>
0.055 

> <ROCS_RefTverskyCombo>
0.251 

> <ROCS_FitTversky>
1.856 

> <ROCS_FitColorTversky>
0.481 

> <ROCS_FitTverskyCombo>
2.337 

> <ROCS_ColorScore>
-1.676

> <ROCS_Overlap>
1349.491

> <ROCS_Rank>
16                  

$$$$
Compound 39_5
  -OEChem-11132309573D

 18 18  0     0  0  0  0  0  0999 V2000
   11.3950   14.3740   23.0529 C   0  0  0  0  0  0  0  0  0  0  0  0
   11.1180   13.2180   22.8842 C   0  0  0  0  0  0  0  0  0  0  0  0
    7.7341   11.4904   24.6397 C   0  0  0  0  0  0  0  0  0  0  0  0
    8.7250   12.2792   24.0385 C   0  0  0  0  0  0  0  0  0  0  0  0
    8.0492   10.1099   24.3620 C   0  0  0  0  0  0  0  0  0  0  0  0
    9.8554    8.8621   23.1241 C   0  0  0  0  0  0  0  0  0  0  0  0
   10.7825   11.8065   22.6758 C   0  0  0  0  0  0  0  0  0  0  0  0
    9.6082   11.4147   23.4193 N   0  0  0  0  0  0  0  0  0  0  0  0
    9.2021   10.0346   23.6097 N   0  3  0  0  0  0  0  0  0  0  0  0
   11.6402   15.3993   23.2028 H   0  0  0  0  0  0  0  0  0  0  0  0
    6.8924   11.8617   25.2066 H   0  0  0  0  0  0  0  0  0  0  0  0
    8.8648   13.3507   24.0046 H   0  0  0  0  0  0  0  0  0  0  0  0
    7.5042    9.2289   24.6696 H   0  0  0  0  0  0  0  0  0  0  0  0
    9.4547    8.6169   22.1367 H   0  0  0  0  0  0  0  0  0  0  0  0
   10.9335    9.0294   23.0483 H   0  0  0  0  0  0  0  0  0  0  0  0
    9.6778    8.0299   23.8113 H   0  0  0  0  0  0  0  0  0  0  0  0
   11.6068   11.1550   22.9875 H   0  0  0  0  0  0  0  0  0  0  0  0
   10.5907   11.5987   21.6171 H   0  0  0  0  0  0  0  0  0  0  0  0
  1  2  3  0  0  0  0
  2  7  1  0  0  0  0
  3  4  2  0  0  0  0
  3  5  1  0  0  0  0
  4  8  1  0  0  0  0
  5  9  2  0  0  0  0
  6  9  1  0  0  0  0
  7  8  1  0  0  0  0
  8  9  1  0  0  0  0
  1 10  1  0  0  0  0
  3 11  1  0  0  0  0
  4 12  1  0  0  0  0
  5 13  1  0  0  0  0
  6 14  1  0  0  0  0
  6 15  1  0  0  0  0
  6 16  1  0  0  0  0
  7 17  1  0  0  0  0
  7 18  1  0  0  0  0
M  CHG  1   9   1
M  END
> <Structure No>
42

> <Catalog ID>
Z4605084919

> <MW>
270.229

> <MW (desalted)>
121.16

> <ClogP>
-3.877

> <HBD>
0

> <HBA>
0

> <TPSA>
8.81

> <RotBonds>
2

> <logS>

> <ROCS_ShapeQuery>
A71EV2A-x0451_0A_A71EV2A-x0310_0A_A71EV2A-x0416_0A_peptide

> <ROCS_TanimotoCombo>
0.267 

> <ROCS_ShapeTanimoto>
0.214 

> <ROCS_ColorTanimoto>
0.052 

> <ROCS_RefTversky>
0.195 

> <ROCS_RefColorTversky>
0.055 

> <ROCS_RefTverskyCombo>
0.250 

> <ROCS_FitTversky>
1.861 

> <ROCS_FitColorTversky>
0.481 

> <ROCS_FitTverskyCombo>
2.341 

> <ROCS_ColorScore>
-1.676

> <ROCS_Overlap>
1348.608

> <ROCS_Rank>
17                  

$$$$
Compound 10_0
  -OEChem-11132309573D

 17 17  0     0  0  0  0  0  0999 V2000
   11.3617   13.7305   22.6438 C   0  0  0  0  0  0  0  0  0  0  0  0
   10.5598   12.9357   23.0527 C   0  0  0  0  0  0  0  0  0  0  0  0
    9.7637   10.6356   23.2638 C   0  0  0  0  0  0  0  0  0  0  0  0
    8.5161   12.4230   24.2895 C   0  0  0  0  0  0  0  0  0  0  0  0
    8.8211    9.7403   23.7492 C   0  0  0  0  0  0  0  0  0  0  0  0
    7.6051   11.4825   24.7489 C   0  0  0  0  0  0  0  0  0  0  0  0
    9.6054   11.9904   23.5392 C   0  0  0  0  0  0  0  0  0  0  0  0
    6.8063    9.2180   24.9662 C   0  0  0  0  0  0  0  0  0  0  0  0
    7.7816   10.1840   24.4691 N   0  3  0  0  0  0  0  0  0  0  0  0
   12.0725   14.4355   22.2808 H   0  0  0  0  0  0  0  0  0  0  0  0
   10.6040   10.2700   22.6810 H   0  0  0  0  0  0  0  0  0  0  0  0
    8.3678   13.4740   24.5195 H   0  0  0  0  0  0  0  0  0  0  0  0
    8.8804    8.6732   23.5739 H   0  0  0  0  0  0  0  0  0  0  0  0
    6.7351   11.7467   25.3375 H   0  0  0  0  0  0  0  0  0  0  0  0
    7.1227    8.8720   25.9541 H   0  0  0  0  0  0  0  0  0  0  0  0
    5.8171    9.6782   25.0413 H   0  0  0  0  0  0  0  0  0  0  0  0
    6.7459    8.3686   24.2798 H   0  0  0  0  0  0  0  0  0  0  0  0
  1  2  3  0  0  0  0
  2  7  1  0  0  0  0
  3  5  1  0  0  0  0
  3  7  2  0  0  0  0
  4  6  2  0  0  0  0
  4  7  1  0  0  0  0
  5  9  2  0  0  0  0
  6  9  1  0  0  0  0
  8  9  1  0  0  0  0
  1 10  1  0  0  0  0
  3 11  1  0  0  0  0
  4 12  1  0  0  0  0
  5 13  1  0  0  0  0
  6 14  1  0  0  0  0
  8 15  1  0  0  0  0
  8 16  1  0  0  0  0
  8 17  1  0  0  0  0
M  CHG  1   9   1
M  END
> <Structure No>
10

> <Catalog ID>
Z4605084924

> <MW>
245.06

> <MW (desalted)>
118.156

> <ClogP>
-3.929

> <HBD>
0

> <HBA>
0

> <TPSA>
3.88

> <RotBonds>
0

> <logS>

> <ROCS_ShapeQuery>
A71EV2A-x0451_0A_A71EV2A-x0310_0A_A71EV2A-x0416_0A_peptide

> <ROCS_TanimotoCombo>
0.266 

> <ROCS_ShapeTanimoto>
0.214 

> <ROCS_ColorTanimoto>
0.052 

> <ROCS_RefTversky>
0.195 

> <ROCS_RefColorTversky>
0.055 

> <ROCS_RefTverskyCombo>
0.250 

> <ROCS_FitTversky>
1.837 

> <ROCS_FitColorTversky>
0.481 

> <ROCS_FitTverskyCombo>
2.318 

> <ROCS_ColorScore>
-1.676

> <ROCS_Overlap>
1346.301

> <ROCS_Rank>
18                  

$$$$
Compound 14_5
  -OEChem-11132309573D

 18 18  0     0  0  0  0  0  0999 V2000
   11.3988   14.3166   23.0056 C   0  0  0  0  0  0  0  0  0  0  0  0
   11.1005   13.1680   22.8240 C   0  0  0  0  0  0  0  0  0  0  0  0
    9.1581   10.0803   23.5804 C   0  0  0  0  0  0  0  0  0  0  0  0
    8.0489   10.1516   24.3751 C   0  0  0  0  0  0  0  0  0  0  0  0
    8.7769   12.2138   24.0315 C   0  0  0  0  0  0  0  0  0  0  0  0
    6.7638   12.0211   25.4496 C   0  0  0  0  0  0  0  0  0  0  0  0
   10.7390   11.7654   22.5997 C   0  0  0  0  0  0  0  0  0  0  0  0
    9.5873   11.3707   23.3835 N   0  0  0  0  0  0  0  0  0  0  0  0
    7.8364   11.4833   24.6390 N   0  3  0  0  0  0  0  0  0  0  0  0
   11.6629   15.3355   23.1670 H   0  0  0  0  0  0  0  0  0  0  0  0
    9.7113    9.2842   23.1207 H   0  0  0  0  0  0  0  0  0  0  0  0
    7.3712    9.4346   24.7970 H   0  0  0  0  0  0  0  0  0  0  0  0
    8.8652   13.2885   24.0591 H   0  0  0  0  0  0  0  0  0  0  0  0
    7.1011   12.0817   26.4880 H   0  0  0  0  0  0  0  0  0  0  0  0
    6.4834   13.0183   25.0990 H   0  0  0  0  0  0  0  0  0  0  0  0
    5.8888   11.3681   25.3835 H   0  0  0  0  0  0  0  0  0  0  0  0
   11.5666   11.0975   22.8644 H   0  0  0  0  0  0  0  0  0  0  0  0
   10.5023   11.5826   21.5455 H   0  0  0  0  0  0  0  0  0  0  0  0
  1  2  3  0  0  0  0
  2  7  1  0  0  0  0
  3  4  2  0  0  0  0
  3  8  1  0  0  0  0
  4  9  1  0  0  0  0
  5  8  1  0  0  0  0
  5  9  2  0  0  0  0
  6  9  1  0  0  0  0
  7  8  1  0  0  0  0
  1 10  1  0  0  0  0
  3 11  1  0  0  0  0
  4 12  1  0  0  0  0
  5 13  1  0  0  0  0
  6 14  1  0  0  0  0
  6 15  1  0  0  0  0
  6 16  1  0  0  0  0
  7 17  1  0  0  0  0
  7 18  1  0  0  0  0
M  CHG  1   9   1
M  END
> <Structure No>
14

> <Catalog ID>
Z4605084917

> <MW>
248.064

> <MW (desalted)>
121.16

> <ClogP>
-3.757

> <HBD>
0

> <HBA>
0

> <TPSA>
8.81

> <RotBonds>
1

> <logS>

> <ROCS_ShapeQuery>
A71EV2A-x0451_0A_A71EV2A-x0310_0A_A71EV2A-x0416_0A_peptide

> <ROCS_TanimotoCombo>
0.265 

> <ROCS_ShapeTanimoto>
0.214 

> <ROCS_ColorTanimoto>
0.051 

> <ROCS_RefTversky>
0.195 

> <ROCS_RefColorTversky>
0.055 

> <ROCS_RefTverskyCombo>
0.251 

> <ROCS_FitTversky>
1.839 

> <ROCS_FitColorTversky>
0.378 

> <ROCS_FitTverskyCombo>
2.217 

> <ROCS_ColorScore>
-1.676

> <ROCS_Overlap>
1349.786

> <ROCS_Rank>
19                  

$$$$
Compound 7_0
  -OEChem-11132309573D

 17 17  0     0  0  0  0  0  0999 V2000
   11.2639   13.8405   22.7464 C   0  0  0  0  0  0  0  0  0  0  0  0
   10.4844   13.0099   23.1263 C   0  0  0  0  0  0  0  0  0  0  0  0
    7.5468   11.4179   24.7280 C   0  0  0  0  0  0  0  0  0  0  0  0
    7.7969   10.0816   24.4312 C   0  0  0  0  0  0  0  0  0  0  0  0
    8.4332   12.4013   24.2992 C   0  0  0  0  0  0  0  0  0  0  0  0
    8.9362    9.7597   23.7074 C   0  0  0  0  0  0  0  0  0  0  0  0
    9.5565   12.0207   23.5789 C   0  0  0  0  0  0  0  0  0  0  0  0
   10.9570   10.3164   22.5462 C   0  0  0  0  0  0  0  0  0  0  0  0
    9.7731   10.7266   23.3069 N   0  3  0  0  0  0  0  0  0  0  0  0
   11.9555   14.5771   22.4099 H   0  0  0  0  0  0  0  0  0  0  0  0
    6.6612   11.6926   25.2933 H   0  0  0  0  0  0  0  0  0  0  0  0
    7.1138    9.3057   24.7597 H   0  0  0  0  0  0  0  0  0  0  0  0
    8.2351   13.4434   24.5327 H   0  0  0  0  0  0  0  0  0  0  0  0
    9.1917    8.7409   23.4419 H   0  0  0  0  0  0  0  0  0  0  0  0
   10.7099   10.3135   21.4811 H   0  0  0  0  0  0  0  0  0  0  0  0
   11.7849   11.0080   22.7261 H   0  0  0  0  0  0  0  0  0  0  0  0
   11.2651    9.3137   22.8561 H   0  0  0  0  0  0  0  0  0  0  0  0
  1  2  3  0  0  0  0
  2  7  1  0  0  0  0
  3  4  1  0  0  0  0
  3  5  2  0  0  0  0
  4  6  2  0  0  0  0
  5  7  1  0  0  0  0
  6  9  1  0  0  0  0
  7  9  2  0  0  0  0
  8  9  1  0  0  0  0
  1 10  1  0  0  0  0
  3 11  1  0  0  0  0
  4 12  1  0  0  0  0
  5 13  1  0  0  0  0
  6 14  1  0  0  0  0
  8 15  1  0  0  0  0
  8 16  1  0  0  0  0
  8 17  1  0  0  0  0
M  CHG  1   9   1
M  END
> <Structure No>
7

> <Catalog ID>
Z4605084907

> <MW>
267.225

> <MW (desalted)>
118.156

> <ClogP>
-3.929

> <HBD>
0

> <HBA>
0

> <TPSA>
3.88

> <RotBonds>
1

> <logS>

> <ROCS_ShapeQuery>
A71EV2A-x0451_0A_A71EV2A-x0310_0A_A71EV2A-x0416_0A_peptide

> <ROCS_TanimotoCombo>
0.265 

> <ROCS_ShapeTanimoto>
0.212 

> <ROCS_ColorTanimoto>
0.052 

> <ROCS_RefTversky>
0.194 

> <ROCS_RefColorTversky>
0.055 

> <ROCS_RefTverskyCombo>
0.249 

> <ROCS_FitTversky>
1.824 

> <ROCS_FitColorTversky>
0.481 

> <ROCS_FitTverskyCombo>
2.305 

> <ROCS_ColorScore>
-1.676

> <ROCS_Overlap>
1340.390

> <ROCS_Rank>
20                  

$$$$
Compound 26_0
  -OEChem-11132309573D

 19 19  0     0  0  0  0  0  0999 V2000
    9.6917   10.4943   23.2390 C   0  0  0  0  0  0  0  0  0  0  0  0
    8.6476   12.4387   24.2047 C   0  0  0  0  0  0  0  0  0  0  0  0
    8.7022    9.7130   23.8186 C   0  0  0  0  0  0  0  0  0  0  0  0
    7.6844   11.6082   24.7597 C   0  0  0  0  0  0  0  0  0  0  0  0
    9.6601   11.8714   23.4368 C   0  0  0  0  0  0  0  0  0  0  0  0
   11.1208   13.8409   23.3890 C   0  0  0  0  0  0  0  0  0  0  0  0
   10.6820   12.7167   22.8397 C   0  0  0  0  0  0  0  0  0  0  0  0
    6.7105    9.4373   25.1497 C   0  0  0  0  0  0  0  0  0  0  0  0
    7.7388   10.2853   24.5534 N   0  3  0  0  0  0  0  0  0  0  0  0
   10.4696   10.0256   22.6436 H   0  0  0  0  0  0  0  0  0  0  0  0
    8.5987   13.5101   24.3752 H   0  0  0  0  0  0  0  0  0  0  0  0
    8.6647    8.6362   23.7073 H   0  0  0  0  0  0  0  0  0  0  0  0
    6.8680   11.9792   25.3672 H   0  0  0  0  0  0  0  0  0  0  0  0
   11.8964   14.4040   22.8786 H   0  0  0  0  0  0  0  0  0  0  0  0
   10.7685   14.2428   24.3315 H   0  0  0  0  0  0  0  0  0  0  0  0
   11.1146   12.3801   21.9118 H   0  0  0  0  0  0  0  0  0  0  0  0
    7.0433    9.1225   26.1426 H   0  0  0  0  0  0  0  0  0  0  0  0
    5.7681    9.9850   25.2382 H   0  0  0  0  0  0  0  0  0  0  0  0
    6.5466    8.5584   24.5197 H   0  0  0  0  0  0  0  0  0  0  0  0
  1  3  1  0  0  0  0
  1  5  2  0  0  0  0
  2  4  2  0  0  0  0
  2  5  1  0  0  0  0
  3  9  2  0  0  0  0
  4  9  1  0  0  0  0
  5  7  1  0  0  0  0
  6  7  2  0  0  0  0
  8  9  1  0  0  0  0
  1 10  1  0  0  0  0
  2 11  1  0  0  0  0
  3 12  1  0  0  0  0
  4 13  1  0  0  0  0
  6 14  1  0  0  0  0
  6 15  1  0  0  0  0
  7 16  1  0  0  0  0
  8 17  1  0  0  0  0
  8 18  1  0  0  0  0
  8 19  1  0  0  0  0
M  CHG  1   9   1
M  END
> <Structure No>
26

> <Catalog ID>
Z4605084901

> <MW>
246.986

> <MW (desalted)>
120.172

> <ClogP>
-3.475

> <HBD>
0

> <HBA>
0

> <TPSA>
3.88

> <RotBonds>
1

> <logS>

> <ROCS_ShapeQuery>
A71EV2A-x0451_0A_A71EV2A-x0310_0A_A71EV2A-x0416_0A_peptide

> <ROCS_TanimotoCombo>
0.264 

> <ROCS_ShapeTanimoto>
0.212 

> <ROCS_ColorTanimoto>
0.052 

> <ROCS_RefTversky>
0.193 

> <ROCS_RefColorTversky>
0.055 

> <ROCS_RefTverskyCombo>
0.249 

> <ROCS_FitTversky>
1.829 

> <ROCS_FitColorTversky>
0.481 

> <ROCS_FitTverskyCombo>
2.310 

> <ROCS_ColorScore>
-1.676

> <ROCS_Overlap>
1337.861

> <ROCS_Rank>
21                  

$$$$
Compound 29_0
  -OEChem-11132309573D

 14 14  0     0  0  0  0  0  0999 V2000
    9.2056    9.9464   23.4184 C   0  0  0  0  0  0  0  0  0  0  0  0
    9.7304   11.2136   23.2375 C   0  0  0  0  0  0  0  0  0  0  0  0
    8.0626   12.0626   24.6402 C   0  0  0  0  0  0  0  0  0  0  0  0
    7.5703   10.7788   24.7938 C   0  0  0  0  0  0  0  0  0  0  0  0
    9.6743   13.5866   23.6829 C   0  0  0  0  0  0  0  0  0  0  0  0
    8.1263    9.7061   24.1922 N   0  0  0  0  0  0  0  0  0  0  0  0
    9.1373   12.2420   23.8597 N   0  3  0  0  0  0  0  0  0  0  0  0
    6.0525   10.5003   25.8928 Br  0  0  0  0  0  0  0  0  0  0  0  0
    9.6452    9.0794   22.9394 H   0  0  0  0  0  0  0  0  0  0  0  0
   10.5939   11.4267   22.6219 H   0  0  0  0  0  0  0  0  0  0  0  0
    7.6418   12.9433   25.1074 H   0  0  0  0  0  0  0  0  0  0  0  0
    9.1871   14.0519   22.8217 H   0  0  0  0  0  0  0  0  0  0  0  0
    9.4911   14.1913   24.5756 H   0  0  0  0  0  0  0  0  0  0  0  0
   10.7533   13.5331   23.5119 H   0  0  0  0  0  0  0  0  0  0  0  0
  1  2  2  0  0  0  0
  1  6  1  0  0  0  0
  2  7  1  0  0  0  0
  3  4  1  0  0  0  0
  3  7  2  0  0  0  0
  4  6  2  0  0  0  0
  4  8  1  0  0  0  0
  5  7  1  0  0  0  0
  1  9  1  0  0  0  0
  2 10  1  0  0  0  0
  3 11  1  0  0  0  0
  5 12  1  0  0  0  0
  5 13  1  0  0  0  0
  5 14  1  0  0  0  0
M  CHG  1   7   1
M  END
> <Structure No>
29

> <Catalog ID>
Z4605084906

> <MW>
300.923

> <MW (desalted)>
174.019

> <ClogP>
-4.414

> <HBD>
0

> <HBA>
1

> <TPSA>
16.77

> <RotBonds>
0

> <logS>

> <ROCS_ShapeQuery>
A71EV2A-x0451_0A_A71EV2A-x0310_0A_A71EV2A-x0416_0A_peptide

> <ROCS_TanimotoCombo>
0.264 

> <ROCS_ShapeTanimoto>
0.181 

> <ROCS_ColorTanimoto>
0.083 

> <ROCS_RefTversky>
0.168 

> <ROCS_RefColorTversky>
0.088 

> <ROCS_RefTverskyCombo>
0.256 

> <ROCS_FitTversky>
1.701 

> <ROCS_FitColorTversky>
0.603 

> <ROCS_FitTverskyCombo>
2.304 

> <ROCS_ColorScore>
-2.674

> <ROCS_Overlap>
1161.481

> <ROCS_Rank>
22                  

$$$$
Compound 49_0
  -OEChem-11132309573D

 14 14  0     0  0  0  0  0  0999 V2000
    9.2473    9.9874   23.4711 C   0  0  0  0  0  0  0  0  0  0  0  0
    9.0487   12.2978   23.9271 C   0  0  0  0  0  0  0  0  0  0  0  0
    7.5296   10.7496   24.7427 C   0  0  0  0  0  0  0  0  0  0  0  0
    9.7461   11.2709   23.3109 C   0  0  0  0  0  0  0  0  0  0  0  0
    7.2052   13.0866   25.2893 C   0  0  0  0  0  0  0  0  0  0  0  0
    8.1388    9.6865   24.1814 N   0  0  0  0  0  0  0  0  0  0  0  0
    7.9469   12.0172   24.6361 N   0  3  0  0  0  0  0  0  0  0  0  0
   11.2959   11.6078   22.3027 Br  0  0  0  0  0  0  0  0  0  0  0  0
    9.7374    9.1296   23.0195 H   0  0  0  0  0  0  0  0  0  0  0  0
    9.3385   13.3402   23.8746 H   0  0  0  0  0  0  0  0  0  0  0  0
    6.6345   10.5652   25.3244 H   0  0  0  0  0  0  0  0  0  0  0  0
    6.4476   13.4656   24.5978 H   0  0  0  0  0  0  0  0  0  0  0  0
    6.7181   12.7153   26.1953 H   0  0  0  0  0  0  0  0  0  0  0  0
    7.8893   13.8941   25.5656 H   0  0  0  0  0  0  0  0  0  0  0  0
  1  4  1  0  0  0  0
  1  6  2  0  0  0  0
  2  4  2  0  0  0  0
  2  7  1  0  0  0  0
  3  6  1  0  0  0  0
  3  7  2  0  0  0  0
  4  8  1  0  0  0  0
  5  7  1  0  0  0  0
  1  9  1  0  0  0  0
  2 10  1  0  0  0  0
  3 11  1  0  0  0  0
  5 12  1  0  0  0  0
  5 13  1  0  0  0  0
  5 14  1  0  0  0  0
M  CHG  1   7   1
M  END
> <Structure No>
53

> <Catalog ID>
Z4605084926

> <MW>
300.923

> <MW (desalted)>
174.019

> <ClogP>
-4.414

> <HBD>
0

> <HBA>
1

> <TPSA>
16.77

> <RotBonds>
0

> <logS>

> <ROCS_ShapeQuery>
A71EV2A-x0451_0A_A71EV2A-x0310_0A_A71EV2A-x0416_0A_peptide

> <ROCS_TanimotoCombo>
0.264 

> <ROCS_ShapeTanimoto>
0.180 

> <ROCS_ColorTanimoto>
0.084 

> <ROCS_RefTversky>
0.168 

> <ROCS_RefColorTversky>
0.088 

> <ROCS_RefTverskyCombo>
0.256 

> <ROCS_FitTversky>
1.698 

> <ROCS_FitColorTversky>
0.603 

> <ROCS_FitTverskyCombo>
2.302 

> <ROCS_ColorScore>
-2.677

> <ROCS_Overlap>
1159.188

> <ROCS_Rank>
23                  

$$$$
Compound 1_0
  -OEChem-11132309573D

 18 18  0     0  0  0  0  0  0999 V2000
   11.0522   13.8958   22.9807 C   0  0  0  0  0  0  0  0  0  0  0  0
   10.3151   13.0026   23.2981 C   0  0  0  0  0  0  0  0  0  0  0  0
    9.5378   10.5947   23.3133 C   0  0  0  0  0  0  0  0  0  0  0  0
    8.4317    9.9025   23.9294 C   0  0  0  0  0  0  0  0  0  0  0  0
    9.4436   11.9464   23.6730 C   0  0  0  0  0  0  0  0  0  0  0  0
    7.8405   13.2953   25.0776 C   0  0  0  0  0  0  0  0  0  0  0  0
    6.4877   10.5193   25.4110 C   0  0  0  0  0  0  0  0  0  0  0  0
    8.3254   12.0731   24.4760 N   0  0  0  0  0  0  0  0  0  0  0  0
    7.6669   10.7923   24.6535 N   0  3  0  0  0  0  0  0  0  0  0  0
   11.7062   14.6876   22.6990 H   0  0  0  0  0  0  0  0  0  0  0  0
   10.3020   10.1546   22.6875 H   0  0  0  0  0  0  0  0  0  0  0  0
    8.1887    8.8516   23.8690 H   0  0  0  0  0  0  0  0  0  0  0  0
    7.1440   13.7630   24.3768 H   0  0  0  0  0  0  0  0  0  0  0  0
    7.3362   13.0623   26.0196 H   0  0  0  0  0  0  0  0  0  0  0  0
    8.6858   13.9593   25.2787 H   0  0  0  0  0  0  0  0  0  0  0  0
    6.7753   10.2690   26.4358 H   0  0  0  0  0  0  0  0  0  0  0  0
    5.8293   11.3925   25.4205 H   0  0  0  0  0  0  0  0  0  0  0  0
    5.9485    9.6794   24.9636 H   0  0  0  0  0  0  0  0  0  0  0  0
  1  2  3  0  0  0  0
  2  5  1  0  0  0  0
  3  4  1  0  0  0  0
  3  5  2  0  0  0  0
  4  9  2  0  0  0  0
  5  8  1  0  0  0  0
  6  8  1  0  0  0  0
  7  9  1  0  0  0  0
  8  9  1  0  0  0  0
  1 10  1  0  0  0  0
  3 11  1  0  0  0  0
  4 12  1  0  0  0  0
  6 13  1  0  0  0  0
  6 14  1  0  0  0  0
  6 15  1  0  0  0  0
  7 16  1  0  0  0  0
  7 17  1  0  0  0  0
  7 18  1  0  0  0  0
M  CHG  1   9   1
M  END
> <Structure No>
1

> <Catalog ID>
Z4605084881

> <MW>
248.064

> <MW (desalted)>
121.16

> <ClogP>
-3.307

> <HBD>
0

> <HBA>
0

> <TPSA>
8.81

> <RotBonds>
0

> <logS>

> <ROCS_ShapeQuery>
A71EV2A-x0451_0A_A71EV2A-x0310_0A_A71EV2A-x0416_0A_peptide

> <ROCS_TanimotoCombo>
0.263 

> <ROCS_ShapeTanimoto>
0.211 

> <ROCS_ColorTanimoto>
0.052 

> <ROCS_RefTversky>
0.192 

> <ROCS_RefColorTversky>
0.055 

> <ROCS_RefTverskyCombo>
0.248 

> <ROCS_FitTversky>
1.826 

> <ROCS_FitColorTversky>
0.481 

> <ROCS_FitTverskyCombo>
2.307 

> <ROCS_ColorScore>
-1.676

> <ROCS_Overlap>
1329.476

> <ROCS_Rank>
24                  

$$$$
Compound 36_0
  -OEChem-11132309573D

 14 14  0     0  0  0  0  0  0999 V2000
    7.4890   10.7487   24.7023 C   0  0  0  0  0  0  0  0  0  0  0  0
    9.0955   12.2784   23.8873 C   0  0  0  0  0  0  0  0  0  0  0  0
    9.2729    9.9976   23.5181 C   0  0  0  0  0  0  0  0  0  0  0  0
    7.9192   12.0615   24.5871 C   0  0  0  0  0  0  0  0  0  0  0  0
   10.9908   11.4516   22.6229 C   0  0  0  0  0  0  0  0  0  0  0  0
    8.1407    9.6873   24.1801 N   0  0  0  0  0  0  0  0  0  0  0  0
    9.7549   11.2368   23.3622 N   0  3  0  0  0  0  0  0  0  0  0  0
    6.8613   13.6216   25.4168 I   0  0  0  0  0  0  0  0  0  0  0  0
    6.5777   10.4920   25.2345 H   0  0  0  0  0  0  0  0  0  0  0  0
    9.5354   13.2553   23.7278 H   0  0  0  0  0  0  0  0  0  0  0  0
    9.8370    9.1827   23.0809 H   0  0  0  0  0  0  0  0  0  0  0  0
   11.8325   11.4049   23.3193 H   0  0  0  0  0  0  0  0  0  0  0  0
   11.1127   10.6852   21.8523 H   0  0  0  0  0  0  0  0  0  0  0  0
   10.9656   12.4326   22.1399 H   0  0  0  0  0  0  0  0  0  0  0  0
  1  4  1  0  0  0  0
  1  6  2  0  0  0  0
  2  4  2  0  0  0  0
  2  7  1  0  0  0  0
  3  6  1  0  0  0  0
  3  7  2  0  0  0  0
  4  8  1  0  0  0  0
  5  7  1  0  0  0  0
  1  9  1  0  0  0  0
  2 10  1  0  0  0  0
  3 11  1  0  0  0  0
  5 12  1  0  0  0  0
  5 13  1  0  0  0  0
  5 14  1  0  0  0  0
M  CHG  1   7   1
M  END
> <Structure No>
38

> <Catalog ID>
Z4605084888

> <MW>
347.923

> <MW (desalted)>
221.019

> <ClogP>
-4.154

> <HBD>
0

> <HBA>
1

> <TPSA>
16.77

> <RotBonds>
0

> <logS>

> <ROCS_ShapeQuery>
A71EV2A-x0451_0A_A71EV2A-x0310_0A_A71EV2A-x0416_0A_peptide

> <ROCS_TanimotoCombo>
0.263 

> <ROCS_ShapeTanimoto>
0.179 

> <ROCS_ColorTanimoto>
0.084 

> <ROCS_RefTversky>
0.167 

> <ROCS_RefColorTversky>
0.088 

> <ROCS_RefTverskyCombo>
0.255 

> <ROCS_FitTversky>
1.697 

> <ROCS_FitColorTversky>
0.604 

> <ROCS_FitTverskyCombo>
2.300 

> <ROCS_ColorScore>
-2.677

> <ROCS_Overlap>
1152.610

> <ROCS_Rank>
25                  

$$$$
Compound 12_0
  -OEChem-11132309573D

 14 14  0     0  0  0  0  0  0999 V2000
    9.7525   11.2393   23.2610 C   0  0  0  0  0  0  0  0  0  0  0  0
    9.2299    9.9680   23.4416 C   0  0  0  0  0  0  0  0  0  0  0  0
    9.0953   12.2844   23.8907 C   0  0  0  0  0  0  0  0  0  0  0  0
    7.5652   10.7743   24.7558 C   0  0  0  0  0  0  0  0  0  0  0  0
    7.3386   13.1546   25.2821 C   0  0  0  0  0  0  0  0  0  0  0  0
    8.1350    9.6953   24.1836 N   0  0  0  0  0  0  0  0  0  0  0  0
    8.0074   12.0317   24.6310 N   0  3  0  0  0  0  0  0  0  0  0  0
    6.0121   10.3870   25.8076 Br  0  0  0  0  0  0  0  0  0  0  0  0
   10.6348   11.4081   22.6564 H   0  0  0  0  0  0  0  0  0  0  0  0
    9.6981    9.1064   22.9769 H   0  0  0  0  0  0  0  0  0  0  0  0
    9.4188   13.3151   23.8169 H   0  0  0  0  0  0  0  0  0  0  0  0
    6.5788   13.5548   24.6052 H   0  0  0  0  0  0  0  0  0  0  0  0
    6.8632   12.8289   26.2116 H   0  0  0  0  0  0  0  0  0  0  0  0
    8.0700   13.9331   25.5173 H   0  0  0  0  0  0  0  0  0  0  0  0
  1  2  1  0  0  0  0
  1  3  2  0  0  0  0
  2  6  2  0  0  0  0
  3  7  1  0  0  0  0
  4  6  1  0  0  0  0
  4  7  2  0  0  0  0
  4  8  1  0  0  0  0
  5  7  1  0  0  0  0
  1  9  1  0  0  0  0
  2 10  1  0  0  0  0
  3 11  1  0  0  0  0
  5 12  1  0  0  0  0
  5 13  1  0  0  0  0
  5 14  1  0  0  0  0
M  CHG  1   7   1
M  END
> <Structure No>
12

> <Catalog ID>
Z4605084892

> <MW>
300.923

> <MW (desalted)>
174.019

> <ClogP>
-4.414

> <HBD>
0

> <HBA>
1

> <TPSA>
16.77

> <RotBonds>
0

> <logS>

> <ROCS_ShapeQuery>
A71EV2A-x0451_0A_A71EV2A-x0310_0A_A71EV2A-x0416_0A_peptide

> <ROCS_TanimotoCombo>
0.262 

> <ROCS_ShapeTanimoto>
0.179 

> <ROCS_ColorTanimoto>
0.084 

> <ROCS_RefTversky>
0.167 

> <ROCS_RefColorTversky>
0.088 

> <ROCS_RefTverskyCombo>
0.255 

> <ROCS_FitTversky>
1.688 

> <ROCS_FitColorTversky>
0.604 

> <ROCS_FitTverskyCombo>
2.291 

> <ROCS_ColorScore>
-2.677

> <ROCS_Overlap>
1152.732

> <ROCS_Rank>
26                  

$$$$
Compound 13_0
  -OEChem-11132309573D

 14 14  0     0  0  0  0  0  0999 V2000
    9.2476    9.9309   23.4947 C   0  0  0  0  0  0  0  0  0  0  0  0
    9.7737   11.1967   23.3083 C   0  0  0  0  0  0  0  0  0  0  0  0
    8.0079   12.0738   24.5664 C   0  0  0  0  0  0  0  0  0  0  0  0
    7.5162   10.7909   24.7282 C   0  0  0  0  0  0  0  0  0  0  0  0
    9.6688   13.5825   23.6702 C   0  0  0  0  0  0  0  0  0  0  0  0
    8.1200    9.7049   24.2012 N   0  0  0  0  0  0  0  0  0  0  0  0
    9.1318   12.2387   23.8549 N   0  3  0  0  0  0  0  0  0  0  0  0
    5.7734   10.4974   25.8306 I   0  0  0  0  0  0  0  0  0  0  0  0
    9.7260    9.0538   23.0750 H   0  0  0  0  0  0  0  0  0  0  0  0
   10.6756   11.3990   22.7465 H   0  0  0  0  0  0  0  0  0  0  0  0
    7.5527   12.9673   24.9737 H   0  0  0  0  0  0  0  0  0  0  0  0
    9.2371   14.0146   22.7633 H   0  0  0  0  0  0  0  0  0  0  0  0
    9.4210   14.2139   24.5281 H   0  0  0  0  0  0  0  0  0  0  0  0
   10.7573   13.5345   23.5740 H   0  0  0  0  0  0  0  0  0  0  0  0
  1  2  2  0  0  0  0
  1  6  1  0  0  0  0
  2  7  1  0  0  0  0
  3  4  1  0  0  0  0
  3  7  2  0  0  0  0
  4  6  2  0  0  0  0
  4  8  1  0  0  0  0
  5  7  1  0  0  0  0
  1  9  1  0  0  0  0
  2 10  1  0  0  0  0
  3 11  1  0  0  0  0
  5 12  1  0  0  0  0
  5 13  1  0  0  0  0
  5 14  1  0  0  0  0
M  CHG  1   7   1
M  END
> <Structure No>
13

> <Catalog ID>
Z4605084912

> <MW>
347.923

> <MW (desalted)>
221.019

> <ClogP>
-4.454

> <HBD>
0

> <HBA>
1

> <TPSA>
16.77

> <RotBonds>
0

> <logS>

> <ROCS_ShapeQuery>
A71EV2A-x0451_0A_A71EV2A-x0310_0A_A71EV2A-x0416_0A_peptide

> <ROCS_TanimotoCombo>
0.262 

> <ROCS_ShapeTanimoto>
0.179 

> <ROCS_ColorTanimoto>
0.083 

> <ROCS_RefTversky>
0.167 

> <ROCS_RefColorTversky>
0.088 

> <ROCS_RefTverskyCombo>
0.255 

> <ROCS_FitTversky>
1.695 

> <ROCS_FitColorTversky>
0.603 

> <ROCS_FitTverskyCombo>
2.298 

> <ROCS_ColorScore>
-2.674

> <ROCS_Overlap>
1151.535

> <ROCS_Rank>
27                  

$$$$
Compound 6_0
  -OEChem-11132309573D

 19 19  0     0  0  0  0  0  0999 V2000
    8.9922    9.7798   23.5771 C   0  0  0  0  0  0  0  0  0  0  0  0
    7.7968   10.0149   24.2496 C   0  0  0  0  0  0  0  0  0  0  0  0
    9.8690   10.8325   23.3326 C   0  0  0  0  0  0  0  0  0  0  0  0
    7.5059   11.3069   24.6638 C   0  0  0  0  0  0  0  0  0  0  0  0
    9.5256   12.1038   23.7700 C   0  0  0  0  0  0  0  0  0  0  0  0
   10.7686   13.6415   22.3190 C   0  0  0  0  0  0  0  0  0  0  0  0
   10.4227   13.2242   23.5285 C   0  0  0  0  0  0  0  0  0  0  0  0
    7.9980   13.6417   24.8805 C   0  0  0  0  0  0  0  0  0  0  0  0
    8.3681   12.3021   24.4152 N   0  3  0  0  0  0  0  0  0  0  0  0
    9.2403    8.7765   23.2438 H   0  0  0  0  0  0  0  0  0  0  0  0
    7.1049    9.2030   24.4463 H   0  0  0  0  0  0  0  0  0  0  0  0
   10.8012   10.6457   22.8076 H   0  0  0  0  0  0  0  0  0  0  0  0
    6.5944   11.5604   25.1916 H   0  0  0  0  0  0  0  0  0  0  0  0
   11.4347   14.4946   22.2317 H   0  0  0  0  0  0  0  0  0  0  0  0
   10.4225   13.1983   21.3929 H   0  0  0  0  0  0  0  0  0  0  0  0
   10.7944   13.7473   24.3937 H   0  0  0  0  0  0  0  0  0  0  0  0
    8.3802   13.7821   25.8953 H   0  0  0  0  0  0  0  0  0  0  0  0
    8.4226   14.4053   24.2226 H   0  0  0  0  0  0  0  0  0  0  0  0
    6.9091   13.7447   24.8789 H   0  0  0  0  0  0  0  0  0  0  0  0
  1  2  1  0  0  0  0
  1  3  2  0  0  0  0
  2  4  2  0  0  0  0
  3  5  1  0  0  0  0
  4  9  1  0  0  0  0
  5  7  1  0  0  0  0
  5  9  2  0  0  0  0
  6  7  2  0  0  0  0
  8  9  1  0  0  0  0
  1 10  1  0  0  0  0
  2 11  1  0  0  0  0
  3 12  1  0  0  0  0
  4 13  1  0  0  0  0
  6 14  1  0  0  0  0
  6 15  1  0  0  0  0
  7 16  1  0  0  0  0
  8 17  1  0  0  0  0
  8 18  1  0  0  0  0
  8 19  1  0  0  0  0
M  CHG  1   9   1
M  END
> <Structure No>
6

> <Catalog ID>
Z1269141356

> <MW>
246.986

> <MW (desalted)>
120.172

> <ClogP>
-3.475

> <HBD>
0

> <HBA>
0

> <TPSA>
3.88

> <RotBonds>
1

> <logS>

> <ROCS_ShapeQuery>
A71EV2A-x0451_0A_A71EV2A-x0310_0A_A71EV2A-x0416_0A_peptide

> <ROCS_TanimotoCombo>
0.261 

> <ROCS_ShapeTanimoto>
0.209 

> <ROCS_ColorTanimoto>
0.052 

> <ROCS_RefTversky>
0.191 

> <ROCS_RefColorTversky>
0.055 

> <ROCS_RefTverskyCombo>
0.247 

> <ROCS_FitTversky>
1.803 

> <ROCS_FitColorTversky>
0.481 

> <ROCS_FitTverskyCombo>
2.284 

> <ROCS_ColorScore>
-1.676

> <ROCS_Overlap>
1321.831

> <ROCS_Rank>
28                  

$$$$
Compound 21_0
  -OEChem-11132309573D

 20 20  0     0  0  0  0  0  0999 V2000
    9.5693   10.6516   23.2996 C   0  0  0  0  0  0  0  0  0  0  0  0
    8.5147    9.8916   23.9261 C   0  0  0  0  0  0  0  0  0  0  0  0
    9.3926   11.9951   23.6588 C   0  0  0  0  0  0  0  0  0  0  0  0
   11.4218   13.2381   23.0650 C   0  0  0  0  0  0  0  0  0  0  0  0
   10.1002   13.1691   23.3532 C   0  0  0  0  0  0  0  0  0  0  0  0
    7.7103   13.2350   25.0846 C   0  0  0  0  0  0  0  0  0  0  0  0
    6.5494   10.3840   25.4237 C   0  0  0  0  0  0  0  0  0  0  0  0
    8.2757   12.0520   24.4713 N   0  0  0  0  0  0  0  0  0  0  0  0
    7.7013   10.7323   24.6559 N   0  3  0  0  0  0  0  0  0  0  0  0
   10.3553   10.2616   22.6676 H   0  0  0  0  0  0  0  0  0  0  0  0
    8.3382    8.8273   23.8686 H   0  0  0  0  0  0  0  0  0  0  0  0
   11.8857   14.1907   22.8274 H   0  0  0  0  0  0  0  0  0  0  0  0
   12.0642   12.3659   23.0440 H   0  0  0  0  0  0  0  0  0  0  0  0
    9.5606   14.1282   23.3098 H   0  0  0  0  0  0  0  0  0  0  0  0
    6.9778   13.6570   24.3915 H   0  0  0  0  0  0  0  0  0  0  0  0
    7.2303   12.9619   26.0285 H   0  0  0  0  0  0  0  0  0  0  0  0
    8.5087   13.9553   25.2842 H   0  0  0  0  0  0  0  0  0  0  0  0
    6.8617   10.1539   26.4460 H   0  0  0  0  0  0  0  0  0  0  0  0
    5.8357   11.2125   25.4386 H   0  0  0  0  0  0  0  0  0  0  0  0
    6.0620    9.5103   24.9814 H   0  0  0  0  0  0  0  0  0  0  0  0
  1  2  1  0  0  0  0
  1  3  2  0  0  0  0
  2  9  2  0  0  0  0
  3  5  1  0  0  0  0
  3  8  1  0  0  0  0
  4  5  2  0  0  0  0
  6  8  1  0  0  0  0
  7  9  1  0  0  0  0
  8  9  1  0  0  0  0
  1 10  1  0  0  0  0
  2 11  1  0  0  0  0
  4 12  1  0  0  0  0
  4 13  1  0  0  0  0
  5 14  1  0  0  0  0
  6 15  1  0  0  0  0
  6 16  1  0  0  0  0
  6 17  1  0  0  0  0
  7 18  1  0  0  0  0
  7 19  1  0  0  0  0
  7 20  1  0  0  0  0
M  CHG  1   9   1
M  END
> <Structure No>
21

> <Catalog ID>
Z4605084899

> <MW>
250.08

> <MW (desalted)>
123.176

> <ClogP>
-2.853

> <HBD>
0

> <HBA>
0

> <TPSA>
8.81

> <RotBonds>
1

> <logS>

> <ROCS_ShapeQuery>
A71EV2A-x0451_0A_A71EV2A-x0310_0A_A71EV2A-x0416_0A_peptide

> <ROCS_TanimotoCombo>
0.261 

> <ROCS_ShapeTanimoto>
0.209 

> <ROCS_ColorTanimoto>
0.052 

> <ROCS_RefTversky>
0.191 

> <ROCS_RefColorTversky>
0.055 

> <ROCS_RefTverskyCombo>
0.246 

> <ROCS_FitTversky>
1.815 

> <ROCS_FitColorTversky>
0.481 

> <ROCS_FitTverskyCombo>
2.296 

> <ROCS_ColorScore>
-1.676

> <ROCS_Overlap>
1320.063

> <ROCS_Rank>
29                  

$$$$
Compound 40_0
  -OEChem-11132309573D

 14 14  0     0  0  0  0  0  0999 V2000
    9.7446   11.2355   23.2469 C   0  0  0  0  0  0  0  0  0  0  0  0
    9.2209    9.9656   23.4339 C   0  0  0  0  0  0  0  0  0  0  0  0
    9.0964   12.2826   23.8827 C   0  0  0  0  0  0  0  0  0  0  0  0
    7.5718   10.7768   24.7649 C   0  0  0  0  0  0  0  0  0  0  0  0
    7.3611   13.1630   25.2878 C   0  0  0  0  0  0  0  0  0  0  0  0
    8.1331    9.6960   24.1876 N   0  0  0  0  0  0  0  0  0  0  0  0
    8.0157   12.0331   24.6345 N   0  3  0  0  0  0  0  0  0  0  0  0
    5.8627   10.3255   25.9447 I   0  0  0  0  0  0  0  0  0  0  0  0
   10.6203   11.4022   22.6323 H   0  0  0  0  0  0  0  0  0  0  0  0
    9.6814    9.1026   22.9640 H   0  0  0  0  0  0  0  0  0  0  0  0
    9.4215   13.3125   23.8040 H   0  0  0  0  0  0  0  0  0  0  0  0
    6.5964   13.5649   24.6175 H   0  0  0  0  0  0  0  0  0  0  0  0
    6.8939   12.8445   26.2239 H   0  0  0  0  0  0  0  0  0  0  0  0
    8.0999   13.9380   25.5115 H   0  0  0  0  0  0  0  0  0  0  0  0
  1  2  1  0  0  0  0
  1  3  2  0  0  0  0
  2  6  2  0  0  0  0
  3  7  1  0  0  0  0
  4  6  1  0  0  0  0
  4  7  2  0  0  0  0
  4  8  1  0  0  0  0
  5  7  1  0  0  0  0
  1  9  1  0  0  0  0
  2 10  1  0  0  0  0
  3 11  1  0  0  0  0
  5 12  1  0  0  0  0
  5 13  1  0  0  0  0
  5 14  1  0  0  0  0
M  CHG  1   7   1
M  END
> <Structure No>
43

> <Catalog ID>
Z4605084887

> <MW>
347.923

> <MW (desalted)>
221.019

> <ClogP>
-4.454

> <HBD>
0

> <HBA>
1

> <TPSA>
16.77

> <RotBonds>
0

> <logS>

> <ROCS_ShapeQuery>
A71EV2A-x0451_0A_A71EV2A-x0310_0A_A71EV2A-x0416_0A_peptide

> <ROCS_TanimotoCombo>
0.260 

> <ROCS_ShapeTanimoto>
0.177 

> <ROCS_ColorTanimoto>
0.084 

> <ROCS_RefTversky>
0.165 

> <ROCS_RefColorTversky>
0.088 

> <ROCS_RefTverskyCombo>
0.254 

> <ROCS_FitTversky>
1.680 

> <ROCS_FitColorTversky>
0.604 

> <ROCS_FitTverskyCombo>
2.284 

> <ROCS_ColorScore>
-2.677

> <ROCS_Overlap>
1141.229

> <ROCS_Rank>
30                  

$$$$
Compound 11_0
  -OEChem-11132309573D

 18 18  0     0  0  0  0  0  0999 V2000
    9.5006   11.8859   23.6315 C   0  0  0  0  0  0  0  0  0  0  0  0
    8.3578   12.1220   24.4334 C   0  0  0  0  0  0  0  0  0  0  0  0
    9.4670   10.5184   23.3738 C   0  0  0  0  0  0  0  0  0  0  0  0
    7.8147   13.3406   25.0409 C   0  0  0  0  0  0  0  0  0  0  0  0
   10.3574    9.6308   22.6049 C   0  0  0  0  0  0  0  0  0  0  0  0
    6.4934   10.7193   25.3762 C   0  0  0  0  0  0  0  0  0  0  0  0
    7.6966   10.9323   24.6262 N   0  3  0  0  0  0  0  0  0  0  0  0
    8.3904    9.8879   23.9548 O   0  0  0  0  0  0  0  0  0  0  0  0
   10.8830   13.2378   22.9965 I   0  0  0  0  0  0  0  0  0  0  0  0
    7.1058   13.8524   24.3636 H   0  0  0  0  0  0  0  0  0  0  0  0
    7.2750   13.1387   25.9864 H   0  0  0  0  0  0  0  0  0  0  0  0
    8.6039   14.0725   25.3012 H   0  0  0  0  0  0  0  0  0  0  0  0
   11.1569    9.2170   23.2425 H   0  0  0  0  0  0  0  0  0  0  0  0
    9.8129    8.7799   22.1589 H   0  0  0  0  0  0  0  0  0  0  0  0
   10.8413   10.1556   21.7621 H   0  0  0  0  0  0  0  0  0  0  0  0
    5.6349   10.8409   24.7100 H   0  0  0  0  0  0  0  0  0  0  0  0
    6.4831    9.7127   25.8035 H   0  0  0  0  0  0  0  0  0  0  0  0
    6.4336   11.4462   26.1913 H   0  0  0  0  0  0  0  0  0  0  0  0
  1  2  1  0  0  0  0
  1  3  2  0  0  0  0
  1  9  1  0  0  0  0
  2  4  1  0  0  0  0
  2  7  2  0  0  0  0
  3  5  1  0  0  0  0
  3  8  1  0  0  0  0
  6  7  1  0  0  0  0
  7  8  1  0  0  0  0
  4 10  1  0  0  0  0
  4 11  1  0  0  0  0
  4 12  1  0  0  0  0
  5 13  1  0  0  0  0
  5 14  1  0  0  0  0
  5 15  1  0  0  0  0
  6 16  1  0  0  0  0
  6 17  1  0  0  0  0
  6 18  1  0  0  0  0
M  CHG  1   7   1
M  END
> <Structure No>
11

> <Catalog ID>
Z4605084891

> <MW>
364.951

> <MW (desalted)>
238.046

> <ClogP>
0.108

> <HBD>
0

> <HBA>
0

> <TPSA>
17.02

> <RotBonds>
0

> <logS>

> <ROCS_ShapeQuery>
A71EV2A-x0451_0A_A71EV2A-x0310_0A_A71EV2A-x0416_0A_peptide

> <ROCS_TanimotoCombo>
0.257 

> <ROCS_ShapeTanimoto>
0.205 

> <ROCS_ColorTanimoto>
0.052 

> <ROCS_RefTversky>
0.187 

> <ROCS_RefColorTversky>
0.055 

> <ROCS_RefTverskyCombo>
0.243 

> <ROCS_FitTversky>
1.814 

> <ROCS_FitColorTversky>
0.481 

> <ROCS_FitTverskyCombo>
2.295 

> <ROCS_ColorScore>
-1.676

> <ROCS_Overlap>
1296.286

> <ROCS_Rank>
31                  

$$$$
Compound 16_0
  -OEChem-11132309573D

 15 15  0     0  0  0  0  0  0999 V2000
    8.7740    9.7202   23.6864 C   0  0  0  0  0  0  0  0  0  0  0  0
    9.7286   10.6161   23.2147 C   0  0  0  0  0  0  0  0  0  0  0  0
    7.7362   10.2015   24.4718 C   0  0  0  0  0  0  0  0  0  0  0  0
    8.5700   12.3914   24.3231 C   0  0  0  0  0  0  0  0  0  0  0  0
    9.6295   11.9670   23.5340 C   0  0  0  0  0  0  0  0  0  0  0  0
    6.5605   11.9835   25.5921 C   0  0  0  0  0  0  0  0  0  0  0  0
    7.6648   11.5073   24.7641 N   0  3  0  0  0  0  0  0  0  0  0  0
   10.7954   13.0902   22.9623 Cl  0  0  0  0  0  0  0  0  0  0  0  0
    8.8399    8.6646   23.4453 H   0  0  0  0  0  0  0  0  0  0  0  0
   10.5447   10.2476   22.5991 H   0  0  0  0  0  0  0  0  0  0  0  0
    6.9586    9.5628   24.8725 H   0  0  0  0  0  0  0  0  0  0  0  0
    8.4214   13.4238   24.6169 H   0  0  0  0  0  0  0  0  0  0  0  0
    6.8613   11.9398   26.6424 H   0  0  0  0  0  0  0  0  0  0  0  0
    6.3030   13.0134   25.3295 H   0  0  0  0  0  0  0  0  0  0  0  0
    5.6818   11.3518   25.4334 H   0  0  0  0  0  0  0  0  0  0  0  0
  1  2  2  0  0  0  0
  1  3  1  0  0  0  0
  2  5  1  0  0  0  0
  3  7  2  0  0  0  0
  4  5  2  0  0  0  0
  4  7  1  0  0  0  0
  5  8  1  0  0  0  0
  6  7  1  0  0  0  0
  1  9  1  0  0  0  0
  2 10  1  0  0  0  0
  3 11  1  0  0  0  0
  4 12  1  0  0  0  0
  6 13  1  0  0  0  0
  6 14  1  0  0  0  0
  6 15  1  0  0  0  0
M  CHG  1   7   1
M  END
> <Structure No>
16

> <Catalog ID>
Z3300854456

> <MW>
254.931

> <MW (desalted)>
128.579

> <ClogP>
-3.486

> <HBD>
0

> <HBA>
0

> <TPSA>
3.88

> <RotBonds>
0

> <logS>

> <ROCS_ShapeQuery>
A71EV2A-x0451_0A_A71EV2A-x0310_0A_A71EV2A-x0416_0A_peptide

> <ROCS_TanimotoCombo>
0.248 

> <ROCS_ShapeTanimoto>
0.194 

> <ROCS_ColorTanimoto>
0.054 

> <ROCS_RefTversky>
0.178 

> <ROCS_RefColorTversky>
0.056 

> <ROCS_RefTverskyCombo>
0.234 

> <ROCS_FitTversky>
1.804 

> <ROCS_FitColorTversky>
0.661 

> <ROCS_FitTverskyCombo>
2.465 

> <ROCS_ColorScore>
-1.676

> <ROCS_Overlap>
1231.709

> <ROCS_Rank>
32                  

$$$$
Compound 19_0
  -OEChem-11132309573D

 15 15  0     0  0  0  0  0  0999 V2000
    8.8555    9.7366   23.6625 C   0  0  0  0  0  0  0  0  0  0  0  0
    9.7530   10.6957   23.2030 C   0  0  0  0  0  0  0  0  0  0  0  0
    7.7964   10.1413   24.4624 C   0  0  0  0  0  0  0  0  0  0  0  0
    8.4996   12.3788   24.3515 C   0  0  0  0  0  0  0  0  0  0  0  0
    9.5771   12.0322   23.5487 C   0  0  0  0  0  0  0  0  0  0  0  0
    6.5259   11.8291   25.6241 C   0  0  0  0  0  0  0  0  0  0  0  0
    7.6506   11.4349   24.7802 N   0  3  0  0  0  0  0  0  0  0  0  0
   10.8961   13.4800   22.8800 I   0  0  0  0  0  0  0  0  0  0  0  0
    8.9812    8.6917   23.4000 H   0  0  0  0  0  0  0  0  0  0  0  0
   10.5827   10.3807   22.5754 H   0  0  0  0  0  0  0  0  0  0  0  0
    7.0609    9.4505   24.8561 H   0  0  0  0  0  0  0  0  0  0  0  0
    8.2856   13.3933   24.6669 H   0  0  0  0  0  0  0  0  0  0  0  0
    6.8362   11.7833   26.6716 H   0  0  0  0  0  0  0  0  0  0  0  0
    6.2061   12.8468   25.3832 H   0  0  0  0  0  0  0  0  0  0  0  0
    5.6849   11.1496   25.4585 H   0  0  0  0  0  0  0  0  0  0  0  0
  1  2  2  0  0  0  0
  1  3  1  0  0  0  0
  2  5  1  0  0  0  0
  3  7  2  0  0  0  0
  4  5  2  0  0  0  0
  4  7  1  0  0  0  0
  5  8  1  0  0  0  0
  6  7  1  0  0  0  0
  1  9  1  0  0  0  0
  2 10  1  0  0  0  0
  3 11  1  0  0  0  0
  4 12  1  0  0  0  0
  6 13  1  0  0  0  0
  6 14  1  0  0  0  0
  6 15  1  0  0  0  0
M  CHG  1   7   1
M  END
> <Structure No>
19

> <Catalog ID>
Z1269193703

> <MW>
346.867

> <MW (desalted)>
220.031

> <ClogP>
-3.076

> <HBD>
0

> <HBA>
0

> <TPSA>
3.88

> <RotBonds>
0

> <logS>

> <ROCS_ShapeQuery>
A71EV2A-x0451_0A_A71EV2A-x0310_0A_A71EV2A-x0416_0A_peptide

> <ROCS_TanimotoCombo>
0.246 

> <ROCS_ShapeTanimoto>
0.194 

> <ROCS_ColorTanimoto>
0.052 

> <ROCS_RefTversky>
0.178 

> <ROCS_RefColorTversky>
0.055 

> <ROCS_RefTverskyCombo>
0.234 

> <ROCS_FitTversky>
1.823 

> <ROCS_FitColorTversky>
0.481 

> <ROCS_FitTverskyCombo>
2.304 

> <ROCS_ColorScore>
-1.676

> <ROCS_Overlap>
1232.089

> <ROCS_Rank>
33                  

$$$$
Compound 35_0
  -OEChem-11132309573D

 15 15  0     0  0  0  0  0  0999 V2000
    8.7676    9.7291   23.6648 C   0  0  0  0  0  0  0  0  0  0  0  0
    9.7154   10.6360   23.2004 C   0  0  0  0  0  0  0  0  0  0  0  0
    7.7376   10.1927   24.4707 C   0  0  0  0  0  0  0  0  0  0  0  0
    8.5658   12.3868   24.3562 C   0  0  0  0  0  0  0  0  0  0  0  0
    9.6174   11.9801   23.5474 C   0  0  0  0  0  0  0  0  0  0  0  0
    6.5711   11.9496   25.6394 C   0  0  0  0  0  0  0  0  0  0  0  0
    7.6670   11.4923   24.7894 N   0  3  0  0  0  0  0  0  0  0  0  0
   10.8885   13.2287   22.9310 Br  0  0  0  0  0  0  0  0  0  0  0  0
    8.8328    8.6788   23.4018 H   0  0  0  0  0  0  0  0  0  0  0  0
   10.5245   10.2796   22.5682 H   0  0  0  0  0  0  0  0  0  0  0  0
    6.9655    9.5448   24.8673 H   0  0  0  0  0  0  0  0  0  0  0  0
    8.4160   13.4125   24.6723 H   0  0  0  0  0  0  0  0  0  0  0  0
    6.8841   11.8859   26.6852 H   0  0  0  0  0  0  0  0  0  0  0  0
    6.3085   12.9839   25.4003 H   0  0  0  0  0  0  0  0  0  0  0  0
    5.6920   11.3191   25.4784 H   0  0  0  0  0  0  0  0  0  0  0  0
  1  2  2  0  0  0  0
  1  3  1  0  0  0  0
  2  5  1  0  0  0  0
  3  7  2  0  0  0  0
  4  5  2  0  0  0  0
  4  7  1  0  0  0  0
  5  8  1  0  0  0  0
  6  7  1  0  0  0  0
  1  9  1  0  0  0  0
  2 10  1  0  0  0  0
  3 11  1  0  0  0  0
  4 12  1  0  0  0  0
  6 13  1  0  0  0  0
  6 14  1  0  0  0  0
  6 15  1  0  0  0  0
M  CHG  1   7   1
M  END
> <Structure No>
37

> <Catalog ID>
Z1269184291

> <MW>
298.881

> <MW (desalted)>
173.03

> <ClogP>
-3.336

> <HBD>
0

> <HBA>
0

> <TPSA>
3.88

> <RotBonds>
0

> <logS>

> <ROCS_ShapeQuery>
A71EV2A-x0451_0A_A71EV2A-x0310_0A_A71EV2A-x0416_0A_peptide

> <ROCS_TanimotoCombo>
0.246 

> <ROCS_ShapeTanimoto>
0.194 

> <ROCS_ColorTanimoto>
0.052 

> <ROCS_RefTversky>
0.178 

> <ROCS_RefColorTversky>
0.055 

> <ROCS_RefTverskyCombo>
0.234 

> <ROCS_FitTversky>
1.814 

> <ROCS_FitColorTversky>
0.481 

> <ROCS_FitTverskyCombo>
2.295 

> <ROCS_ColorScore>
-1.676

> <ROCS_Overlap>
1231.743

> <ROCS_Rank>
34                  

$$$$
Compound 45_0
  -OEChem-11132309573D

 15 15  0     0  0  0  0  0  0999 V2000
    9.7457   10.6736   23.1954 C   0  0  0  0  0  0  0  0  0  0  0  0
    8.5390   12.3995   24.3650 C   0  0  0  0  0  0  0  0  0  0  0  0
    8.8157    9.7531   23.6571 C   0  0  0  0  0  0  0  0  0  0  0  0
    7.6394   11.4354   24.7971 C   0  0  0  0  0  0  0  0  0  0  0  0
    9.6019   12.0100   23.5556 C   0  0  0  0  0  0  0  0  0  0  0  0
    6.8399    9.1631   24.9065 C   0  0  0  0  0  0  0  0  0  0  0  0
    7.8016   10.1554   24.4353 N   0  3  0  0  0  0  0  0  0  0  0  0
   10.7366   13.1783   23.0013 Cl  0  0  0  0  0  0  0  0  0  0  0  0
   10.5656   10.3424   22.5653 H   0  0  0  0  0  0  0  0  0  0  0  0
    8.4033   13.4353   24.6604 H   0  0  0  0  0  0  0  0  0  0  0  0
    8.8657    8.6978   23.4184 H   0  0  0  0  0  0  0  0  0  0  0  0
    6.7894   11.6667   25.4273 H   0  0  0  0  0  0  0  0  0  0  0  0
    7.1872    8.7593   25.8615 H   0  0  0  0  0  0  0  0  0  0  0  0
    5.8551    9.6193   25.0406 H   0  0  0  0  0  0  0  0  0  0  0  0
    6.7546    8.3555   24.1738 H   0  0  0  0  0  0  0  0  0  0  0  0
  1  3  1  0  0  0  0
  1  5  2  0  0  0  0
  2  4  2  0  0  0  0
  2  5  1  0  0  0  0
  3  7  2  0  0  0  0
  4  7  1  0  0  0  0
  5  8  1  0  0  0  0
  6  7  1  0  0  0  0
  1  9  1  0  0  0  0
  2 10  1  0  0  0  0
  3 11  1  0  0  0  0
  4 12  1  0  0  0  0
  6 13  1  0  0  0  0
  6 14  1  0  0  0  0
  6 15  1  0  0  0  0
M  CHG  1   7   1
M  END
> <Structure No>
48

> <Catalog ID>
Z4605084913

> <MW>
291.945

> <MW (desalted)>
128.579

> <ClogP>
-3.486

> <HBD>
0

> <HBA>
0

> <TPSA>
3.88

> <RotBonds>
0

> <logS>

> <ROCS_ShapeQuery>
A71EV2A-x0451_0A_A71EV2A-x0310_0A_A71EV2A-x0416_0A_peptide

> <ROCS_TanimotoCombo>
0.243 

> <ROCS_ShapeTanimoto>
0.189 

> <ROCS_ColorTanimoto>
0.054 

> <ROCS_RefTversky>
0.175 

> <ROCS_RefColorTversky>
0.056 

> <ROCS_RefTverskyCombo>
0.230 

> <ROCS_FitTversky>
1.769 

> <ROCS_FitColorTversky>
0.661 

> <ROCS_FitTverskyCombo>
2.430 

> <ROCS_ColorScore>
-1.676

> <ROCS_Overlap>
1207.682

> <ROCS_Rank>
35                  

$$$$
Compound 32_0
  -OEChem-11132309573D

 16 16  0     0  0  0  0  0  0999 V2000
    8.4546   12.1631   24.3219 C   0  0  0  0  0  0  0  0  0  0  0  0
    8.2987    9.9676   24.0863 C   0  0  0  0  0  0  0  0  0  0  0  0
    9.5221   11.7418   23.5803 C   0  0  0  0  0  0  0  0  0  0  0  0
    6.4904   11.0264   25.3940 C   0  0  0  0  0  0  0  0  0  0  0  0
   10.3139    9.5059   22.7422 C   0  0  0  0  0  0  0  0  0  0  0  0
    7.7143   11.0448   24.6207 N   0  0  0  0  0  0  0  0  0  0  0  0
    9.4002   10.3793   23.4503 N   0  3  0  0  0  0  0  0  0  0  0  0
   10.7782   12.7500   22.9379 Cl  0  0  0  0  0  0  0  0  0  0  0  0
    8.1080   13.1113   24.6861 H   0  0  0  0  0  0  0  0  0  0  0  0
    7.9461    8.9506   24.1571 H   0  0  0  0  0  0  0  0  0  0  0  0
    5.6530   11.1550   24.7031 H   0  0  0  0  0  0  0  0  0  0  0  0
    6.4074   10.0723   25.9218 H   0  0  0  0  0  0  0  0  0  0  0  0
    6.5126   11.8393   26.1251 H   0  0  0  0  0  0  0  0  0  0  0  0
    9.9882    9.4215   21.7018 H   0  0  0  0  0  0  0  0  0  0  0  0
   11.3298    9.9096   22.7740 H   0  0  0  0  0  0  0  0  0  0  0  0
   10.3154    8.5171   23.2096 H   0  0  0  0  0  0  0  0  0  0  0  0
  1  3  2  0  0  0  0
  1  6  1  0  0  0  0
  2  6  1  0  0  0  0
  2  7  2  0  0  0  0
  3  7  1  0  0  0  0
  3  8  1  0  0  0  0
  4  6  1  0  0  0  0
  5  7  1  0  0  0  0
  1  9  1  0  0  0  0
  2 10  1  0  0  0  0
  4 11  1  0  0  0  0
  4 12  1  0  0  0  0
  4 13  1  0  0  0  0
  5 14  1  0  0  0  0
  5 15  1  0  0  0  0
  5 16  1  0  0  0  0
M  CHG  1   7   1
M  END
> <Structure No>
33

> <Catalog ID>
Z4605084885

> <MW>
258.488

> <MW (desalted)>
131.583

> <ClogP>
-3.124

> <HBD>
0

> <HBA>
0

> <TPSA>
8.81

> <RotBonds>
0

> <logS>

> <ROCS_ShapeQuery>
A71EV2A-x0451_0A_A71EV2A-x0310_0A_A71EV2A-x0416_0A_peptide

> <ROCS_TanimotoCombo>
0.242 

> <ROCS_ShapeTanimoto>
0.190 

> <ROCS_ColorTanimoto>
0.052 

> <ROCS_RefTversky>
0.175 

> <ROCS_RefColorTversky>
0.055 

> <ROCS_RefTverskyCombo>
0.231 

> <ROCS_FitTversky>
1.766 

> <ROCS_FitColorTversky>
0.481 

> <ROCS_FitTverskyCombo>
2.247 

> <ROCS_ColorScore>
-1.676

> <ROCS_Overlap>
1212.993

> <ROCS_Rank>
36                  

$$$$
Compound 28_0
  -OEChem-11132309573D

 16 16  0     0  0  0  0  0  0999 V2000
    8.2767   12.1299   24.4369 C   0  0  0  0  0  0  0  0  0  0  0  0
    9.5424   10.5413   23.3685 C   0  0  0  0  0  0  0  0  0  0  0  0
    9.4366   11.9483   23.6707 C   0  0  0  0  0  0  0  0  0  0  0  0
    6.4816   10.6105   25.3229 C   0  0  0  0  0  0  0  0  0  0  0  0
    8.2101    8.4610   23.8668 C   0  0  0  0  0  0  0  0  0  0  0  0
    7.6989   10.8841   24.5955 N   0  0  0  0  0  0  0  0  0  0  0  0
    8.4817    9.8608   23.9278 N   0  3  0  0  0  0  0  0  0  0  0  0
   10.7373   13.4094   23.0878 I   0  0  0  0  0  0  0  0  0  0  0  0
    7.8266   13.0135   24.8690 H   0  0  0  0  0  0  0  0  0  0  0  0
   10.3073   10.0329   22.7983 H   0  0  0  0  0  0  0  0  0  0  0  0
    5.6453   10.6920   24.6237 H   0  0  0  0  0  0  0  0  0  0  0  0
    6.5291    9.6033   25.7464 H   0  0  0  0  0  0  0  0  0  0  0  0
    6.3749   11.3356   26.1346 H   0  0  0  0  0  0  0  0  0  0  0  0
    8.6914    7.9697   24.7169 H   0  0  0  0  0  0  0  0  0  0  0  0
    7.1323    8.2792   23.9036 H   0  0  0  0  0  0  0  0  0  0  0  0
    8.6025    8.0497   22.9324 H   0  0  0  0  0  0  0  0  0  0  0  0
  1  3  2  0  0  0  0
  1  6  1  0  0  0  0
  2  3  1  0  0  0  0
  2  7  2  0  0  0  0
  3  8  1  0  0  0  0
  4  6  1  0  0  0  0
  5  7  1  0  0  0  0
  6  7  1  0  0  0  0
  1  9  1  0  0  0  0
  2 10  1  0  0  0  0
  4 11  1  0  0  0  0
  4 12  1  0  0  0  0
  4 13  1  0  0  0  0
  5 14  1  0  0  0  0
  5 15  1  0  0  0  0
  5 16  1  0  0  0  0
M  CHG  1   7   1
M  END
> <Structure No>
28

> <Catalog ID>
Z4605084927

> <MW>
349.939

> <MW (desalted)>
223.035

> <ClogP>
-2.454

> <HBD>
0

> <HBA>
0

> <TPSA>
8.81

> <RotBonds>
0

> <logS>

> <ROCS_ShapeQuery>
A71EV2A-x0451_0A_A71EV2A-x0310_0A_A71EV2A-x0416_0A_peptide

> <ROCS_TanimotoCombo>
0.242 

> <ROCS_ShapeTanimoto>
0.189 

> <ROCS_ColorTanimoto>
0.052 

> <ROCS_RefTversky>
0.175 

> <ROCS_RefColorTversky>
0.055 

> <ROCS_RefTverskyCombo>
0.230 

> <ROCS_FitTversky>
1.800 

> <ROCS_FitColorTversky>
0.481 

> <ROCS_FitTverskyCombo>
2.281 

> <ROCS_ColorScore>
-1.676

> <ROCS_Overlap>
1208.006

> <ROCS_Rank>
37                  

$$$$
Compound 22_0
  -OEChem-11132309573D

 15 15  0     0  0  0  0  0  0999 V2000
    8.4276   12.3851   24.3573 C   0  0  0  0  0  0  0  0  0  0  0  0
    9.8057   10.7526   23.2442 C   0  0  0  0  0  0  0  0  0  0  0  0
    7.5756   11.3592   24.7408 C   0  0  0  0  0  0  0  0  0  0  0  0
    8.9188    9.7680   23.6559 C   0  0  0  0  0  0  0  0  0  0  0  0
    9.5535   12.0738   23.6011 C   0  0  0  0  0  0  0  0  0  0  0  0
    6.9269    9.0376   24.8023 C   0  0  0  0  0  0  0  0  0  0  0  0
    7.8423   10.0956   24.3835 N   0  3  0  0  0  0  0  0  0  0  0  0
   10.8549   13.5787   23.0058 I   0  0  0  0  0  0  0  0  0  0  0  0
    8.2005   13.4049   24.6529 H   0  0  0  0  0  0  0  0  0  0  0  0
   10.6746   10.4751   22.6553 H   0  0  0  0  0  0  0  0  0  0  0  0
    6.6824   11.5270   25.3304 H   0  0  0  0  0  0  0  0  0  0  0  0
    9.0519    8.7203   23.4156 H   0  0  0  0  0  0  0  0  0  0  0  0
    6.1576    8.9111   24.0356 H   0  0  0  0  0  0  0  0  0  0  0  0
    7.4670    8.0959   24.9351 H   0  0  0  0  0  0  0  0  0  0  0  0
    6.4592    9.3098   25.7528 H   0  0  0  0  0  0  0  0  0  0  0  0
  1  3  1  0  0  0  0
  1  5  2  0  0  0  0
  2  4  2  0  0  0  0
  2  5  1  0  0  0  0
  3  7  2  0  0  0  0
  4  7  1  0  0  0  0
  5  8  1  0  0  0  0
  6  7  1  0  0  0  0
  1  9  1  0  0  0  0
  2 10  1  0  0  0  0
  3 11  1  0  0  0  0
  4 12  1  0  0  0  0
  6 13  1  0  0  0  0
  6 14  1  0  0  0  0
  6 15  1  0  0  0  0
M  CHG  1   7   1
M  END
> <Structure No>
22

> <Catalog ID>
Z4605084905

> <MW>
346.935

> <MW (desalted)>
220.031

> <ClogP>
-3.076

> <HBD>
0

> <HBA>
0

> <TPSA>
3.88

> <RotBonds>
0

> <logS>

> <ROCS_ShapeQuery>
A71EV2A-x0451_0A_A71EV2A-x0310_0A_A71EV2A-x0416_0A_peptide

> <ROCS_TanimotoCombo>
0.242 

> <ROCS_ShapeTanimoto>
0.189 

> <ROCS_ColorTanimoto>
0.052 

> <ROCS_RefTversky>
0.175 

> <ROCS_RefColorTversky>
0.055 

> <ROCS_RefTverskyCombo>
0.230 

> <ROCS_FitTversky>
1.787 

> <ROCS_FitColorTversky>
0.481 

> <ROCS_FitTverskyCombo>
2.268 

> <ROCS_ColorScore>
-1.676

> <ROCS_Overlap>
1208.074

> <ROCS_Rank>
38                  

$$$$
Compound 25_0
  -OEChem-11132309573D

 15 15  0     0  0  0  0  0  0999 V2000
    8.5308   12.4190   24.2738 C   0  0  0  0  0  0  0  0  0  0  0  0
    9.7541   10.6143   23.2492 C   0  0  0  0  0  0  0  0  0  0  0  0
    7.6150   11.4894   24.7458 C   0  0  0  0  0  0  0  0  0  0  0  0
    8.8075    9.7304   23.7473 C   0  0  0  0  0  0  0  0  0  0  0  0
    9.6103   11.9722   23.5179 C   0  0  0  0  0  0  0  0  0  0  0  0
    6.7974    9.2337   24.9829 C   0  0  0  0  0  0  0  0  0  0  0  0
    7.7776   10.1877   24.4724 N   0  3  0  0  0  0  0  0  0  0  0  0
   10.8783   13.2075   22.8577 Br  0  0  0  0  0  0  0  0  0  0  0  0
    8.3926   13.4719   24.4994 H   0  0  0  0  0  0  0  0  0  0  0  0
   10.5860   10.2370   22.6625 H   0  0  0  0  0  0  0  0  0  0  0  0
    6.7522   11.7650   25.3397 H   0  0  0  0  0  0  0  0  0  0  0  0
    8.8556    8.6617   23.5778 H   0  0  0  0  0  0  0  0  0  0  0  0
    6.0013    9.1140   24.2429 H   0  0  0  0  0  0  0  0  0  0  0  0
    7.2692    8.2649   25.1700 H   0  0  0  0  0  0  0  0  0  0  0  0
    6.3760    9.6048   25.9214 H   0  0  0  0  0  0  0  0  0  0  0  0
  1  3  1  0  0  0  0
  1  5  2  0  0  0  0
  2  4  2  0  0  0  0
  2  5  1  0  0  0  0
  3  7  2  0  0  0  0
  4  7  1  0  0  0  0
  5  8  1  0  0  0  0
  6  7  1  0  0  0  0
  1  9  1  0  0  0  0
  2 10  1  0  0  0  0
  3 11  1  0  0  0  0
  4 12  1  0  0  0  0
  6 13  1  0  0  0  0
  6 14  1  0  0  0  0
  6 15  1  0  0  0  0
M  CHG  1   7   1
M  END
> <Structure No>
25

> <Catalog ID>
Z1269141041

> <MW>
298.881

> <MW (desalted)>
173.03

> <ClogP>
-3.336

> <HBD>
0

> <HBA>
0

> <TPSA>
3.88

> <RotBonds>
0

> <logS>

> <ROCS_ShapeQuery>
A71EV2A-x0451_0A_A71EV2A-x0310_0A_A71EV2A-x0416_0A_peptide

> <ROCS_TanimotoCombo>
0.241 

> <ROCS_ShapeTanimoto>
0.189 

> <ROCS_ColorTanimoto>
0.052 

> <ROCS_RefTversky>
0.175 

> <ROCS_RefColorTversky>
0.055 

> <ROCS_RefTverskyCombo>
0.230 

> <ROCS_FitTversky>
1.777 

> <ROCS_FitColorTversky>
0.481 

> <ROCS_FitTverskyCombo>
2.258 

> <ROCS_ColorScore>
-1.676

> <ROCS_Overlap>
1207.094

> <ROCS_Rank>
39                  

$$$$
Compound 33_0
  -OEChem-11132309573D

 16 16  0     0  0  0  0  0  0999 V2000
    8.4413   12.1731   24.3246 C   0  0  0  0  0  0  0  0  0  0  0  0
    8.2933    9.9780   24.0795 C   0  0  0  0  0  0  0  0  0  0  0  0
    9.5103   11.7589   23.5813 C   0  0  0  0  0  0  0  0  0  0  0  0
    6.4817   11.0233   25.3927 C   0  0  0  0  0  0  0  0  0  0  0  0
   10.3023    9.5202   22.7324 C   0  0  0  0  0  0  0  0  0  0  0  0
    7.7050   11.0508   24.6185 N   0  0  0  0  0  0  0  0  0  0  0  0
    9.3934   10.3965   23.4454 N   0  3  0  0  0  0  0  0  0  0  0  0
   10.9794   12.9784   22.8330 I   0  0  0  0  0  0  0  0  0  0  0  0
    8.0876   13.1165   24.6948 H   0  0  0  0  0  0  0  0  0  0  0  0
    7.9430    8.9601   24.1453 H   0  0  0  0  0  0  0  0  0  0  0  0
    5.6432   11.1522   24.7033 H   0  0  0  0  0  0  0  0  0  0  0  0
    6.4030   10.0659   25.9155 H   0  0  0  0  0  0  0  0  0  0  0  0
    6.5012   11.8323   26.1282 H   0  0  0  0  0  0  0  0  0  0  0  0
    9.9740    9.4402   21.6924 H   0  0  0  0  0  0  0  0  0  0  0  0
   11.3201    9.9189   22.7633 H   0  0  0  0  0  0  0  0  0  0  0  0
   10.3001    8.5300   23.1970 H   0  0  0  0  0  0  0  0  0  0  0  0
  1  3  2  0  0  0  0
  1  6  1  0  0  0  0
  2  6  1  0  0  0  0
  2  7  2  0  0  0  0
  3  7  1  0  0  0  0
  3  8  1  0  0  0  0
  4  6  1  0  0  0  0
  5  7  1  0  0  0  0
  1  9  1  0  0  0  0
  2 10  1  0  0  0  0
  4 11  1  0  0  0  0
  4 12  1  0  0  0  0
  4 13  1  0  0  0  0
  5 14  1  0  0  0  0
  5 15  1  0  0  0  0
  5 16  1  0  0  0  0
M  CHG  1   7   1
M  END
> <Structure No>
34

> <Catalog ID>
Z4605084894

> <MW>
349.939

> <MW (desalted)>
223.035

> <ClogP>
-2.714

> <HBD>
0

> <HBA>
0

> <TPSA>
8.81

> <RotBonds>
0

> <logS>

> <ROCS_ShapeQuery>
A71EV2A-x0451_0A_A71EV2A-x0310_0A_A71EV2A-x0416_0A_peptide

> <ROCS_TanimotoCombo>
0.241 

> <ROCS_ShapeTanimoto>
0.190 

> <ROCS_ColorTanimoto>
0.051 

> <ROCS_RefTversky>
0.175 

> <ROCS_RefColorTversky>
0.055 

> <ROCS_RefTverskyCombo>
0.231 

> <ROCS_FitTversky>
1.781 

> <ROCS_FitColorTversky>
0.378 

> <ROCS_FitTverskyCombo>
2.159 

> <ROCS_ColorScore>
-1.676

> <ROCS_Overlap>
1211.750

> <ROCS_Rank>
40                  

$$$$
Compound 50_0
  -OEChem-11132309573D

 16 16  0     0  0  0  0  0  0999 V2000
    8.4448   12.1776   24.2934 C   0  0  0  0  0  0  0  0  0  0  0  0
    8.3071    9.9769   24.0969 C   0  0  0  0  0  0  0  0  0  0  0  0
    9.5173   11.7517   23.5618 C   0  0  0  0  0  0  0  0  0  0  0  0
    6.4872   11.0440   25.3814 C   0  0  0  0  0  0  0  0  0  0  0  0
   10.3253    9.5049   22.7635 C   0  0  0  0  0  0  0  0  0  0  0  0
    7.7128   11.0588   24.6106 N   0  0  0  0  0  0  0  0  0  0  0  0
    9.4067   10.3861   23.4561 N   0  3  0  0  0  0  0  0  0  0  0  0
   10.8692   12.8489   22.8502 Br  0  0  0  0  0  0  0  0  0  0  0  0
    8.0886   13.1286   24.6407 H   0  0  0  0  0  0  0  0  0  0  0  0
    7.9616    8.9588   24.1838 H   0  0  0  0  0  0  0  0  0  0  0  0
    5.6504   11.1533   24.6865 H   0  0  0  0  0  0  0  0  0  0  0  0
    6.4109   10.0987   25.9260 H   0  0  0  0  0  0  0  0  0  0  0  0
    6.5009   11.8700   26.0980 H   0  0  0  0  0  0  0  0  0  0  0  0
   10.0011    9.4016   21.7243 H   0  0  0  0  0  0  0  0  0  0  0  0
   11.3394    9.9137   22.7896 H   0  0  0  0  0  0  0  0  0  0  0  0
   10.3308    8.5241   23.2475 H   0  0  0  0  0  0  0  0  0  0  0  0
  1  3  2  0  0  0  0
  1  6  1  0  0  0  0
  2  6  1  0  0  0  0
  2  7  2  0  0  0  0
  3  7  1  0  0  0  0
  3  8  1  0  0  0  0
  4  6  1  0  0  0  0
  5  7  1  0  0  0  0
  1  9  1  0  0  0  0
  2 10  1  0  0  0  0
  4 11  1  0  0  0  0
  4 12  1  0  0  0  0
  4 13  1  0  0  0  0
  5 14  1  0  0  0  0
  5 15  1  0  0  0  0
  5 16  1  0  0  0  0
M  CHG  1   7   1
M  END
> <Structure No>
54

> <Catalog ID>
Z4605084910

> <MW>
302.939

> <MW (desalted)>
176.034

> <ClogP>
-2.974

> <HBD>
0

> <HBA>
0

> <TPSA>
8.81

> <RotBonds>
0

> <logS>

> <ROCS_ShapeQuery>
A71EV2A-x0451_0A_A71EV2A-x0310_0A_A71EV2A-x0416_0A_peptide

> <ROCS_TanimotoCombo>
0.241 

> <ROCS_ShapeTanimoto>
0.190 

> <ROCS_ColorTanimoto>
0.051 

> <ROCS_RefTversky>
0.175 

> <ROCS_RefColorTversky>
0.055 

> <ROCS_RefTverskyCombo>
0.231 

> <ROCS_FitTversky>
1.773 

> <ROCS_FitColorTversky>
0.378 

> <ROCS_FitTverskyCombo>
2.151 

> <ROCS_ColorScore>
-1.676

> <ROCS_Overlap>
1212.063

> <ROCS_Rank>
41                  

$$$$
Compound 48_0
  -OEChem-11132309573D

 16 16  0     0  0  0  0  0  0999 V2000
    8.1487    9.9775   24.1178 C   0  0  0  0  0  0  0  0  0  0  0  0
    8.5999   12.2217   24.2823 C   0  0  0  0  0  0  0  0  0  0  0  0
    7.6687   11.1825   24.6499 C   0  0  0  0  0  0  0  0  0  0  0  0
   10.1509    9.3155   22.7515 C   0  0  0  0  0  0  0  0  0  0  0  0
   10.7545   12.3680   22.9840 C   0  0  0  0  0  0  0  0  0  0  0  0
    9.3247   10.2702   23.4529 N   0  0  0  0  0  0  0  0  0  0  0  0
    9.6323   11.6855   23.5424 N   0  3  0  0  0  0  0  0  0  0  0  0
    6.2562   11.4141   25.5595 Cl  0  0  0  0  0  0  0  0  0  0  0  0
    7.7596    8.9691   24.1560 H   0  0  0  0  0  0  0  0  0  0  0  0
    8.5527   13.2755   24.5177 H   0  0  0  0  0  0  0  0  0  0  0  0
    9.8065    9.2688   21.7150 H   0  0  0  0  0  0  0  0  0  0  0  0
   11.1951    9.6376   22.7933 H   0  0  0  0  0  0  0  0  0  0  0  0
   10.0585    8.3369   23.2307 H   0  0  0  0  0  0  0  0  0  0  0  0
   11.5680   12.3683   23.7147 H   0  0  0  0  0  0  0  0  0  0  0  0
   11.0873   11.8704   22.0688 H   0  0  0  0  0  0  0  0  0  0  0  0
   10.4763   13.3975   22.7412 H   0  0  0  0  0  0  0  0  0  0  0  0
  1  3  2  0  0  0  0
  1  6  1  0  0  0  0
  2  3  1  0  0  0  0
  2  7  2  0  0  0  0
  3  8  1  0  0  0  0
  4  6  1  0  0  0  0
  5  7  1  0  0  0  0
  6  7  1  0  0  0  0
  1  9  1  0  0  0  0
  2 10  1  0  0  0  0
  4 11  1  0  0  0  0
  4 12  1  0  0  0  0
  4 13  1  0  0  0  0
  5 14  1  0  0  0  0
  5 15  1  0  0  0  0
  5 16  1  0  0  0  0
M  CHG  1   7   1
M  END
> <Structure No>
52

> <Catalog ID>
Z4605084918

> <MW>
258.488

> <MW (desalted)>
131.583

> <ClogP>
-2.864

> <HBD>
0

> <HBA>
0

> <TPSA>
8.81

> <RotBonds>
0

> <logS>

> <ROCS_ShapeQuery>
A71EV2A-x0451_0A_A71EV2A-x0310_0A_A71EV2A-x0416_0A_peptide

> <ROCS_TanimotoCombo>
0.240 

> <ROCS_ShapeTanimoto>
0.186 

> <ROCS_ColorTanimoto>
0.054 

> <ROCS_RefTversky>
0.172 

> <ROCS_RefColorTversky>
0.056 

> <ROCS_RefTverskyCombo>
0.228 

> <ROCS_FitTversky>
1.759 

> <ROCS_FitColorTversky>
0.661 

> <ROCS_FitTverskyCombo>
2.420 

> <ROCS_ColorScore>
-1.676

> <ROCS_Overlap>
1191.632

> <ROCS_Rank>
42                  

$$$$
Compound 34_0
  -OEChem-11132309573D

 15 15  0     0  0  0  0  0  0999 V2000
    8.8307    9.7295   23.6798 C   0  0  0  0  0  0  0  0  0  0  0  0
    7.7515   10.1397   24.4567 C   0  0  0  0  0  0  0  0  0  0  0  0
    9.7544   10.6663   23.2260 C   0  0  0  0  0  0  0  0  0  0  0  0
    7.6221   11.4870   24.7626 C   0  0  0  0  0  0  0  0  0  0  0  0
    9.5742   12.0003   23.5629 C   0  0  0  0  0  0  0  0  0  0  0  0
    8.3309   13.7737   24.6714 C   0  0  0  0  0  0  0  0  0  0  0  0
    8.5261   12.3679   24.3125 N   0  3  0  0  0  0  0  0  0  0  0  0
   10.7355   13.1467   22.9868 Cl  0  0  0  0  0  0  0  0  0  0  0  0
    8.9518    8.6800   23.4283 H   0  0  0  0  0  0  0  0  0  0  0  0
    7.0248    9.4195   24.8168 H   0  0  0  0  0  0  0  0  0  0  0  0
   10.5947   10.3409   22.6201 H   0  0  0  0  0  0  0  0  0  0  0  0
    6.8075   11.8749   25.3622 H   0  0  0  0  0  0  0  0  0  0  0  0
    8.8470   13.9731   25.6146 H   0  0  0  0  0  0  0  0  0  0  0  0
    8.7329   14.4262   23.8913 H   0  0  0  0  0  0  0  0  0  0  0  0
    7.2628   13.9803   24.7845 H   0  0  0  0  0  0  0  0  0  0  0  0
  1  2  1  0  0  0  0
  1  3  2  0  0  0  0
  2  4  2  0  0  0  0
  3  5  1  0  0  0  0
  4  7  1  0  0  0  0
  5  7  2  0  0  0  0
  5  8  1  0  0  0  0
  6  7  1  0  0  0  0
  1  9  1  0  0  0  0
  2 10  1  0  0  0  0
  3 11  1  0  0  0  0
  4 12  1  0  0  0  0
  6 13  1  0  0  0  0
  6 14  1  0  0  0  0
  6 15  1  0  0  0  0
M  CHG  1   7   1
M  END
> <Structure No>
36

> <Catalog ID>
Z104501460

> <MW>
254.931

> <MW (desalted)>
128.579

> <ClogP>
-3.486

> <HBD>
0

> <HBA>
0

> <TPSA>
3.88

> <RotBonds>
0

> <logS>
-2.76

> <ROCS_ShapeQuery>
A71EV2A-x0451_0A_A71EV2A-x0310_0A_A71EV2A-x0416_0A_peptide

> <ROCS_TanimotoCombo>
0.240 

> <ROCS_ShapeTanimoto>
0.186 

> <ROCS_ColorTanimoto>
0.054 

> <ROCS_RefTversky>
0.172 

> <ROCS_RefColorTversky>
0.056 

> <ROCS_RefTverskyCombo>
0.228 

> <ROCS_FitTversky>
1.743 

> <ROCS_FitColorTversky>
0.661 

> <ROCS_FitTverskyCombo>
2.404 

> <ROCS_ColorScore>
-1.676

> <ROCS_Overlap>
1191.348

> <ROCS_Rank>
43                  

$$$$
Compound 24_0
  -OEChem-11132309573D

 15 15  0     0  0  0  0  0  0999 V2000
    8.9138    9.7440   23.6740 C   0  0  0  0  0  0  0  0  0  0  0  0
    7.7810   10.0896   24.4044 C   0  0  0  0  0  0  0  0  0  0  0  0
    9.8095   10.7315   23.2747 C   0  0  0  0  0  0  0  0  0  0  0  0
    7.5705   11.4244   24.7197 C   0  0  0  0  0  0  0  0  0  0  0  0
    9.5476   12.0501   23.6184 C   0  0  0  0  0  0  0  0  0  0  0  0
    8.1639   13.7429   24.6901 C   0  0  0  0  0  0  0  0  0  0  0  0
    8.4490   12.3550   24.3226 N   0  3  0  0  0  0  0  0  0  0  0  0
   10.7957   13.3711   23.0539 Br  0  0  0  0  0  0  0  0  0  0  0  0
    9.0986    8.7054   23.4161 H   0  0  0  0  0  0  0  0  0  0  0  0
    7.0752    9.3294   24.7216 H   0  0  0  0  0  0  0  0  0  0  0  0
   10.6911   10.4534   22.7050 H   0  0  0  0  0  0  0  0  0  0  0  0
    6.7105   11.7629   25.2849 H   0  0  0  0  0  0  0  0  0  0  0  0
    8.6245   13.9541   25.6591 H   0  0  0  0  0  0  0  0  0  0  0  0
    8.5668   14.4274   23.9384 H   0  0  0  0  0  0  0  0  0  0  0  0
    7.0823   13.8921   24.7554 H   0  0  0  0  0  0  0  0  0  0  0  0
  1  2  1  0  0  0  0
  1  3  2  0  0  0  0
  2  4  2  0  0  0  0
  3  5  1  0  0  0  0
  4  7  1  0  0  0  0
  5  7  2  0  0  0  0
  5  8  1  0  0  0  0
  6  7  1  0  0  0  0
  1  9  1  0  0  0  0
  2 10  1  0  0  0  0
  3 11  1  0  0  0  0
  4 12  1  0  0  0  0
  6 13  1  0  0  0  0
  6 14  1  0  0  0  0
  6 15  1  0  0  0  0
M  CHG  1   7   1
M  END
> <Structure No>
24

> <Catalog ID>
Z56756330

> <MW>
298.881

> <MW (desalted)>
173.03

> <ClogP>
-3.336

> <HBD>
0

> <HBA>
0

> <TPSA>
3.88

> <RotBonds>
0

> <logS>
-2.97

> <ROCS_ShapeQuery>
A71EV2A-x0451_0A_A71EV2A-x0310_0A_A71EV2A-x0416_0A_peptide

> <ROCS_TanimotoCombo>
0.239 

> <ROCS_ShapeTanimoto>
0.187 

> <ROCS_ColorTanimoto>
0.052 

> <ROCS_RefTversky>
0.173 

> <ROCS_RefColorTversky>
0.055 

> <ROCS_RefTverskyCombo>
0.228 

> <ROCS_FitTversky>
1.759 

> <ROCS_FitColorTversky>
0.481 

> <ROCS_FitTverskyCombo>
2.240 

> <ROCS_ColorScore>
-1.676

> <ROCS_Overlap>
1195.636

> <ROCS_Rank>
44                  

$$$$
Compound 9_0
  -OEChem-11132309573D

 15 15  0     0  0  0  0  0  0999 V2000
    9.0020    9.8098   23.5251 C   0  0  0  0  0  0  0  0  0  0  0  0
    7.8643    9.9852   24.3069 C   0  0  0  0  0  0  0  0  0  0  0  0
    9.8153   10.8997   23.2295 C   0  0  0  0  0  0  0  0  0  0  0  0
    7.5660   11.2562   24.7771 C   0  0  0  0  0  0  0  0  0  0  0  0
    9.4675   12.1475   23.7269 C   0  0  0  0  0  0  0  0  0  0  0  0
    7.9824   13.5970   25.0098 C   0  0  0  0  0  0  0  0  0  0  0  0
    8.3663   12.2883   24.4774 N   0  3  0  0  0  0  0  0  0  0  0  0
   10.7396   13.7559   23.2505 I   0  0  0  0  0  0  0  0  0  0  0  0
    9.2530    8.8235   23.1461 H   0  0  0  0  0  0  0  0  0  0  0  0
    7.2212    9.1442   24.5431 H   0  0  0  0  0  0  0  0  0  0  0  0
   10.7003   10.7477   22.6188 H   0  0  0  0  0  0  0  0  0  0  0  0
    6.6967   11.4627   25.3897 H   0  0  0  0  0  0  0  0  0  0  0  0
    8.4458   13.7297   25.9913 H   0  0  0  0  0  0  0  0  0  0  0  0
    8.3149   14.3945   24.3393 H   0  0  0  0  0  0  0  0  0  0  0  0
    6.8941   13.6512   25.1054 H   0  0  0  0  0  0  0  0  0  0  0  0
  1  2  1  0  0  0  0
  1  3  2  0  0  0  0
  2  4  2  0  0  0  0
  3  5  1  0  0  0  0
  4  7  1  0  0  0  0
  5  7  2  0  0  0  0
  5  8  1  0  0  0  0
  6  7  1  0  0  0  0
  1  9  1  0  0  0  0
  2 10  1  0  0  0  0
  3 11  1  0  0  0  0
  4 12  1  0  0  0  0
  6 13  1  0  0  0  0
  6 14  1  0  0  0  0
  6 15  1  0  0  0  0
M  CHG  1   7   1
M  END
> <Structure No>
9

> <Catalog ID>
Z57205012

> <MW>
346.935

> <MW (desalted)>
220.031

> <ClogP>
-3.076

> <HBD>
0

> <HBA>
0

> <TPSA>
3.88

> <RotBonds>
0

> <logS>

> <ROCS_ShapeQuery>
A71EV2A-x0451_0A_A71EV2A-x0310_0A_A71EV2A-x0416_0A_peptide

> <ROCS_TanimotoCombo>
0.239 

> <ROCS_ShapeTanimoto>
0.187 

> <ROCS_ColorTanimoto>
0.052 

> <ROCS_RefTversky>
0.173 

> <ROCS_RefColorTversky>
0.055 

> <ROCS_RefTverskyCombo>
0.228 

> <ROCS_FitTversky>
1.767 

> <ROCS_FitColorTversky>
0.481 

> <ROCS_FitTverskyCombo>
2.248 

> <ROCS_ColorScore>
-1.676

> <ROCS_Overlap>
1194.577

> <ROCS_Rank>
45                  

$$$$
Compound 31_0
  -OEChem-11132309573D

 16 16  0     0  0  0  0  0  0999 V2000
    7.6239   11.0001   24.5482 C   0  0  0  0  0  0  0  0  0  0  0  0
    8.3263    9.9403   24.0479 C   0  0  0  0  0  0  0  0  0  0  0  0
    9.4995   11.7785   23.6671 C   0  0  0  0  0  0  0  0  0  0  0  0
    7.9901   13.4733   24.6695 C   0  0  0  0  0  0  0  0  0  0  0  0
   10.5167    9.6613   22.8690 C   0  0  0  0  0  0  0  0  0  0  0  0
    8.3734   12.1245   24.2992 N   0  0  0  0  0  0  0  0  0  0  0  0
    9.4823   10.4512   23.5086 N   0  3  0  0  0  0  0  0  0  0  0  0
   10.7614   12.8615   23.1449 Cl  0  0  0  0  0  0  0  0  0  0  0  0
    6.6842   11.1151   25.0534 H   0  0  0  0  0  0  0  0  0  0  0  0
    8.1660    8.8805   23.9980 H   0  0  0  0  0  0  0  0  0  0  0  0
    8.3789   13.6712   25.6718 H   0  0  0  0  0  0  0  0  0  0  0  0
    8.4098   14.1816   23.9498 H   0  0  0  0  0  0  0  0  0  0  0  0
    6.8996   13.5551   24.6581 H   0  0  0  0  0  0  0  0  0  0  0  0
   10.2932    9.5832   21.8015 H   0  0  0  0  0  0  0  0  0  0  0  0
   11.4945   10.1325   23.0028 H   0  0  0  0  0  0  0  0  0  0  0  0
   10.5458    8.6625   23.3138 H   0  0  0  0  0  0  0  0  0  0  0  0
  1  2  2  0  0  0  0
  1  6  1  0  0  0  0
  2  7  1  0  0  0  0
  3  6  1  0  0  0  0
  3  7  2  0  0  0  0
  3  8  1  0  0  0  0
  4  6  1  0  0  0  0
  5  7  1  0  0  0  0
  1  9  1  0  0  0  0
  2 10  1  0  0  0  0
  4 11  1  0  0  0  0
  4 12  1  0  0  0  0
  4 13  1  0  0  0  0
  5 14  1  0  0  0  0
  5 15  1  0  0  0  0
  5 16  1  0  0  0  0
M  CHG  1   7   1
M  END
> <Structure No>
32

> <Catalog ID>
Z4605084898

> <MW>
258.488

> <MW (desalted)>
131.583

> <ClogP>
-3.124

> <HBD>
0

> <HBA>
0

> <TPSA>
8.81

> <RotBonds>
0

> <logS>

> <ROCS_ShapeQuery>
A71EV2A-x0451_0A_A71EV2A-x0310_0A_A71EV2A-x0416_0A_peptide

> <ROCS_TanimotoCombo>
0.237 

> <ROCS_ShapeTanimoto>
0.185 

> <ROCS_ColorTanimoto>
0.052 

> <ROCS_RefTversky>
0.172 

> <ROCS_RefColorTversky>
0.055 

> <ROCS_RefTverskyCombo>
0.227 

> <ROCS_FitTversky>
1.726 

> <ROCS_FitColorTversky>
0.481 

> <ROCS_FitTverskyCombo>
2.207 

> <ROCS_ColorScore>
-1.676

> <ROCS_Overlap>
1185.988

> <ROCS_Rank>
46                  

$$$$
Compound 56_0
  -OEChem-11132309573D

 16 16  0     0  0  0  0  0  0999 V2000
    8.4016    9.9337   24.0282 C   0  0  0  0  0  0  0  0  0  0  0  0
    7.6670   10.9453   24.5795 C   0  0  0  0  0  0  0  0  0  0  0  0
    9.4642   11.8374   23.6442 C   0  0  0  0  0  0  0  0  0  0  0  0
   10.5481    9.7787   22.7606 C   0  0  0  0  0  0  0  0  0  0  0  0
    7.8997   13.4258   24.7491 C   0  0  0  0  0  0  0  0  0  0  0  0
    9.5077   10.5145   23.4559 N   0  0  0  0  0  0  0  0  0  0  0  0
    8.3480   12.1117   24.3271 N   0  3  0  0  0  0  0  0  0  0  0  0
   10.8705   13.2118   22.9949 I   0  0  0  0  0  0  0  0  0  0  0  0
    8.2920    8.8683   23.9608 H   0  0  0  0  0  0  0  0  0  0  0  0
    6.7435   11.0010   25.1228 H   0  0  0  0  0  0  0  0  0  0  0  0
   10.2699    9.7171   21.7052 H   0  0  0  0  0  0  0  0  0  0  0  0
   11.5019   10.3012   22.8747 H   0  0  0  0  0  0  0  0  0  0  0  0
   10.6340    8.7781   23.1935 H   0  0  0  0  0  0  0  0  0  0  0  0
    8.3073   13.6370   25.7415 H   0  0  0  0  0  0  0  0  0  0  0  0
    8.2411   14.1899   24.0451 H   0  0  0  0  0  0  0  0  0  0  0  0
    6.8069   13.4479   24.7867 H   0  0  0  0  0  0  0  0  0  0  0  0
  1  2  2  0  0  0  0
  1  6  1  0  0  0  0
  2  7  1  0  0  0  0
  3  6  1  0  0  0  0
  3  7  2  0  0  0  0
  3  8  1  0  0  0  0
  4  6  1  0  0  0  0
  5  7  1  0  0  0  0
  1  9  1  0  0  0  0
  2 10  1  0  0  0  0
  4 11  1  0  0  0  0
  4 12  1  0  0  0  0
  4 13  1  0  0  0  0
  5 14  1  0  0  0  0
  5 15  1  0  0  0  0
  5 16  1  0  0  0  0
M  CHG  1   7   1
M  END
> <Structure No>
60

> <Catalog ID>
Z4605084893

> <MW>
349.939

> <MW (desalted)>
223.035

> <ClogP>
-2.714

> <HBD>
0

> <HBA>
0

> <TPSA>
8.81

> <RotBonds>
0

> <logS>

> <ROCS_ShapeQuery>
A71EV2A-x0451_0A_A71EV2A-x0310_0A_A71EV2A-x0416_0A_peptide

> <ROCS_TanimotoCombo>
0.236 

> <ROCS_ShapeTanimoto>
0.185 

> <ROCS_ColorTanimoto>
0.051 

> <ROCS_RefTversky>
0.172 

> <ROCS_RefColorTversky>
0.055 

> <ROCS_RefTverskyCombo>
0.227 

> <ROCS_FitTversky>
1.743 

> <ROCS_FitColorTversky>
0.378 

> <ROCS_FitTverskyCombo>
2.120 

> <ROCS_ColorScore>
-1.676

> <ROCS_Overlap>
1185.755

> <ROCS_Rank>
47                  

$$$$
Compound 3_0
  -OEChem-11132309573D

 16 16  0     0  0  0  0  0  0999 V2000
    7.6572   10.7791   24.5059 C   0  0  0  0  0  0  0  0  0  0  0  0
    8.5054    9.9183   23.8684 C   0  0  0  0  0  0  0  0  0  0  0  0
    9.3950   11.9436   23.7819 C   0  0  0  0  0  0  0  0  0  0  0  0
    7.6546   13.2314   24.9982 C   0  0  0  0  0  0  0  0  0  0  0  0
   10.7066   10.1331   22.7000 C   0  0  0  0  0  0  0  0  0  0  0  0
    8.2328   12.0249   24.4377 N   0  0  0  0  0  0  0  0  0  0  0  0
    9.5718   10.6659   23.4303 N   0  3  0  0  0  0  0  0  0  0  0  0
   10.5743   13.3765   23.4166 Br  0  0  0  0  0  0  0  0  0  0  0  0
    6.7124   10.6805   25.0049 H   0  0  0  0  0  0  0  0  0  0  0  0
    8.5018    8.8658   23.6598 H   0  0  0  0  0  0  0  0  0  0  0  0
    8.0149   13.3325   26.0254 H   0  0  0  0  0  0  0  0  0  0  0  0
    7.9601   14.0939   24.3993 H   0  0  0  0  0  0  0  0  0  0  0  0
    6.5641   13.1515   24.9806 H   0  0  0  0  0  0  0  0  0  0  0  0
   10.4921   10.1807   21.6288 H   0  0  0  0  0  0  0  0  0  0  0  0
   11.6073   10.7141   22.9172 H   0  0  0  0  0  0  0  0  0  0  0  0
   10.8804    9.0945   22.9956 H   0  0  0  0  0  0  0  0  0  0  0  0
  1  2  2  0  0  0  0
  1  6  1  0  0  0  0
  2  7  1  0  0  0  0
  3  6  1  0  0  0  0
  3  7  2  0  0  0  0
  3  8  1  0  0  0  0
  4  6  1  0  0  0  0
  5  7  1  0  0  0  0
  1  9  1  0  0  0  0
  2 10  1  0  0  0  0
  4 11  1  0  0  0  0
  4 12  1  0  0  0  0
  4 13  1  0  0  0  0
  5 14  1  0  0  0  0
  5 15  1  0  0  0  0
  5 16  1  0  0  0  0
M  CHG  1   7   1
M  END
> <Structure No>
3

> <Catalog ID>
Z4605084902

> <MW>
302.939

> <MW (desalted)>
176.034

> <ClogP>
-2.974

> <HBD>
0

> <HBA>
0

> <TPSA>
8.81

> <RotBonds>
0

> <logS>

> <ROCS_ShapeQuery>
A71EV2A-x0451_0A_A71EV2A-x0310_0A_A71EV2A-x0416_0A_peptide

> <ROCS_TanimotoCombo>
0.235 

> <ROCS_ShapeTanimoto>
0.184 

> <ROCS_ColorTanimoto>
0.051 

> <ROCS_RefTversky>
0.171 

> <ROCS_RefColorTversky>
0.055 

> <ROCS_RefTverskyCombo>
0.226 

> <ROCS_FitTversky>
1.730 

> <ROCS_FitColorTversky>
0.378 

> <ROCS_FitTverskyCombo>
2.108 

> <ROCS_ColorScore>
-1.676

> <ROCS_Overlap>
1182.768

> <ROCS_Rank>
48                  

$$$$
Compound 15_0
  -OEChem-11132309573D

 16 16  0     0  0  0  0  0  0999 V2000
    7.6357   11.0817   24.6137 C   0  0  0  0  0  0  0  0  0  0  0  0
    8.3105    9.9330   24.0595 C   0  0  0  0  0  0  0  0  0  0  0  0
    8.4136   12.2107   24.3210 C   0  0  0  0  0  0  0  0  0  0  0  0
   10.5929   12.5921   23.1125 C   0  0  0  0  0  0  0  0  0  0  0  0
   10.4323    9.5076   22.7685 C   0  0  0  0  0  0  0  0  0  0  0  0
    9.5179   11.7682   23.6169 N   0  0  0  0  0  0  0  0  0  0  0  0
    9.4760   10.3287   23.4382 N   0  3  0  0  0  0  0  0  0  0  0  0
    8.0050   13.9898   24.8100 Br  0  0  0  0  0  0  0  0  0  0  0  0
    6.7014   11.0760   25.1578 H   0  0  0  0  0  0  0  0  0  0  0  0
    8.0001    8.8988   24.0955 H   0  0  0  0  0  0  0  0  0  0  0  0
   11.3613   12.6556   23.8874 H   0  0  0  0  0  0  0  0  0  0  0  0
   11.0021   12.1408   22.2043 H   0  0  0  0  0  0  0  0  0  0  0  0
   10.2049   13.5865   22.8748 H   0  0  0  0  0  0  0  0  0  0  0  0
   10.1538    9.4280   21.7141 H   0  0  0  0  0  0  0  0  0  0  0  0
   11.4324    9.9428   22.8491 H   0  0  0  0  0  0  0  0  0  0  0  0
   10.4460    8.5126   23.2225 H   0  0  0  0  0  0  0  0  0  0  0  0
  1  2  1  0  0  0  0
  1  3  2  0  0  0  0
  2  7  2  0  0  0  0
  3  6  1  0  0  0  0
  3  8  1  0  0  0  0
  4  6  1  0  0  0  0
  5  7  1  0  0  0  0
  6  7  1  0  0  0  0
  1  9  1  0  0  0  0
  2 10  1  0  0  0  0
  4 11  1  0  0  0  0
  4 12  1  0  0  0  0
  4 13  1  0  0  0  0
  5 14  1  0  0  0  0
  5 15  1  0  0  0  0
  5 16  1  0  0  0  0
M  CHG  1   7   1
M  END
> <Structure No>
15

> <Catalog ID>
Z4605084920

> <MW>
302.939

> <MW (desalted)>
176.034

> <ClogP>
-2.714

> <HBD>
0

> <HBA>
0

> <TPSA>
8.81

> <RotBonds>
0

> <logS>

> <ROCS_ShapeQuery>
A71EV2A-x0451_0A_A71EV2A-x0310_0A_A71EV2A-x0416_0A_peptide

> <ROCS_TanimotoCombo>
0.230 

> <ROCS_ShapeTanimoto>
0.178 

> <ROCS_ColorTanimoto>
0.052 

> <ROCS_RefTversky>
0.166 

> <ROCS_RefColorTversky>
0.055 

> <ROCS_RefTverskyCombo>
0.221 

> <ROCS_FitTversky>
1.702 

> <ROCS_FitColorTversky>
0.481 

> <ROCS_FitTverskyCombo>
2.183 

> <ROCS_ColorScore>
-1.676

> <ROCS_Overlap>
1147.046

> <ROCS_Rank>
49                  

$$$$
Compound 27_0
  -OEChem-11132309573D

 16 16  0     0  0  0  0  0  0999 V2000
    8.5520    9.9018   24.2413 C   0  0  0  0  0  0  0  0  0  0  0  0
    8.1236   12.1558   24.2941 C   0  0  0  0  0  0  0  0  0  0  0  0
    7.5940   10.8534   24.6184 C   0  0  0  0  0  0  0  0  0  0  0  0
   10.8342   10.0028   23.1944 C   0  0  0  0  0  0  0  0  0  0  0  0
   10.2391   13.0641   23.2688 C   0  0  0  0  0  0  0  0  0  0  0  0
    9.6222   10.5961   23.7087 N   0  0  0  0  0  0  0  0  0  0  0  0
    9.3752   12.0258   23.7308 N   0  3  0  0  0  0  0  0  0  0  0  0
    5.9249   10.5458   25.4003 Br  0  0  0  0  0  0  0  0  0  0  0  0
    8.5586    8.8224   24.3069 H   0  0  0  0  0  0  0  0  0  0  0  0
    7.6623   13.1221   24.4428 H   0  0  0  0  0  0  0  0  0  0  0  0
   10.6866    9.8034   22.1297 H   0  0  0  0  0  0  0  0  0  0  0  0
   11.6689   10.6937   23.3419 H   0  0  0  0  0  0  0  0  0  0  0  0
   11.0388    9.0737   23.7337 H   0  0  0  0  0  0  0  0  0  0  0  0
   10.8824   13.3826   24.0937 H   0  0  0  0  0  0  0  0  0  0  0  0
   10.8583   12.7058   22.4416 H   0  0  0  0  0  0  0  0  0  0  0  0
    9.6426   13.9111   22.9181 H   0  0  0  0  0  0  0  0  0  0  0  0
  1  3  2  0  0  0  0
  1  6  1  0  0  0  0
  2  3  1  0  0  0  0
  2  7  2  0  0  0  0
  3  8  1  0  0  0  0
  4  6  1  0  0  0  0
  5  7  1  0  0  0  0
  6  7  1  0  0  0  0
  1  9  1  0  0  0  0
  2 10  1  0  0  0  0
  4 11  1  0  0  0  0
  4 12  1  0  0  0  0
  4 13  1  0  0  0  0
  5 14  1  0  0  0  0
  5 15  1  0  0  0  0
  5 16  1  0  0  0  0
M  CHG  1   7   1
M  END
> <Structure No>
27

> <Catalog ID>
Z4605084903

> <MW>
302.939

> <MW (desalted)>
176.034

> <ClogP>
-2.714

> <HBD>
0

> <HBA>
0

> <TPSA>
8.81

> <RotBonds>
0

> <logS>

> <ROCS_ShapeQuery>
A71EV2A-x0451_0A_A71EV2A-x0310_0A_A71EV2A-x0416_0A_peptide

> <ROCS_TanimotoCombo>
0.230 

> <ROCS_ShapeTanimoto>
0.178 

> <ROCS_ColorTanimoto>
0.052 

> <ROCS_RefTversky>
0.166 

> <ROCS_RefColorTversky>
0.055 

> <ROCS_RefTverskyCombo>
0.221 

> <ROCS_FitTversky>
1.701 

> <ROCS_FitColorTversky>
0.475 

> <ROCS_FitTverskyCombo>
2.176 

> <ROCS_ColorScore>
-1.657

> <ROCS_Overlap>
1146.322

> <ROCS_Rank>
50                  

$$$$
Compound 46_0
  -OEChem-11132309573D

 16 16  0     0  0  0  0  0  0999 V2000
    7.6197   11.1141   24.5743 C   0  0  0  0  0  0  0  0  0  0  0  0
    8.2646    9.9493   24.0179 C   0  0  0  0  0  0  0  0  0  0  0  0
    8.4530   12.2150   24.3312 C   0  0  0  0  0  0  0  0  0  0  0  0
   10.6863   12.5234   23.1944 C   0  0  0  0  0  0  0  0  0  0  0  0
   10.4082    9.4605   22.7876 C   0  0  0  0  0  0  0  0  0  0  0  0
    9.5609   11.7406   23.6541 N   0  0  0  0  0  0  0  0  0  0  0  0
    9.4655   10.3081   23.4434 N   0  3  0  0  0  0  0  0  0  0  0  0
    8.0595   14.1612   24.8963 I   0  0  0  0  0  0  0  0  0  0  0  0
    6.6670   11.1331   25.0854 H   0  0  0  0  0  0  0  0  0  0  0  0
    7.9099    8.9288   24.0206 H   0  0  0  0  0  0  0  0  0  0  0  0
   11.4325   12.5426   23.9931 H   0  0  0  0  0  0  0  0  0  0  0  0
   11.1033   12.0669   22.2924 H   0  0  0  0  0  0  0  0  0  0  0  0
   10.3496   13.5371   22.9598 H   0  0  0  0  0  0  0  0  0  0  0  0
   10.1618    9.4139   21.7233 H   0  0  0  0  0  0  0  0  0  0  0  0
   11.4223    9.8511   22.9098 H   0  0  0  0  0  0  0  0  0  0  0  0
   10.3652    8.4570   23.2205 H   0  0  0  0  0  0  0  0  0  0  0  0
  1  2  1  0  0  0  0
  1  3  2  0  0  0  0
  2  7  2  0  0  0  0
  3  6  1  0  0  0  0
  3  8  1  0  0  0  0
  4  6  1  0  0  0  0
  5  7  1  0  0  0  0
  6  7  1  0  0  0  0
  1  9  1  0  0  0  0
  2 10  1  0  0  0  0
  4 11  1  0  0  0  0
  4 12  1  0  0  0  0
  4 13  1  0  0  0  0
  5 14  1  0  0  0  0
  5 15  1  0  0  0  0
  5 16  1  0  0  0  0
M  CHG  1   7   1
M  END
> <Structure No>
49

> <Catalog ID>
Z4605084922

> <MW>
349.939

> <MW (desalted)>
223.035

> <ClogP>
-2.454

> <HBD>
0

> <HBA>
0

> <TPSA>
8.81

> <RotBonds>
0

> <logS>

> <ROCS_ShapeQuery>
A71EV2A-x0451_0A_A71EV2A-x0310_0A_A71EV2A-x0416_0A_peptide

> <ROCS_TanimotoCombo>
0.229 

> <ROCS_ShapeTanimoto>
0.176 

> <ROCS_ColorTanimoto>
0.052 

> <ROCS_RefTversky>
0.164 

> <ROCS_RefColorTversky>
0.055 

> <ROCS_RefTverskyCombo>
0.220 

> <ROCS_FitTversky>
1.693 

> <ROCS_FitColorTversky>
0.481 

> <ROCS_FitTverskyCombo>
2.174 

> <ROCS_ColorScore>
-1.676

> <ROCS_Overlap>
1136.332

> <ROCS_Rank>
51                  

$$$$
Compound 8_0
  -OEChem-11132309573D

 15 15  0     0  0  0  0  0  0999 V2000
   12.6949   13.4329   23.9082 C   0  0  0  0  0  0  0  0  0  0  0  0
   11.0119   11.6820   23.5948 C   0  0  0  0  0  0  0  0  0  0  0  0
    9.6712   11.3365   23.6542 C   0  0  0  0  0  0  0  0  0  0  0  0
    9.1678   13.4891   24.3490 C   0  0  0  0  0  0  0  0  0  0  0  0
   11.3416   12.9839   23.9386 C   0  0  0  0  0  0  0  0  0  0  0  0
    7.3565   11.9018   24.0983 C   0  0  0  0  0  0  0  0  0  0  0  0
   13.7961   13.7984   23.8834 N   0  0  0  0  0  0  0  0  0  0  0  0
   10.4451   13.9184   24.3219 N   0  0  0  0  0  0  0  0  0  0  0  0
    8.7681   12.2513   24.0322 N   0  3  0  0  0  0  0  0  0  0  0  0
   11.7579   10.9567   23.2903 H   0  0  0  0  0  0  0  0  0  0  0  0
    9.3020   10.3495   23.4067 H   0  0  0  0  0  0  0  0  0  0  0  0
    8.4066   14.1982   24.6499 H   0  0  0  0  0  0  0  0  0  0  0  0
    7.1314   11.5261   25.1002 H   0  0  0  0  0  0  0  0  0  0  0  0
    6.7360   12.7780   23.8901 H   0  0  0  0  0  0  0  0  0  0  0  0
    7.1327   11.1302   23.3561 H   0  0  0  0  0  0  0  0  0  0  0  0
  1  5  1  0  0  0  0
  1  7  3  0  0  0  0
  2  3  2  0  0  0  0
  2  5  1  0  0  0  0
  3  9  1  0  0  0  0
  4  8  1  0  0  0  0
  4  9  2  0  0  0  0
  5  8  2  0  0  0  0
  6  9  1  0  0  0  0
  2 10  1  0  0  0  0
  3 11  1  0  0  0  0
  4 12  1  0  0  0  0
  6 13  1  0  0  0  0
  6 14  1  0  0  0  0
  6 15  1  0  0  0  0
M  CHG  1   9   1
M  END
> <Structure No>
8

> <Catalog ID>
Z4605084914

> <MW>
247.036

> <MW (desalted)>
120.132

> <ClogP>
-5.605

> <HBD>
0

> <HBA>
2

> <TPSA>
40.56

> <RotBonds>
0

> <logS>

> <ROCS_ShapeQuery>
A71EV2A-x0451_0A_A71EV2A-x0310_0A_A71EV2A-x0416_0A_peptide

> <ROCS_TanimotoCombo>
0.229 

> <ROCS_ShapeTanimoto>
0.145 

> <ROCS_ColorTanimoto>
0.084 

> <ROCS_RefTversky>
0.140 

> <ROCS_RefColorTversky>
0.089 

> <ROCS_RefTverskyCombo>
0.229 

> <ROCS_FitTversky>
1.312 

> <ROCS_FitColorTversky>
0.604 

> <ROCS_FitTverskyCombo>
1.916 

> <ROCS_ColorScore>
-2.680

> <ROCS_Overlap>
968.415

> <ROCS_Rank>
52                  

$$$$
Compound 23_0
  -OEChem-11132309573D

 12 12  0     0  0  0  0  0  0999 V2000
    9.6909   10.7365   23.4123 C   0  0  0  0  0  0  0  0  0  0  0  0
    7.7073   10.4855   24.4926 C   0  0  0  0  0  0  0  0  0  0  0  0
    9.4191   12.0550   23.6900 C   0  0  0  0  0  0  0  0  0  0  0  0
    8.7700    8.4640   23.7034 C   0  0  0  0  0  0  0  0  0  0  0  0
    8.7081    9.8921   23.8785 N   0  3  0  0  0  0  0  0  0  0  0  0
    7.9253   12.1815   24.5337 S   0  0  0  0  0  0  0  0  0  0  0  0
   10.5118   13.5275   23.2216 Br  0  0  0  0  0  0  0  0  0  0  0  0
   10.5581   10.3494   22.8942 H   0  0  0  0  0  0  0  0  0  0  0  0
    6.8588    9.9634   24.9132 H   0  0  0  0  0  0  0  0  0  0  0  0
    9.2881    8.0244   24.5601 H   0  0  0  0  0  0  0  0  0  0  0  0
    7.7627    8.0440   23.6324 H   0  0  0  0  0  0  0  0  0  0  0  0
    9.3129    8.2286   22.7835 H   0  0  0  0  0  0  0  0  0  0  0  0
  1  3  2  0  0  0  0
  1  5  1  0  0  0  0
  2  5  2  0  0  0  0
  2  6  1  0  0  0  0
  3  6  1  0  0  0  0
  3  7  1  0  0  0  0
  4  5  1  0  0  0  0
  1  8  1  0  0  0  0
  2  9  1  0  0  0  0
  4 10  1  0  0  0  0
  4 11  1  0  0  0  0
  4 12  1  0  0  0  0
M  CHG  1   5   1
M  END
> <Structure No>
23

> <Catalog ID>
Z4605084928

> <MW>
305.963

> <MW (desalted)>
179.058

> <ClogP>
-2.47

> <HBD>
0

> <HBA>
0

> <TPSA>
3.88

> <RotBonds>
0

> <logS>

> <ROCS_ShapeQuery>
A71EV2A-x0451_0A_A71EV2A-x0310_0A_A71EV2A-x0416_0A_peptide

> <ROCS_TanimotoCombo>
0.222 

> <ROCS_ShapeTanimoto>
0.170 

> <ROCS_ColorTanimoto>
0.052 

> <ROCS_RefTversky>
0.158 

> <ROCS_RefColorTversky>
0.055 

> <ROCS_RefTverskyCombo>
0.213 

> <ROCS_FitTversky>
1.758 

> <ROCS_FitColorTversky>
0.481 

> <ROCS_FitTverskyCombo>
2.239 

> <ROCS_ColorScore>
-1.676

> <ROCS_Overlap>
1091.730

> <ROCS_Rank>
53                  

$$$$
Compound 20_0
  -OEChem-11132309573D

 12 12  0     0  0  0  0  0  0999 V2000
    7.6547   11.0087   24.6351 C   0  0  0  0  0  0  0  0  0  0  0  0
    8.2307    9.8909   24.0800 C   0  0  0  0  0  0  0  0  0  0  0  0
    9.4663   11.9725   23.6585 C   0  0  0  0  0  0  0  0  0  0  0  0
    7.9479   13.4373   24.8690 C   0  0  0  0  0  0  0  0  0  0  0  0
    8.3778   12.1515   24.3754 N   0  3  0  0  0  0  0  0  0  0  0  0
    9.6714   10.3252   23.2463 S   0  0  0  0  0  0  0  0  0  0  0  0
   10.6937   13.3241   23.1185 Br  0  0  0  0  0  0  0  0  0  0  0  0
    6.7427   11.0378   25.2151 H   0  0  0  0  0  0  0  0  0  0  0  0
    7.8898    8.8663   24.1187 H   0  0  0  0  0  0  0  0  0  0  0  0
    8.3893   13.6034   25.8556 H   0  0  0  0  0  0  0  0  0  0  0  0
    8.2657   14.2329   24.1893 H   0  0  0  0  0  0  0  0  0  0  0  0
    6.8569   13.4570   24.9449 H   0  0  0  0  0  0  0  0  0  0  0  0
  1  2  2  0  0  0  0
  1  5  1  0  0  0  0
  2  6  1  0  0  0  0
  3  5  2  0  0  0  0
  3  6  1  0  0  0  0
  3  7  1  0  0  0  0
  4  5  1  0  0  0  0
  1  8  1  0  0  0  0
  2  9  1  0  0  0  0
  4 10  1  0  0  0  0
  4 11  1  0  0  0  0
  4 12  1  0  0  0  0
M  CHG  1   5   1
M  END
> <Structure No>
20

> <Catalog ID>
Z4605084884

> <MW>
305.963

> <MW (desalted)>
179.058

> <ClogP>
-2.47

> <HBD>
0

> <HBA>
0

> <TPSA>
3.88

> <RotBonds>
0

> <logS>

> <ROCS_ShapeQuery>
A71EV2A-x0451_0A_A71EV2A-x0310_0A_A71EV2A-x0416_0A_peptide

> <ROCS_TanimotoCombo>
0.217 

> <ROCS_ShapeTanimoto>
0.164 

> <ROCS_ColorTanimoto>
0.052 

> <ROCS_RefTversky>
0.154 

> <ROCS_RefColorTversky>
0.055 

> <ROCS_RefTverskyCombo>
0.209 

> <ROCS_FitTversky>
1.711 

> <ROCS_FitColorTversky>
0.481 

> <ROCS_FitTverskyCombo>
2.192 

> <ROCS_ColorScore>
-1.676

> <ROCS_Overlap>
1063.192

> <ROCS_Rank>
54                  

$$$$
Compound 2_0
  -OEChem-11132309573D

  8  7  0     0  0  0  0  0  0999 V2000
    8.8443   11.7696   23.5528 C   0  0  0  0  0  0  0  0  0  0  0  0
    8.2498    9.3671   24.0559 O   0  5  0  0  0  0  0  0  0  0  0  0
    6.9823   11.1762   25.1526 O   0  0  0  0  0  0  0  0  0  0  0  0
    9.3186   10.7351   25.8072 O   0  0  0  0  0  0  0  0  0  0  0  0
    7.9992   11.8192   22.4942 F   0  0  0  0  0  0  0  0  0  0  0  0
    8.9443   13.0290   24.0434 F   0  0  0  0  0  0  0  0  0  0  0  0
   10.0654   11.4291   23.0735 F   0  0  0  0  0  0  0  0  0  0  0  0
    8.2873   10.6372   24.7770 S   0  0  0  0  0  0  0  0  0  0  0  0
  1  5  1  0  0  0  0
  1  6  1  0  0  0  0
  1  7  1  0  0  0  0
  1  8  1  0  0  0  0
  2  8  1  0  0  0  0
  3  8  2  0  0  0  0
  4  8  2  0  0  0  0
M  CHG  1   2  -1
M  END
> <Structure No>
2

> <Catalog ID>
Z4605084923

> <MW>
274.241

> <MW (desalted)>
125.172

> <ClogP>
-3.881

> <HBD>
0

> <HBA>
1

> <TPSA>
27.67

> <RotBonds>
1

> <logS>

> <ROCS_ShapeQuery>
A71EV2A-x0451_0A_A71EV2A-x0310_0A_A71EV2A-x0416_0A_peptide

> <ROCS_TanimotoCombo>
0.206 

> <ROCS_ShapeTanimoto>
0.150 

> <ROCS_ColorTanimoto>
0.056 

> <ROCS_RefTversky>
0.143 

> <ROCS_RefColorTversky>
0.063 

> <ROCS_RefTverskyCombo>
0.206 

> <ROCS_FitTversky>
1.474 

> <ROCS_FitColorTversky>
0.351 

> <ROCS_FitTverskyCombo>
1.825 

> <ROCS_ColorScore>
-1.896

> <ROCS_Overlap>
990.731

> <ROCS_Rank>
55                  

$$$$
Compound 41_0
  -OEChem-11132309573D

  8  7  0     0  0  0  0  0  0999 V2000
    8.8443   11.7696   23.5528 C   0  0  0  0  0  0  0  0  0  0  0  0
    8.2498    9.3671   24.0559 O   0  5  0  0  0  0  0  0  0  0  0  0
    6.9823   11.1762   25.1526 O   0  0  0  0  0  0  0  0  0  0  0  0
    9.3186   10.7351   25.8072 O   0  0  0  0  0  0  0  0  0  0  0  0
    7.9992   11.8192   22.4942 F   0  0  0  0  0  0  0  0  0  0  0  0
    8.9443   13.0290   24.0434 F   0  0  0  0  0  0  0  0  0  0  0  0
   10.0654   11.4291   23.0735 F   0  0  0  0  0  0  0  0  0  0  0  0
    8.2873   10.6372   24.7770 S   0  0  0  0  0  0  0  0  0  0  0  0
  1  5  1  0  0  0  0
  1  6  1  0  0  0  0
  1  7  1  0  0  0  0
  1  8  1  0  0  0  0
  2  8  1  0  0  0  0
  3  8  2  0  0  0  0
  4  8  2  0  0  0  0
M  CHG  1   2  -1
M  END
> <Structure No>
44

> <Catalog ID>
Z4605084897

> <MW>
359.062

> <MW (desalted)>
150.077

> <ClogP>
-5.565

> <HBD>
0

> <HBA>
3

> <TPSA>
57.2

> <RotBonds>
1

> <logS>

> <ROCS_ShapeQuery>
A71EV2A-x0451_0A_A71EV2A-x0310_0A_A71EV2A-x0416_0A_peptide

> <ROCS_TanimotoCombo>
0.206 

> <ROCS_ShapeTanimoto>
0.150 

> <ROCS_ColorTanimoto>
0.056 

> <ROCS_RefTversky>
0.143 

> <ROCS_RefColorTversky>
0.063 

> <ROCS_RefTverskyCombo>
0.206 

> <ROCS_FitTversky>
1.474 

> <ROCS_FitColorTversky>
0.351 

> <ROCS_FitTverskyCombo>
1.825 

> <ROCS_ColorScore>
-1.896

> <ROCS_Overlap>
990.731

> <ROCS_Rank>
56                  

$$$$
Compound 5_0
  -OEChem-11132309573D

 14 14  0     0  0  0  0  0  0999 V2000
    9.3874   13.5395   24.8335 C   0  0  0  0  0  0  0  0  0  0  0  0
    9.3355   11.4862   23.6644 C   0  0  0  0  0  0  0  0  0  0  0  0
   11.1010   12.9730   23.4582 C   0  0  0  0  0  0  0  0  0  0  0  0
    8.7203   12.3580   24.5488 C   0  0  0  0  0  0  0  0  0  0  0  0
   11.1788   10.9038   22.2019 C   0  0  0  0  0  0  0  0  0  0  0  0
   10.5824   13.8830   24.3063 N   0  0  0  0  0  0  0  0  0  0  0  0
   10.5214   11.8111   23.1320 N   0  3  0  0  0  0  0  0  0  0  0  0
    7.2058   11.9897   25.2557 Cl  0  0  0  0  0  0  0  0  0  0  0  0
    8.9693   14.2727   25.5171 H   0  0  0  0  0  0  0  0  0  0  0  0
    8.9133   10.5345   23.3652 H   0  0  0  0  0  0  0  0  0  0  0  0
   12.0591   13.1977   23.0055 H   0  0  0  0  0  0  0  0  0  0  0  0
   10.8571   11.1451   21.1851 H   0  0  0  0  0  0  0  0  0  0  0  0
   12.2654   11.0047   22.2737 H   0  0  0  0  0  0  0  0  0  0  0  0
   10.9067    9.8714   22.4397 H   0  0  0  0  0  0  0  0  0  0  0  0
  1  4  1  0  0  0  0
  1  6  2  0  0  0  0
  2  4  2  0  0  0  0
  2  7  1  0  0  0  0
  3  6  1  0  0  0  0
  3  7  2  0  0  0  0
  4  8  1  0  0  0  0
  5  7  1  0  0  0  0
  1  9  1  0  0  0  0
  2 10  1  0  0  0  0
  3 11  1  0  0  0  0
  5 12  1  0  0  0  0
  5 13  1  0  0  0  0
  5 14  1  0  0  0  0
M  CHG  1   7   1
M  END
> <Structure No>
5

> <Catalog ID>
Z4605084925

> <MW>
256.472

> <MW (desalted)>
129.568

> <ClogP>
-4.564

> <HBD>
0

> <HBA>
1

> <TPSA>
16.77

> <RotBonds>
0

> <logS>

> <ROCS_ShapeQuery>
A71EV2A-x0451_0A_A71EV2A-x0310_0A_A71EV2A-x0416_0A_peptide

> <ROCS_TanimotoCombo>
0.200 

> <ROCS_ShapeTanimoto>
0.144 

> <ROCS_ColorTanimoto>
0.055 

> <ROCS_RefTversky>
0.139 

> <ROCS_RefColorTversky>
0.059 

> <ROCS_RefTverskyCombo>
0.197 

> <ROCS_FitTversky>
1.397 

> <ROCS_FitColorTversky>
0.509 

> <ROCS_FitTverskyCombo>
1.905 

> <ROCS_ColorScore>
-1.772

> <ROCS_Overlap>
958.222

> <ROCS_Rank>
57                  

$$$$
